data_image0
_chemical_formula_structural       Cd2H26C36N10O14
_chemical_formula_sum              "Cd2 H26 C36 N10 O14"
_cell_length_a       10.365935994210716
_cell_length_b       10.886477294394796
_cell_length_c       11.060543160597804
_cell_angle_alpha    102.53121476356482
_cell_angle_beta     104.67697440872891
_cell_angle_gamma    111.71916337856801

_space_group_name_H-M_alt    "P 1"
_space_group_IT_number       1

loop_
  _space_group_symop_operation_xyz
  'x, y, z'

loop_
  _atom_site_type_symbol
  _atom_site_label
  _atom_site_symmetry_multiplicity
  _atom_site_fract_x
  _atom_site_fract_y
  _atom_site_fract_z
  _atom_site_occupancy
  Cd  Cd1       1.0  0.347258449463041  0.4125531463924332  0.6574794639842734  1.0000
  Cd  Cd2       1.0  0.6527414392076167  0.5874464940036789  0.3425203440322661  1.0000
  H   H1        1.0  0.8434256222726332  0.42218383331776016  0.6521809555743443  1.0000
  H   H2        1.0  0.15657173284483147  0.5778146480487506  0.3478188345484624  1.0000
  H   H3        1.0  0.8390226009077253  0.6774109789108139  0.00755115053767236  1.0000
  H   H4        1.0  0.16098174988434266  0.3225940783016696  0.9924483121786378  1.0000
  H   H5        1.0  0.376495947436176  0.39170483156631525  0.9297373708328676  1.0000
  H   H6        1.0  0.6235088378349046  0.6082991437735856  0.07026468198800725  1.0000
  H   H7        1.0  0.24817812871906847  0.6672302487535547  0.995934392623496  1.0000
  H   H8        1.0  0.7518203730260496  0.33276623360286106  0.004064354174005343  1.0000
  H   H9        1.0  0.44818195891084395  0.27149419766139005  0.08430528680723626  1.0000
  H   H10       1.0  0.5518179297598067  0.7285054427347221  0.9156945212093104  1.0000
  H   H11       1.0  0.9089525971223651  0.10311825342616031  0.1742457704427877  1.0000
  H   H12       1.0  0.09104466682332908  0.8968822918920907  0.8257544505441812  1.0000
  H   H13       1.0  0.030580593977035185  0.257577908849008  0.41756605642595435  1.0000
  H   H14       1.0  0.9694192035218521  0.7424237954988443  0.5824341824547473  1.0000
  H   H15       1.0  0.3206989040869103  0.07923720761912283  0.6014072681474116  1.0000
  H   H16       1.0  0.6792994549817594  0.9207634261743539  0.3985914513020601  1.0000
  H   H17       1.0  0.3926677513578695  0.9457686878348923  0.7432275282603766  1.0000
  H   H18       1.0  0.6073291811181746  0.054228764385293005  0.256771019046404  1.0000
  H   H19       1.0  0.32862974366948083  0.0943087386117796  0.20277630647073852  1.0000
  H   H20       1.0  0.6713646670909625  0.9056854435599035  0.7972235702308409  1.0000
  H   H21       1.0  0.43145369400630773  0.2460023451137019  0.4441142447401844  1.0000
  H   H22       1.0  0.5685432899744145  0.7539930196211702  0.5558847607787811  1.0000
  H   H23       1.0  0.22187687663738828  0.5584110610090746  0.5615132180386194  1.0000
  H   H24       1.0  0.7781195935301426  0.44158533853121185  0.43848497552847476  1.0000
  H   H25       1.0  0.3428076329890999  0.5842960867676723  0.49115378373144825  1.0000
  H   H26       1.0  0.6571906864124769  0.41570452349222364  0.5088458247943706  1.0000
  C   C1        1.0  0.8228908254178436  0.5471085707671365  0.8209397991689894  1.0000
  C   C2        1.0  0.17711200760982848  0.4528953688238033  0.1790599222687774  1.0000
  C   C3        1.0  0.053504097698535744  0.5408127848168932  0.8149049706465588  1.0000
  C   C4        1.0  0.9464973087365183  0.4591879732007629  0.18509457864851703  1.0000
  C   C5        1.0  0.05046668375238999  0.6820362044470232  0.012597959115453255  1.0000
  C   C6        1.0  0.9495353554971258  0.3179635893659595  0.9873997349024459  1.0000
  C   C7        1.0  0.9009541739075717  0.49762434266510547  0.7533818328757248  1.0000
  C   C8        1.0  0.09904667904719128  0.5023774266243919  0.2466177935438266  1.0000
  C   C9        1.0  0.6596887222456685  0.5021440207588838  0.7534536394307592  1.0000
  C   C10       1.0  0.34031254151292967  0.49786088869583295  0.24654588251629403  1.0000
  C   C11       1.0  0.4282153942995066  0.10104537897355212  0.9252351206127611  1.0000
  C   C12       1.0  0.5717820004850509  0.8989531259265391  0.07476378043369172  1.0000
  C   C13       1.0  0.8982594920611217  0.6397457296298086  0.952674434543631  1.0000
  C   C14       1.0  0.10174376360797771  0.3602592391074496  0.04732652971016898  1.0000
  C   C15       1.0  0.3812961678720512  0.2929825525920293  0.8922880547990741  1.0000
  C   C16       1.0  0.6187062543517925  0.7070182468336911  0.10771177111120517  1.0000
  C   C17       1.0  0.12990470567820014  0.6344692408658404  0.9463145155384252  1.0000
  C   C18       1.0  0.8700957364727344  0.3655293882584374  0.053685215353638654  1.0000
  C   C19       1.0  0.42044925699615726  0.22563132019950422  0.9780944872172979  1.0000
  C   C20       1.0  0.5795511851547772  0.7743673089247738  0.021905243674766105  1.0000
  C   C21       1.0  0.025077033444304696  0.1340653391613458  0.23147940047793  1.0000
  C   C22       1.0  0.9749202701684824  0.8659352296904861  0.7685199314326921  1.0000
  C   C23       1.0  0.0910072432605062  0.2177373748349396  0.36513549422122776  1.0000
  C   C24       1.0  0.9089910761410778  0.7822632354249565  0.6348641143045979  1.0000
  C   C25       1.0  0.35039687052479707  0.11816910125558173  0.7090594618389543  1.0000
  C   C26       1.0  0.6496035201214597  0.8818316153540097  0.29093981084092485  1.0000
  C   C27       1.0  0.39021046680790755  0.044226128633326305  0.7871880754610385  1.0000
  C   C28       1.0  0.6097869279766501  0.9557723762667651  0.21281082558542141  1.0000
  C   C29       1.0  0.11195159250638648  0.090000060260337  0.17122671079213342  1.0000
  C   C30       1.0  0.8880472803754742  0.9099995387277175  0.8287728206092096  1.0000
  C   C31       1.0  0.13390537482171544  0.48475294788609363  0.7397960014753691  1.0000
  C   C32       1.0  0.8660949761574485  0.5152477451899244  0.26020416028085686  1.0000
  C   C33       1.0  0.25997339536370845  0.1289389808156827  0.24742217690342014  1.0000
  C   C34       1.0  0.7400240112584343  0.8710574130655077  0.7525780714315785  1.0000
  C   C35       1.0  0.3168723681259067  0.21250863296197056  0.3807655633052604  1.0000
  C   C36       1.0  0.6831255404718419  0.7874888371326991  0.6192341496930708  1.0000
  N   N1        1.0  0.2347163169581847  0.25674648314450377  0.43854880146879777  1.0000
  N   N2        1.0  0.7652830578992822  0.7432541920570304  0.5614501945958777  1.0000
  N   N3        1.0  0.3474506970075453  0.24092980762069527  0.7602915340572307  1.0000
  N   N4        1.0  0.6525512114031072  0.7590720266104398  0.23970747990117747  1.0000
  N   N5        1.0  0.1290179205444844  0.7771925793473572  0.15224339374170626  1.0000
  N   N6        1.0  0.870983588899925  0.22280400369966458  0.8477570719777459  1.0000
  N   N7        1.0  0.4726444919131226  0.04015238248292261  0.01894809545418501  1.0000
  N   N8        1.0  0.5273504089853347  0.9598449869211481  0.9810498986221884  1.0000
  N   N9        1.0  0.0598436752185307  0.0035166035262435003  0.036554952504189886  1.0000
  N   N10       1.0  0.9401516879884395  0.9964818185577253  0.9634433953118698  1.0000
  O   O1        1.0  0.593413773412962  0.4223783113813298  0.6311907640876482  1.0000
  O   O2        1.0  0.4065869883700373  0.5776255218599005  0.3688092931960724  1.0000
  O   O3        1.0  0.5922357341474793  0.5446821428141817  0.8207449406870634  1.0000
  O   O4        1.0  0.4077641030184935  0.45531958506725806  0.1792544091172914  1.0000
  O   O5        1.0  0.2616099048351615  0.5002475082152318  0.8099119996303796  1.0000
  O   O6        1.0  0.7383893510210272  0.49975309638556115  0.1900896636633433  1.0000
  O   O7        1.0  0.07323016567122659  0.4288744030537543  0.6142597776862926  1.0000
  O   O8        1.0  0.9267726791940376  0.5711274255182844  0.3857412910400128  1.0000
  O   O9        1.0  0.05335808251105326  0.80643718733252  0.21384038501975053  1.0000
  O   O10       1.0  0.9466482483539307  0.19357004018140597  0.7861591727147679  1.0000
  O   O11       1.0  0.26667168200027186  0.822529194755866  0.20103767270533265  1.0000
  O   O12       1.0  0.7333300968051121  0.17745483984564467  0.7989664313635954  1.0000
  O   O13       1.0  0.32956070711226454  0.5963751771245427  0.5790468835438104  1.0000
  O   O14       1.0  0.6704357115505885  0.40362330990106454  0.4209508518110993  1.0000
