data_image0
_chemical_formula_structural       Nd2H24C36N6O12
_chemical_formula_sum              "Nd2 H24 C36 N6 O12"
_cell_length_a       7.7121074010017985
_cell_length_b       10.929603728980744
_cell_length_c       11.318777117355605
_cell_angle_alpha    117.95304046774574
_cell_angle_beta     89.99994560430038
_cell_angle_gamma    89.99997509609328

_space_group_name_H-M_alt    "P 1"
_space_group_IT_number       1

loop_
  _space_group_symop_operation_xyz
  'x, y, z'

loop_
  _atom_site_type_symbol
  _atom_site_label
  _atom_site_symmetry_multiplicity
  _atom_site_fract_x
  _atom_site_fract_y
  _atom_site_fract_z
  _atom_site_occupancy
  Nd  Nd1       1.0  0.7963406796487789  0.9845763775217763  0.5310318264859503  1.0000
  Nd  Nd2       1.0  0.2963414868241471  0.015423795199303904  0.4689687281635671  1.0000
  H   H1        1.0  0.04747302517991869  0.4419920253834704  0.3503869067104617  1.0000
  H   H2        1.0  0.5474684070944278  0.5580083452245932  0.6496121269345708  1.0000
  H   H3        1.0  0.7645235235652945  0.3144084132168175  0.3199312575997126  1.0000
  H   H4        1.0  0.2645184503538117  0.6855917839285796  0.6800684446149107  1.0000
  H   H5        1.0  0.4856035880242685  0.45136761333160563  0.354472923808551  1.0000
  H   H6        1.0  0.9855976846041015  0.5486334417195595  0.6455270267802505  1.0000
  H   H7        1.0  0.5031771310354854  0.7006182197624116  0.4246535743783469  1.0000
  H   H8        1.0  0.0031750266772973992  0.299382185307124  0.5753446192144125  1.0000
  H   H9        1.0  0.49897167068878184  0.8454950564690834  0.9016254662558935  1.0000
  H   H10       1.0  0.9989706714406734  0.15450288163543752  0.09837395160705138  1.0000
  H   H11       1.0  0.7721596506439495  0.8083909066467997  0.004311849581881778  1.0000
  H   H12       1.0  0.2721583034787115  0.1916103224990097  0.995690080916873  1.0000
  H   H13       1.0  0.059893238145654885  0.8343502904135964  0.9114557620459751  1.0000
  H   H14       1.0  0.5598935431393243  0.16565214295557953  0.08854507893801872  1.0000
  H   H15       1.0  0.06255280654837489  0.89753412438931  0.7269843766445663  1.0000
  H   H16       1.0  0.5625528840679762  0.10246416368395472  0.27301459040041465  1.0000
  H   H17       1.0  0.04532469947776009  0.39722114060160163  0.02815140529195057  1.0000
  H   H18       1.0  0.5453299667674542  0.6027792364450661  0.9718511665627574  1.0000
  H   H19       1.0  0.7604196604132554  0.49729833277788776  0.1428958527971602  1.0000
  H   H20       1.0  0.2604261102233493  0.5027008318758703  0.8571033856605865  1.0000
  H   H21       1.0  0.4841580690035555  0.38794168050857547  0.01801069359747491  1.0000
  H   H22       1.0  0.9841620196857119  0.6120573017666615  0.9819865547306748  1.0000
  H   H23       1.0  0.5032275878050285  0.19809909468422404  0.787148100498861  1.0000
  H   H24       1.0  0.0032295995666657995  0.8019002733755374  0.2128487411964529  1.0000
  C   C1        1.0  0.9216762632341825  0.6357014737822339  0.40499848641960057  1.0000
  C   C2        1.0  0.42167279615053127  0.3642985957370898  0.5950001757789565  1.0000
  C   C3        1.0  0.9229289081509292  0.49424115472074  0.36632564621749714  1.0000
  C   C4        1.0  0.42292400640476285  0.505758914969775  0.6336738987588788  1.0000
  C   C5        1.0  0.7657980895253117  0.42475472336041525  0.34925394198225485  1.0000
  C   C6        1.0  0.2657931227508001  0.5752465073699256  0.6507453427714083  1.0000
  C   C7        1.0  0.6127257559609232  0.4996460655085147  0.3687960826064938  1.0000
  C   C8        1.0  0.11272215757173137  0.5003552895635509  0.6312042381114296  1.0000
  C   C9        1.0  0.6220901826313393  0.6410793226210462  0.4081378660930214  1.0000
  C   C10       1.0  0.12208801984689187  0.35892202491571373  0.591862445328772  1.0000
  C   C11       1.0  0.08935379425052047  0.7133536008206534  0.42278215071130626  1.0000
  C   C12       1.0  0.589350734983121  0.28664777305654365  0.5772181932060931  1.0000
  C   C13       1.0  0.6394560557655565  0.8900562202266897  0.7629749585978445  1.0000
  C   C14       1.0  0.1394571401556277  0.10994304293645034  0.2370252839553615  1.0000
  C   C15       1.0  0.6271753020367254  0.8547758265471191  0.8663296745353791  1.0000
  C   C16       1.0  0.12717521728318806  0.1452244822867499  0.13367104803346308  1.0000
  C   C17       1.0  0.7787071307728438  0.8341768987984963  0.9221540113389038  1.0000
  C   C18       1.0  0.2787058173312218  0.16582432507912165  0.07784791266060148  1.0000
  C   C19       1.0  0.9376779780186977  0.8488157503754582  0.8713867223462516  1.0000
  C   C20       1.0  0.43767789703205995  0.1511853455918697  0.12861504385318062  1.0000
  C   C21       1.0  0.9399757279370106  0.8839383027353309  0.7676567989355122  1.0000
  C   C22       1.0  0.4399755188023206  0.11606175441573192  0.23234361313785  1.0000
  C   C23       1.0  0.4774186698751919  0.9158183649714574  0.7023475942654615  1.0000
  C   C24       1.0  0.9774174260981423  0.08418062744247833  0.2976531968371035  1.0000
  C   C25       1.0  0.9207865480477151  0.2502826958775728  0.8477512906809963  1.0000
  C   C26       1.0  0.42078867711911266  0.7497142705238322  0.15224862098514091  1.0000
  C   C27       1.0  0.9214788404541707  0.35674781299066183  0.9793031427878917  1.0000
  C   C28       1.0  0.42148381352215836  0.6432522590411267  0.020697287643486093  1.0000
  C   C29       1.0  0.7638364631788477  0.4102046178288675  0.04266995139285971  1.0000
  C   C30       1.0  0.26384142185465714  0.5897966121188175  0.9573275672620056  1.0000
  C   C31       1.0  0.6111784476848781  0.3512859083871334  0.9734949623598794  1.0000
  C   C32       1.0  0.11118211258198579  0.6487123370244277  0.02650130435441166  1.0000
  C   C33       1.0  0.621571322161273  0.24386436723131072  0.8427745161684684  1.0000
  C   C34       1.0  0.12157473701790879  0.756133870996628  0.15722262425017428  1.0000
  C   C35       1.0  0.08850827022245507  0.19623904259601235  0.7731512124023255  1.0000
  C   C36       1.0  0.5885093011761383  0.8037602639173331  0.22685084876432882  1.0000
  N   N1        1.0  0.7733095162040938  0.7089008490683782  0.42726797680929  1.0000
  N   N2        1.0  0.2733061237641223  0.29110037561754615  0.5727313004875185  1.0000
  N   N3        1.0  0.7938717261266673  0.9044406800021605  0.71472998475425  1.0000
  N   N4        1.0  0.29387145311299173  0.09555845891689072  0.2852701045217856  1.0000
  N   N5        1.0  0.773059157744427  0.19462987569925624  0.7799559374603858  1.0000
  N   N6        1.0  0.2730611571729895  0.8053682429973891  0.22004282062840735  1.0000
  O   O1        1.0  0.07158685683206298  0.8459415803851231  0.4646030837524933  1.0000
  O   O2        1.0  0.5715852315580462  0.15405980896548505  0.5353981618207371  1.0000
  O   O3        1.0  0.22951785430838356  0.6503799162402334  0.39687323696238513  1.0000
  O   O4        1.0  0.7295160178116049  0.34962134721585175  0.6031287358642032  1.0000
  O   O5        1.0  0.5031522893985922  0.9514439151358336  0.6086498001120051  1.0000
  O   O6        1.0  0.0031531884650916994  0.04855545769897421  0.39135057774069537  1.0000
  O   O7        1.0  0.3336174823936203  0.9027391036537936  0.7442749600510011  1.0000
  O   O8        1.0  0.8336162910674927  0.09725896749670682  0.255724621947806  1.0000
  O   O9        1.0  0.22907809404246393  0.24402235436960504  0.829937349498195  1.0000
  O   O10       1.0  0.7290818275923456  0.7559768413955513  0.17006634017413816  1.0000
  O   O11       1.0  0.07120183273502077  0.10203874564034983  0.6494951611372457  1.0000
  O   O12       1.0  0.5712013348294535  0.8979595378310565  0.3505055653637683  1.0000
