data_image0
_chemical_formula_structural       Na4H28C16O28
_chemical_formula_sum              "Na4 H28 C16 O28"
_cell_length_a       7.1886648620118665
_cell_length_b       8.62602283202362
_cell_length_c       10.66170303901106
_cell_angle_alpha    90.00016671728311
_cell_angle_beta     90.00001071918096
_cell_angle_gamma    89.99979182464135

_space_group_name_H-M_alt    "P 1"
_space_group_IT_number       1

loop_
  _space_group_symop_operation_xyz
  'x, y, z'

loop_
  _atom_site_type_symbol
  _atom_site_label
  _atom_site_symmetry_multiplicity
  _atom_site_fract_x
  _atom_site_fract_y
  _atom_site_fract_z
  _atom_site_occupancy
  Na  Na1       1.0  0.9121326651662399  0.2898655398581837  0.5654851057775188  1.0000
  Na  Na2       1.0  0.5878670112619558  0.7101341433770256  0.06548385357991289  1.0000
  Na  Na3       1.0  0.08786730091997437  0.7898637998248146  0.9345139378444568  1.0000
  Na  Na4       1.0  0.4121345495027171  0.21013522874105206  0.4345162230122739  1.0000
  H   H1        1.0  0.9386020828948886  0.9417881896933907  0.565972673202637  1.0000
  H   H2        1.0  0.5613989847557191  0.05821033599110589  0.06597267800777468  1.0000
  H   H3        1.0  0.0613986111801808  0.4417868562933903  0.9340257945316349  1.0000
  H   H4        1.0  0.4386004569458493  0.5582110112546631  0.4340251606598854  1.0000
  H   H5        1.0  0.7856987495242223  0.9871892294978649  0.4622800907133423  1.0000
  H   H6        1.0  0.7143024325771421  0.012808385412860399  0.9622797207832432  1.0000
  H   H7        1.0  0.21430299307509418  0.4871883444015879  0.037717832319579286  1.0000
  H   H8        1.0  0.28569735167894805  0.5128104339164707  0.53771772464939  1.0000
  H   H9        1.0  0.7593262761587026  0.5592557985801108  0.8610986031939017  1.0000
  H   H10       1.0  0.7406734856371456  0.44074493475910953  0.3610995413092225  1.0000
  H   H11       1.0  0.24067608752953615  0.05925751171024266  0.6389008288006507  1.0000
  H   H12       1.0  0.2593270685944162  0.9407451038824134  0.1389010848524492  1.0000
  H   H13       1.0  0.588432325068119  0.4990447371117169  0.585641589956424  1.0000
  H   H14       1.0  0.9115687482599737  0.5009550177252533  0.08564175430082337  1.0000
  H   H15       1.0  0.41156951017925536  0.9990442649850306  0.9143570142275336  1.0000
  H   H16       1.0  0.08843233441990608  0.0009558512597749001  0.4143587617308383  1.0000
  H   H17       1.0  0.27033230227668525  0.7880835385896174  0.6607846945658691  1.0000
  H   H18       1.0  0.22966946909587443  0.21191567689776036  0.16078696189931915  1.0000
  H   H19       1.0  0.7296634983447773  0.2880844843029989  0.8392143448123546  1.0000
  H   H20       1.0  0.7703334749758851  0.7119150120165612  0.33921405687290457  1.0000
  H   H21       1.0  0.7509916503417884  0.8601950062094443  0.7545343724994138  1.0000
  H   H22       1.0  0.7490094717592084  0.1398053485810635  0.25453459445188287  1.0000
  H   H23       1.0  0.24900244445989728  0.360195913408944  0.7454667146010576  1.0000
  H   H24       1.0  0.25099517812740396  0.6398047621747834  0.24546531453731282  1.0000
  H   H25       1.0  0.7277887187971144  0.7257851188417631  0.5548109592023209  1.0000
  H   H26       1.0  0.7722123456302866  0.27421336719422834  0.05481150427337407  1.0000
  H   H27       1.0  0.2722087448178526  0.225784346761813  0.9451888696464931  1.0000
  H   H28       1.0  0.22779171760815584  0.7742147197204544  0.44518778709059575  1.0000
  C   C1        1.0  0.4929676523755333  0.7361393938911999  0.760394436069326  1.0000
  C   C2        1.0  0.007034147755049998  0.2638636532892134  0.26039867613132367  1.0000
  C   C3        1.0  0.5070269838794913  0.23614297770988907  0.7396063553963328  1.0000
  C   C4        1.0  0.9929671785081806  0.7638608019071924  0.23960434230880873  1.0000
  C   C5        1.0  0.7056385708935975  0.7383927085953629  0.755066972530585  1.0000
  C   C6        1.0  0.79436116028009  0.26160880737585757  0.25506936611285613  1.0000
  C   C7        1.0  0.2943560555298462  0.2383946360075696  0.7449319484300714  1.0000
  C   C8        1.0  0.20564156690080887  0.7616071969631689  0.24493270901884043  1.0000
  C   C9        1.0  0.990502471065703  0.6594947482556676  0.6316260162623166  1.0000
  C   C10       1.0  0.5094986155469171  0.340502851365862  0.13162668752275408  1.0000
  C   C11       1.0  0.0094938908059419  0.1594933386219636  0.8683736546084971  1.0000
  C   C12       1.0  0.49050515835848063  0.8405054549940584  0.3683727618177527  1.0000
  C   C13       1.0  0.7769301326580019  0.6575045897889564  0.6356450586991682  1.0000
  C   C14       1.0  0.7230709551128526  0.3424941833938391  0.13564669848116037  1.0000
  C   C15       1.0  0.22306623789636854  0.15750483847987337  0.8643546074308542  1.0000
  C   C16       1.0  0.27693141902360446  0.8424962594287418  0.36435463147711283  1.0000
  O   O1        1.0  0.7835808851381996  0.6707509531825266  0.8653841691969645  1.0000
  O   O2        1.0  0.7164174868139026  0.3292509546663068  0.36538577661030297  1.0000
  O   O3        1.0  0.21641681867841805  0.17075156517192613  0.6346145905646381  1.0000
  O   O4        1.0  0.2835807718947833  0.8292498759216399  0.13461552178390687  1.0000
  O   O5        1.0  0.0773665537892043  0.5359292972290743  0.6111534746852598  1.0000
  O   O6        1.0  0.42263381217894386  0.46406626410107077  0.11115167659066567  1.0000
  O   O7        1.0  0.9226331295583208  0.035928676319883786  0.8888459017167633  1.0000
  O   O8        1.0  0.5773680313292074  0.9640721555820874  0.3888461913457988  1.0000
  O   O9        1.0  0.407000488374237  0.6868330705014714  0.8522446137174455  1.0000
  O   O10       1.0  0.09299577396501488  0.31317030296123954  0.35224710581041296  1.0000
  O   O11       1.0  0.5929943630763289  0.18684070515523385  0.6477532464413327  1.0000
  O   O12       1.0  0.9070039460237779  0.8131627481816465  0.14775884393651484  1.0000
  O   O13       1.0  0.9052821809584228  0.0201722024975837  0.5018420434899368  1.0000
  O   O14       1.0  0.5947174770908744  0.9798272546595043  0.0018404968930809996  1.0000
  O   O15       1.0  0.09471896224404469  0.5201706678191511  0.9981563574237453  1.0000
  O   O16       1.0  0.40528151547823643  0.4798285868219309  0.49815740859793317  1.0000
  O   O17       1.0  0.4167336079838222  0.7928340523563902  0.6575225660772543  1.0000
  O   O18       1.0  0.08326816244429838  0.20716631082743928  0.15752574231389355  1.0000
  O   O19       1.0  0.5832635629788212  0.29283661174100206  0.8424774225604208  1.0000
  O   O20       1.0  0.9167348023557265  0.7071663740195787  0.3424790168867844  1.0000
  O   O21       1.0  0.7135612610083795  0.5028447533003799  0.6286356714185286  1.0000
  O   O22       1.0  0.7864398247380818  0.4971539949804936  0.12863581156605616  1.0000
  O   O23       1.0  0.28643856673988916  0.0028448352194984992  0.8713626882038026  1.0000
  O   O24       1.0  0.2135618743669241  0.9971539690162246  0.3713640110879337  1.0000
  O   O25       1.0  0.06519266530055029  0.793707509366584  0.6493156018307926  1.0000
  O   O26       1.0  0.43480910276249307  0.20629050609664284  0.14931788058090226  1.0000
  O   O27       1.0  0.9348031107804429  0.2937055567951461  0.8506825130100494  1.0000
  O   O28       1.0  0.5651952569332864  0.7062928209758395  0.3506812489166505  1.0000
