data_image0
_chemical_formula_structural       Cd4H48C76N4O16
_chemical_formula_sum              "Cd4 H48 C76 N4 O16"
_cell_length_a       8.952408001
_cell_length_b       9.5642828482616
_cell_length_c       20.6116
_cell_angle_alpha    90.0
_cell_angle_beta     90.0
_cell_angle_gamma    103.6917820114244

_space_group_name_H-M_alt    "P 1"
_space_group_IT_number       1

loop_
  _space_group_symop_operation_xyz
  'x, y, z'

loop_
  _atom_site_type_symbol
  _atom_site_label
  _atom_site_symmetry_multiplicity
  _atom_site_fract_x
  _atom_site_fract_y
  _atom_site_fract_z
  _atom_site_occupancy
  Cd  Cd1       1.0  0.8848630402942419  0.0894646664192109  0.5020925110132168  1.0000
  Cd  Cd2       1.0  0.115137495145845  0.4105334295174288  0.0020925110132168  1.0000
  Cd  Cd3       1.0  0.11513889581358681  0.9105358300028855  0.4979065186593984  1.0000
  Cd  Cd4       1.0  0.8848627796843188  0.5894649146302555  0.9979070038230871  1.0000
  H   H1        1.0  0.5498504815807337  0.1083885391440731  0.5518145122164241  1.0000
  H   H2        1.0  0.4501539491728296  0.3916117090669715  0.0518135418890324  1.0000
  H   H3        1.0  0.45015091026733245  0.8916098050036112  0.4481869432746635  1.0000
  H   H4        1.0  0.5498493760827898  0.6083898634923273  0.9481850026198869  1.0000
  H   H5        1.0  0.3826300576813608  0.2774120290235871  0.5512066021075483  1.0000
  H   H6        1.0  0.617374100942321  0.22258714305025512  0.051205146616467793  1.0000
  H   H7        1.0  0.6173713341667053  0.7225863151240972  0.4487933978924517  1.0000
  H   H8        1.0  0.38263034133120033  0.7774144295090437  0.9487924275650599  1.0000
  H   H9        1.0  0.7496772502139778  0.5826066922318702  0.4525611791418455  1.0000
  H   H10       1.0  0.25032415315404677  0.9173929762640611  0.9525611791418456  1.0000
  H   H11       1.0  0.2503244137639697  0.4173927280530165  0.5474393060218503  1.0000
  H   H12       1.0  0.7496763938059985  0.0826064440208256  0.04744027634924208  1.0000
  H   H13       1.0  0.9000416471603289  0.3977155592856505  0.4567753109899257  1.0000
  H   H14       1.0  0.09996027742754879  0.1022836127881988  0.9567757961536216  1.0000
  H   H15       1.0  0.0999592004279748  0.6022806325876289  0.5432256593374589  1.0000
  H   H16       1.0  0.9000402695324966  0.897715807496695  0.043225659337458894  1.0000
  H   H17       1.0  0.4524498835100346  0.1768028857241575  0.3637146073085091  1.0000
  H   H18       1.0  0.5475483893958784  0.3231995147612992  0.8637160627995896  1.0000
  H   H19       1.0  0.5475481287859552  0.8231997629723438  0.6362844223641062  1.0000
  H   H20       1.0  0.45245131267615335  0.6768009816607972  0.1362839372004103  1.0000
  H   H21       1.0  0.5428394141405732  0.5687159132081234  0.2516854586737551  1.0000
  H   H22       1.0  0.45715918243351444  0.931285907562213  0.7516864290011469  1.0000
  H   H23       1.0  0.4571608321912208  0.43128673548837076  0.7483150264899407  1.0000
  H   H24       1.0  0.5428385862309639  0.0687113604482619  0.24831502648994064  1.0000
  H   H25       1.0  0.3000636765242604  0.6186142430634902  0.2911423664344355  1.0000
  H   H26       1.0  0.6999360370677294  0.881387577706846  0.7911428515981314  1.0000
  H   H27       1.0  0.6999359970494012  0.3813905579074159  0.7088571484018686  1.0000
  H   H28       1.0  0.30006284861465105  0.1186096903036287  0.2088571484018686  1.0000
  H   H29       1.0  0.13187488219796248  0.4460082924332767  0.36760756079100787  1.0000
  H   H30       1.0  0.8681245077258524  0.05399410805217289  0.8676070756273191  1.0000
  H   H31       1.0  0.8681234022279085  0.5539954324004199  0.6323929243726809  1.0000
  H   H32       1.0  0.1318757671043116  0.9460042360955114  0.1323924392089921  1.0000
  H   H33       1.0  0.6301523024578869  0.4242810822930991  0.18256127617458157  1.0000
  H   H34       1.0  0.36984820448383  0.0757213181923504  0.6825617613382775  1.0000
  H   H35       1.0  0.36984655472611655  0.5757204902661925  0.8174387238254184  1.0000
  H   H36       1.0  0.6301501084404179  0.9242781020925364  0.3174382386617225  1.0000
  H   H37       1.0  0.7160586246065321  0.2308271256180277  0.36370732985309207  1.0000
  H   H38       1.0  0.2839393761694993  0.2691741987302194  0.8637073298530922  1.0000
  H   H39       1.0  0.2839391155595763  0.769174446941264  0.6362931553106036  1.0000
  H   H40       1.0  0.7160605980324135  0.7308273738290723  0.13629218498321188  1.0000
  H   H41       1.0  0.9425194345066786  0.1677751707233668  0.31576782006248993  1.0000
  H   H42       1.0  0.057477177121576496  0.3322250774876849  0.8157673348987942  1.0000
  H   H43       1.0  0.057476916511646416  0.8322253256987295  0.6842326651012058  1.0000
  H   H44       1.0  0.942522524950455  0.6677754189344114  0.18423217993751  1.0000
  H   H45       1.0  0.013258018021808492  0.229692877005462  0.1994803896834796  1.0000
  H   H46       1.0  0.9867380493466766  0.2703052189311776  0.6994799045197837  1.0000
  H   H47       1.0  0.9867377887367539  0.7703054671422223  0.8005200954802162  1.0000
  H   H48       1.0  0.013258874429780583  0.7296931252165066  0.3005200954802163  1.0000
  C   C1        1.0  0.5894960266570096  0.2148411074589234  0.5301965883289057  1.0000
  C   C2        1.0  0.4105084040965465  0.2851591407521212  0.0301956180015139  1.0000
  C   C3        1.0  0.4105062100790704  0.7851561605515585  0.4698048671621818  1.0000
  C   C4        1.0  0.5894949211590657  0.7148424318071704  0.9698034116711013  1.0000
  C   C5        1.0  0.4962138037642632  0.3117375774060207  0.5297744959149213  1.0000
  C   C6        1.0  0.5037889657116281  0.188260518530619  0.0297730404238408  1.0000
  C   C7        1.0  0.5037859268061383  0.6882586144672587  0.47022598924877457  1.0000
  C   C8        1.0  0.496215204432005  0.8117399778914702  0.9702250189213828  1.0000
  C   C9        1.0  0.5489165778761986  0.4476547823547463  0.5012051466164705  1.0000
  C   C10       1.0  0.45108646372957395  0.0523443897190958  0.0012046614527748  1.0000
  C   C11       1.0  0.45108454184198626  0.5523424856557284  0.49879485338352936  1.0000
  C   C12       1.0  0.5489165893961568  0.9476561067030004  0.9987948533835292  1.0000
  C   C13       1.0  0.698061352815408  0.4795450322454897  0.4750281394942633  1.0000
  C   C14       1.0  0.3019405717724695  0.0204541398283524  0.9750276543305745  1.0000
  C   C15       1.0  0.3019397669027768  0.5204522357649921  0.5249728308331213  1.0000
  C   C16       1.0  0.6980613643353664  0.9795463565937439  0.0249728308331214  1.0000
  C   C17       1.0  0.7846631684950793  0.3771774807554209  0.4773976789768852  1.0000
  C   C18       1.0  0.2153398731107004  0.1228216913184212  0.9773976789768852  1.0000
  C   C19       1.0  0.21533710633508457  0.6228208633922705  0.5226032913504994  1.0000
  C   C20       1.0  0.7846631800150375  0.877178805103668  0.022602321023114796  1.0000
  C   C21       1.0  0.1881563979920458  0.1995061523079755  0.41702681984902057  1.0000
  C   C22       1.0  0.8118536463493982  0.3004897913542521  0.9170277901764052  1.0000
  C   C23       1.0  0.8118539299992378  0.8004921918397088  0.5829717246598988  1.0000
  C   C24       1.0  0.18814662848077288  0.6995085527934322  0.08297220982359477  1.0000
  C   C25       1.0  0.2853985494792894  0.3033297174344867  0.3707761648780305  1.0000
  C   C26       1.0  0.7145999955565117  0.1966737591881653  0.8707766500417263  1.0000
  C   C27       1.0  0.7146022411122672  0.6966750835364195  0.6292243202856653  1.0000
  C   C28       1.0  0.2853969282199529  0.803324584959519  0.1292243202856653  1.0000
  C   C29       1.0  0.42232523516056386  0.2752199375399087  0.3477604843874289  1.0000
  C   C30       1.0  0.5776766609289368  0.2247835390827504  0.847760484387436  1.0000
  C   C31       1.0  0.5776764003190138  0.724783787293795  0.6522390304488752  1.0000
  C   C32       1.0  0.4223236139012272  0.7752148050649339  0.15224000077625988  1.0000
  C   C33       1.0  0.5158308694125965  0.3685124239922288  0.3039608763996995  1.0000
  C   C34       1.0  0.4841685205112185  0.1314899764932207  0.8039603912360036  1.0000
  C   C35       1.0  0.48416741501327465  0.6314913008414678  0.6960391236003005  1.0000
  C   C36       1.0  0.5158306373010433  0.8685083676544636  0.19603912360030046  1.0000
  C   C37       1.0  0.4696627953687198  0.4928245653376067  0.2844039278852719  1.0000
  C   C38       1.0  0.530339372850662  0.007179987422254899  0.7844044130489606  1.0000
  C   C39       1.0  0.5303354890571512  0.507179159496097  0.7155960721147281  1.0000
  C   C40       1.0  0.4696636802750689  0.9928205089998415  0.21559607211472803  1.0000
  C   C41       1.0  0.3331706463954873  0.5214379774434619  0.3071333617962679  1.0000
  C   C42       1.0  0.6668271052905794  0.978564919464084  0.8071338469599638  1.0000
  C   C43       1.0  0.6668276380303907  0.47856574739024177  0.6928666382037321  1.0000
  C   C44       1.0  0.3331709355037802  0.0214334246836003  0.19286663820373207  1.0000
  C   C45       1.0  0.239927445472901  0.4265947772807834  0.350063556443942  1.0000
  C   C46       1.0  0.760073061468816  0.0734076232046661  0.8500640416076379  1.0000
  C   C47       1.0  0.76007083895297  0.5734089475529132  0.6499359583923621  1.0000
  C   C48       1.0  0.23992860250913134  0.9265917970802207  0.149936443556058  1.0000
  C   C49       1.0  0.8677152042845364  0.3718086322467826  0.1157586019523009  1.0000
  C   C50       1.0  0.1322856032854389  0.1281905398270595  0.6157586019523007  1.0000
  C   C51       1.0  0.1322842256576138  0.6281907880381041  0.884241398047699  1.0000
  C   C52       1.0  0.8677135545268229  0.8718078043206248  0.384241398047699  1.0000
  C   C53       1.0  0.825195849578229  0.3309885958407719  0.18472219526868364  1.0000
  C   C54       1.0  0.17480438523360683  0.1690127285074752  0.6847221952686835  1.0000
  C   C55       1.0  0.17480273547590028  0.6690119005813173  0.8152778047313163  1.0000
  C   C56       1.0  0.8251939276906343  0.8309866917774116  0.3152778047313162  1.0000
  C   C57       1.0  0.6981291380894561  0.3690020664198599  0.21258805721050317  1.0000
  C   C58       1.0  0.3018702518343588  0.1310003340655967  0.7125880572105032  1.0000
  C   C59       1.0  0.3018699912244358  0.6310005822766414  0.7874124279531926  1.0000
  C   C60       1.0  0.6981291781077844  0.86899908621929  0.2874119427894968  1.0000
  C   C61       1.0  0.6559451640174672  0.3338769480951669  0.2770716489743634  1.0000
  C   C62       1.0  0.3440531088884526  0.1661254523902826  0.7770721341380592  1.0000
  C   C63       1.0  0.3440539652964247  0.6661257006013273  0.7229278658619406  1.0000
  C   C64       1.0  0.6559452040357954  0.8338739678946041  0.2229278658619407  1.0000
  C   C65       1.0  0.7462893383544298  0.2605188272018637  0.31352199732189934  1.0000
  C   C66       1.0  0.2537078175335807  0.23948357328358583  0.8135219973218993  1.0000
  C   C67       1.0  0.2537075569236578  0.7394838214946304  0.6864784878417964  1.0000
  C   C68       1.0  0.7462921566683322  0.7605179992757058  0.18647751751441177  1.0000
  C   C69       1.0  0.8743794354475369  0.2236987927815477  0.2861869044615658  1.0000
  C   C70       1.0  0.1256191380866269  0.2763003792922945  0.7861864192978699  1.0000
  C   C71       1.0  0.12561776045880177  0.7763006275033391  0.7138140658658259  1.0000
  C   C72       1.0  0.8743805639853974  0.7237001171297948  0.21381309553843408  1.0000
  C   C73       1.0  0.9139418931521632  0.2578349410161493  0.2217411554658568  1.0000
  C   C74       1.0  0.0860558354939869  0.2421653071948953  0.7217406703021607  1.0000
  C   C75       1.0  0.08605557488406389  0.7421655554059399  0.7782593296978391  1.0000
  C   C76       1.0  0.9139435944481563  0.7578341130899915  0.2782588445341431  1.0000
  N   N1        1.0  0.731318688363686  0.24619221261067278  0.5041399018028655  1.0000
  N   N2        1.0  0.2686843532420866  0.2538069594631693  0.0041394166391768  1.0000
  N   N3        1.0  0.2686824313544989  0.753805055399809  0.4958605833608231  1.0000
  N   N4        1.0  0.7313186998836442  0.7461935369589199  0.9958591278697426  1.0000
  O   O1        1.0  0.0635532958192755  0.2284047407727812  0.43633196840614363  1.0000
  O   O2        1.0  0.9364452777148883  0.271594431301061  0.9363334238972242  1.0000
  O   O3        1.0  0.9364455613647351  0.7715968317865176  0.5636670612664716  1.0000
  O   O4        1.0  0.0635536079674921  0.7284028367094209  0.0636670612664716  1.0000
  O   O5        1.0  0.761733028017602  0.9096587781819706  0.5665489336101999  1.0000
  O   O6        1.0  0.2382647521668346  0.5903398141767653  0.0665494187738958  1.0000
  O   O7        1.0  0.2382686074619826  0.090344946651733  0.4334500960624083  1.0000
  O   O8        1.0  0.7617357947932106  0.4096596061081286  0.9334496108987196  1.0000
  O   O9        1.0  0.7973248477442425  0.4575724628228953  0.088247879834654  1.0000
  O   O10       1.0  0.20267595982572567  0.0424267092509467  0.588247879834654  1.0000
  O   O11       1.0  0.20267180390233364  0.5424248051875864  0.9117516350016501  1.0000
  O   O12       1.0  0.7973223530985151  0.95757271103394  0.411752120165346  1.0000
  O   O13       1.0  0.9705961212800176  0.3180383607329489  0.08983630576956607  1.0000
  O   O14       1.0  0.029402452254153395  0.1819608113408933  0.5898358206058701  1.0000
  O   O15       1.0  0.029403580792013877  0.6819621356891403  0.9101641793941296  1.0000
  O   O16       1.0  0.9705964049298572  0.8180407612184055  0.4101636942304339  1.0000
