data_image0
_chemical_formula_structural       Hg2H22C24N6Cl4
_chemical_formula_sum              "Hg2 H22 C24 N6 Cl4"
_cell_length_a       7.587191946747804
_cell_length_b       9.204835411496514
_cell_length_c       10.482302968622669
_cell_angle_alpha    111.32902858971546
_cell_angle_beta     97.84338900264774
_cell_angle_gamma    90.11915506529682

_space_group_name_H-M_alt    "P 1"
_space_group_IT_number       1

loop_
  _space_group_symop_operation_xyz
  'x, y, z'

loop_
  _atom_site_type_symbol
  _atom_site_label
  _atom_site_symmetry_multiplicity
  _atom_site_fract_x
  _atom_site_fract_y
  _atom_site_fract_z
  _atom_site_occupancy
  Hg  Hg1       1.0  0.24286390616791204  0.9469393574644015  0.49870127156415117  1.0000
  Hg  Hg2       1.0  0.7571438781553185  0.053061587157529275  0.5013018492438022  1.0000
  H   H1        1.0  0.9885074403613742  0.7227095205172416  0.20976632776925888  1.0000
  H   H2        1.0  0.011491023317240907  0.2772914976814889  0.7902330549672598  1.0000
  H   H3        1.0  0.8842181752403704  0.43588089563247906  0.09950556130325335  1.0000
  H   H4        1.0  0.11579454605098502  0.5641152953331953  0.9004917663775558  1.0000
  H   H5        1.0  0.9933507137248584  0.2569068465000157  0.22436615504028623  1.0000
  H   H6        1.0  0.006665534768636388  0.7430834476121713  0.7756267909175277  1.0000
  H   H7        1.0  0.2031774512715785  0.36558452605349584  0.4455747106736823  1.0000
  H   H8        1.0  0.7968329550472504  0.6344163453696793  0.554421007970589  1.0000
  H   H9        1.0  0.5335358984891627  0.896748724721732  0.7215901107846747  1.0000
  H   H10       1.0  0.4664718487605128  0.10325217277275557  0.27840535953443174  1.0000
  H   H11       1.0  0.6969767303757805  0.12483285133860277  0.8830120108170049  1.0000
  H   H12       1.0  0.30302256660620935  0.8751787143384107  0.11699650328555583  1.0000
  H   H13       1.0  0.8964594277782254  0.0750485365515132  0.9636177211385473  1.0000
  H   H14       1.0  0.10353395237201819  0.9249549405104885  0.03639339479187236  1.0000
  H   H15       1.0  0.7203521756450468  0.14736009425850227  0.06121918518262957  1.0000
  H   H16       1.0  0.27964998351681203  0.8526362952473006  0.9387924501751782  1.0000
  H   H17       1.0  0.7902612828540041  0.887487798548143  0.1108796678933429  1.0000
  H   H18       1.0  0.20972371111344046  0.11251101986858457  0.8891186754174355  1.0000
  H   H19       1.0  0.6702539444951015  0.6161513512535634  0.04660828170482741  1.0000
  H   H20       1.0  0.3297196762702939  0.3838546632636977  0.9534026822088676  1.0000
  H   H21       1.0  0.4811505742835108  0.48044259975154796  0.8138684098964006  1.0000
  H   H22       1.0  0.5188386906896483  0.5195597012752342  0.18613430600191794  1.0000
  C   C1        1.0  0.0327025814729183  0.6371111428938433  0.25517212769769054  1.0000
  C   C2        1.0  0.9672959809738871  0.3628910551014924  0.7448295447165307  1.0000
  C   C3        1.0  0.9754662834138159  0.4796624048531368  0.19668409650387272  1.0000
  C   C4        1.0  0.024530144000195302  0.5203292940451474  0.8033140582483611  1.0000
  C   C5        1.0  0.0361541450389353  0.380318192879997  0.26519891012543434  1.0000
  C   C6        1.0  0.9638559218174694  0.6196780300479146  0.7347991255413078  1.0000
  C   C7        1.0  0.15319554159083282  0.4391103379418622  0.3887829166811371  1.0000
  C   C8        1.0  0.8468159967261926  0.5608881608524426  0.6112083467703258  1.0000
  C   C9        1.0  0.20639385081208422  0.5978745312075873  0.4401833439028948  1.0000
  C   C10       1.0  0.7936140661688071  0.4021286905345319  0.5598109679049728  1.0000
  C   C11       1.0  0.49386878508128257  0.6824136645521289  0.7574744949751349  1.0000
  C   C12       1.0  0.506130192425175  0.3175943322804215  0.2425223685387933  1.0000
  C   C13       1.0  0.5649903311552008  0.8359396527696886  0.792984713380541  1.0000
  C   C14       1.0  0.4350109381528142  0.16406363415070757  0.2070089776143931  1.0000
  C   C15       1.0  0.6741206536903305  0.909867271713338  0.9189272158640164  1.0000
  C   C16       1.0  0.3258799320586263  0.09012671232559909  0.08107015286474709  1.0000
  C   C17       1.0  0.7507593712298474  0.07361555839909069  0.958677168040701  1.0000
  C   C18       1.0  0.24923832771816737  0.9263925162693453  0.041330090732799356  1.0000
  C   C19       1.0  0.7091878772489792  0.8286693741743815  0.009958862927334135  1.0000
  C   C20       1.0  0.2907928966888846  0.17132602643250994  0.9900456272180591  1.0000
  C   C21       1.0  0.6412741652668501  0.6755825669525491  0.9737989883160765  1.0000
  C   C22       1.0  0.3587066981708134  0.32441400166909773  0.026205878884809422  1.0000
  C   C23       1.0  0.5349308014842862  0.6005260128826675  0.8467475393212993  1.0000
  C   C24       1.0  0.4650625276898238  0.3994773993791013  0.15325305718695859  1.0000
  N   N1        1.0  0.14574667280654546  0.6926792130561309  0.3738294217752197  1.0000
  N   N2        1.0  0.854254332636259  0.3073205757109603  0.6261640943643484  1.0000
  N   N3        1.0  0.3227761547461157  0.6794360802212152  0.5627977274745462  1.0000
  N   N4        1.0  0.6772295377021892  0.32055547440910453  0.43719268961584845  1.0000
  N   N5        1.0  0.37841883970475726  0.6002548324373221  0.6351070183409462  1.0000
  N   N6        1.0  0.6215957249490174  0.3997483241265129  0.364887914279862  1.0000
  Cl  Cl1       1.0  0.018995941574367195  0.041686185702985774  0.3315646117713982  1.0000
  Cl  Cl2       1.0  0.9810090046801108  0.9583124489607606  0.6684375066003978  1.0000
  Cl  Cl3       1.0  0.4348345287869932  0.16869179576418958  0.6542062575148008  1.0000
  Cl  Cl4       1.0  0.565166683460575  0.8313103643779696  0.3457937506023825  1.0000
