data_image0
_chemical_formula_structural       Cu2H32C16Br4N16O4
_chemical_formula_sum              "Cu2 H32 C16 Br4 N16 O4"
_cell_length_a       8.311789653000533
_cell_length_b       9.015840873194694
_cell_length_c       10.999526230186085
_cell_angle_alpha    106.63030456936214
_cell_angle_beta     89.99996067142301
_cell_angle_gamma    90.00000392602587

_space_group_name_H-M_alt    "P 1"
_space_group_IT_number       1

loop_
  _space_group_symop_operation_xyz
  'x, y, z'

loop_
  _atom_site_type_symbol
  _atom_site_label
  _atom_site_symmetry_multiplicity
  _atom_site_fract_x
  _atom_site_fract_y
  _atom_site_fract_z
  _atom_site_occupancy
  Cu  Cu1       1.0  1.2031095196e-06  1.5418265800000008e-08  1.8218363351000001e-06  1.0000
  Cu  Cu2       1.0  0.5000006443254037  0.4999992320035884  6.681410837918697e-07  1.0000
  H   H1        1.0  0.6284506508079488  0.8404039622854781  0.18614273527855832  1.0000
  H   H2        1.0  0.8715450868260107  0.34040469199165807  0.18614367992563524  1.0000
  H   H3        1.0  0.3715477862314955  0.15959726497242593  0.8138572072640498  1.0000
  H   H4        1.0  0.12845335021390983  0.6595953700038847  0.8138550862121149  1.0000
  H   H5        1.0  0.5855897902314524  0.13661823719166216  0.240513449169633  1.0000
  H   H6        1.0  0.9144046780103707  0.6366186468303922  0.2405153418737882  1.0000
  H   H7        1.0  0.4144098499187976  0.8633818248037882  0.7594853169677761  1.0000
  H   H8        1.0  0.0855949621395453  0.363380265321048  0.7594840696954464  1.0000
  H   H9        1.0  0.436441447859039  0.2034728159931376  0.1522444699863073  1.0000
  H   H10       1.0  0.0635554693402298  0.7034744184834523  0.15224500374373665  1.0000
  H   H11       1.0  0.5635593954007377  0.7965272614205785  0.8477561179874442  1.0000
  H   H12       1.0  0.9364429676985395  0.2965245090864315  0.8477562296625081  1.0000
  H   H13       1.0  0.22074655725757714  0.16208179975561882  0.2994189315262473  1.0000
  H   H14       1.0  0.2792502252150797  0.6620914816479412  0.299422113248518  1.0000
  H   H15       1.0  0.779256692222319  0.8379206004734883  0.7005830983381998  1.0000
  H   H16       1.0  0.7207482118236257  0.3379155410850955  0.7005800676450136  1.0000
  H   H17       1.0  0.3723492570094464  0.296223262201508  0.37982494355894403  1.0000
  H   H18       1.0  0.12764265314692846  0.7962260206897864  0.3798266176616352  1.0000
  H   H19       1.0  0.6276539924712595  0.7037791226092408  0.6201752644688199  1.0000
  H   H20       1.0  0.8723509714503807  0.2037752219868239  0.6201751467189993  1.0000
  H   H21       1.0  0.1543576411329042  0.08355064315743728  0.4824371933425198  1.0000
  H   H22       1.0  0.34564137765445935  0.5835498743465877  0.4824352155772544  1.0000
  H   H23       1.0  0.8456419990183619  0.9164459307600835  0.5175589544986607  1.0000
  H   H24       1.0  0.6543606687167269  0.4164455574359279  0.5175624886134074  1.0000
  H   H25       1.0  0.3157680883660987  0.013885358807605996  0.5606227321946661  1.0000
  H   H26       1.0  0.18423205778314164  0.5138834634851435  0.5606214906773063  1.0000
  H   H27       1.0  0.6842327548942819  0.9861112382373631  0.43937614840119465  1.0000
  H   H28       1.0  0.8157687854777079  0.48611196829745734  0.4393762135136967  1.0000
  H   H29       1.0  0.29801258768221567  0.21680241013941529  0.5770273660146543  1.0000
  H   H30       1.0  0.20198876473589422  0.7168016929309715  0.577029112748491  1.0000
  H   H31       1.0  0.7019846462462312  0.7831965174305535  0.42297386739193144  1.0000
  H   H32       1.0  0.7980144847443427  0.2831949195321783  0.42297158968337106  1.0000
  C   C1        1.0  0.5158960920801121  0.841328010474335  0.1367014572368603  1.0000
  C   C2        1.0  0.9841020958963042  0.341332204278899  0.1367040459331363  1.0000
  C   C3        1.0  0.48410354806966904  0.1586732167834839  0.8632984853054068  1.0000
  C   C4        1.0  0.0158951380332155  0.6586690152699147  0.863294985691475  1.0000
  C   C5        1.0  0.458072137981361  0.1286875891825758  0.21340929109642556  1.0000
  C   C6        1.0  0.041923515073357  0.6286868719842217  0.21340839513319312  1.0000
  C   C7        1.0  0.5419275021685479  0.8713113229688644  0.7865901204728019  1.0000
  C   C8        1.0  0.9580749219663574  0.371309725060925  0.7865904854633428  1.0000
  C   C9        1.0  0.3486696569465053  0.17363528568473188  0.3285467977661298  1.0000
  C   C10       1.0  0.1513246943719366  0.673639182884692  0.3285469021948231  1.0000
  C   C11       1.0  0.6513323894235299  0.8263659492820918  0.6714540556938005  1.0000
  C   C12       1.0  0.8486737426671098  0.3263620520823948  0.6714539512661233  1.0000
  C   C13       1.0  0.28176460656476376  0.09932308489143075  0.5118117272742495  1.0000
  C   C14       1.0  0.2182343874372137  0.5993234997601103  0.5118109975984382  1.0000
  C   C15       1.0  0.7182350335851524  0.9006758272600022  0.488187684294985  1.0000
  C   C16       1.0  0.7817664558235721  0.40067308957568326  0.48818697207907746  1.0000
  Br  Br1       1.0  0.08625909730090342  0.9821500799554174  0.779330048946065  1.0000
  Br  Br2       1.0  0.4137445043713797  0.48214386595211056  0.779330287851394  1.0000
  Br  Br3       1.0  0.9137441521800014  0.0178557698057276  0.2206700446229206  1.0000
  Br  Br4       1.0  0.5862551357775915  0.5178573767240664  0.2206714765275493  1.0000
  N   N1        1.0  0.4305679024410978  0.968137455654819  0.1393782340790963  1.0000
  N   N2        1.0  0.0694314556209292  0.46813937887693396  0.1393787032773943  1.0000
  N   N3        1.0  0.5694317377086833  0.03186377160299969  0.8606217084631709  1.0000
  N   N4        1.0  0.9305681845293209  0.5318606831185235  0.860620062860015  1.0000
  N   N5        1.0  0.2994349236964453  0.9254323067063691  0.06383858175699694  1.0000
  N   N6        1.0  0.20056570102491383  0.42543536852581093  0.06383924266044261  1.0000
  N   N7        1.0  0.7005647164530019  0.0745677707074393  0.9361620062170957  1.0000
  N   N8        1.0  0.7994351422343797  0.5745658741502737  0.9361625217181598  1.0000
  N   N9        1.0  0.306621116680347  0.7767253820098855  0.015589688223315116  1.0000
  N   N10       1.0  0.193378334884855  0.2767284525773803  0.015591264088698225  1.0000
  N   N11       1.0  0.693378523468688  0.22327470311310543  0.9844118106691082  1.0000
  N   N12       1.0  0.8066225083744456  0.7232727900987113  0.9844105002899113  1.0000
  N   N13       1.0  0.43991248545912504  0.721103625435731  0.058783644969423725  1.0000
  N   N14       1.0  0.06008692275742081  0.22110788053336708  0.05878647223508442  1.0000
  N   N15       1.0  0.5600883578006446  0.2788964519779923  0.9412169430043278  1.0000
  N   N16       1.0  0.9399127173923603  0.778893346724452  0.9412134703071828  1.0000
  O   O1        1.0  0.3850312224531934  0.07408796185242747  0.4041327941706427  1.0000
  O   O2        1.0  0.1149654590361848  0.5740918643084213  0.4041329190572469  1.0000
  O   O3        1.0  0.6149708239167708  0.9259144306675818  0.5958683247758001  1.0000
  O   O4        1.0  0.8850353842243948  0.4259081976869439  0.5958658470798212  1.0000
