data_image0
_chemical_formula_structural       Cd2H12C18O14
_chemical_formula_sum              "Cd2 H12 C18 O14"
_cell_length_a       6.954998513854402
_cell_length_b       7.043359812503371
_cell_length_c       10.164606847699678
_cell_angle_alpha    83.72684714196215
_cell_angle_beta     86.44248709426626
_cell_angle_gamma    69.12584474928121

_space_group_name_H-M_alt    "P 1"
_space_group_IT_number       1

loop_
  _space_group_symop_operation_xyz
  'x, y, z'

loop_
  _atom_site_type_symbol
  _atom_site_label
  _atom_site_symmetry_multiplicity
  _atom_site_fract_x
  _atom_site_fract_y
  _atom_site_fract_z
  _atom_site_occupancy
  Cd  Cd1       1.0  0.2343614200922061  0.7331749620100398  0.45618699687621256  1.0000
  Cd  Cd2       1.0  0.765638378148921  0.26682539372215797  0.5438127761877141  1.0000
  H   H1        1.0  0.13077264053190873  0.4234235657748044  0.3324659780848194  1.0000
  H   H2        1.0  0.8692266202866107  0.5765783107013007  0.6675327153509159  1.0000
  H   H3        1.0  0.3861234705819283  0.3395354660706929  0.3419818346180392  1.0000
  H   H4        1.0  0.6138757902365911  0.6604664104054124  0.658016858817689  1.0000
  H   H5        1.0  0.26874747760712125  0.5873535869923289  0.19745377001921582  1.0000
  H   H6        1.0  0.731252321740939  0.4126467633089135  0.8025450196094327  1.0000
  H   H7        1.0  0.28492790606262014  0.7882378742588828  0.8774926539499504  1.0000
  H   H8        1.0  0.7150724318149811  0.21176094986748237  0.12250623187160412  1.0000
  H   H9        1.0  0.20748570938700797  0.2610257420323023  0.1315871020177255  1.0000
  H   H10       1.0  0.7925171431352708  0.7389700474503087  0.8684158484583834  1.0000
  H   H11       1.0  0.2077241365147772  0.5029059835219556  0.9340711098961237  1.0000
  H   H12       1.0  0.7922771004188719  0.49709438448527266  0.06593155200125271  1.0000
  C   C1        1.0  0.23979491463596503  0.2834894535875705  0.7937581652849989  1.0000
  C   C2        1.0  0.7602018271101372  0.7165154792561167  0.20624039723730908  1.0000
  C   C3        1.0  0.26202837722534167  0.08040518857691129  0.7783275010760208  1.0000
  C   C4        1.0  0.7379739389812628  0.9195921162186594  0.2216733863366116  1.0000
  C   C5        1.0  0.268219971894773  0.9447229098155675  0.8901655987340008  1.0000
  C   C6        1.0  0.7317807309370679  0.05527896264270991  0.1098330332293358  1.0000
  C   C7        1.0  0.2466404243585316  0.0100232445997008  0.017319083935483103  1.0000
  C   C8        1.0  0.7533595474579045  0.9899725366257075  0.9826810391795746  1.0000
  C   C9        1.0  0.22417592465188826  0.21195232962870142  0.03227537605262401  1.0000
  C   C10       1.0  0.7758244099049135  0.7880465107905295  0.9677264600747789  1.0000
  C   C11       1.0  0.22232634571065546  0.34692530705190455  0.9211587504966801  1.0000
  C   C12       1.0  0.7776739899530796  0.6530735279363711  0.0788421021954377  1.0000
  C   C13       1.0  0.2448667995836544  0.4308097771599719  0.6762938261849953  1.0000
  C   C14       1.0  0.7551319193845174  0.5691936417838762  0.32370772136367526  1.0000
  C   C15       1.0  0.256942432924518  0.0089897074976406  0.645642027397578  1.0000
  C   C16       1.0  0.7430571917413008  0.9910152227413319  0.3543573956152173  1.0000
  C   C17       1.0  0.24680693236931012  0.8682506267443985  0.1366540134273748  1.0000
  C   C18       1.0  0.7531953871580939  0.1317466617583065  0.8633439236794163  1.0000
  O   O1        1.0  0.4061135324782015  0.3950898437490481  0.6044044023978402  1.0000
  O   O2        1.0  0.5938844576884321  0.6049074731000202  0.39559666943198124  1.0000
  O   O3        1.0  0.08748594611184764  0.5928633704448175  0.653996474913349  1.0000
  O   O4        1.0  0.9125084490302128  0.407140049690618  0.34600329018194736  1.0000
  O   O5        1.0  0.12472881929178208  0.12014092212717742  0.5630303710530384  1.0000
  O   O6        1.0  0.8752772855321849  0.8798578913588102  0.4369692523142135  1.0000
  O   O7        1.0  0.22431601946438925  0.9263218435317385  0.25011876820550333  1.0000
  O   O8        1.0  0.7756848558358271  0.0736754598507119  0.7498811972442496  1.0000
  O   O9        1.0  0.25927464396569627  0.4620627095061068  0.3221125203290711  1.0000
  O   O10       1.0  0.7407265973956924  0.5379376367773007  0.6778862078271716  1.0000
  O   O11       1.0  0.3801150931180998  0.8306674850938695  0.6226508735846182  1.0000
  O   O12       1.0  0.6198866845589562  0.1693313458765715  0.37734991763510106  1.0000
  O   O13       1.0  0.2715643495548222  0.6811243881115486  0.1107835948802816  1.0000
  O   O14       1.0  0.7284363543839516  0.31887747891577345  0.889214053647777  1.0000
