data_image0
_chemical_formula_structural       Sr4H32C8N32O16
_chemical_formula_sum              "Sr4 H32 C8 N32 O16"
_cell_length_a       5.412586776174482
_cell_length_b       14.040798107444123
_cell_length_c       21.10613243526107
_cell_angle_alpha    90.00196050555981
_cell_angle_beta     90.00054131880076
_cell_angle_gamma    89.99922590768472

_space_group_name_H-M_alt    "P 1"
_space_group_IT_number       1

loop_
  _space_group_symop_operation_xyz
  'x, y, z'

loop_
  _atom_site_type_symbol
  _atom_site_label
  _atom_site_symmetry_multiplicity
  _atom_site_fract_x
  _atom_site_fract_y
  _atom_site_fract_z
  _atom_site_occupancy
  Sr  Sr1       1.0  0.4999791949726387  0.16485464154366272  0.2500037460200417  1.0000
  Sr  Sr2       1.0  0.5000155531959508  0.335153918092857  0.7500087363219095  1.0000
  Sr  Sr3       1.0  0.5000067251407572  0.835146863545667  0.7500107245150645  1.0000
  Sr  Sr4       1.0  0.4999943847960467  0.6648532844722581  0.2500000487548988  1.0000
  H   H1        1.0  0.1259458226504577  0.0418374611553105  0.1572786122045358  1.0000
  H   H2        1.0  0.8740446242085086  0.04185090648825002  0.3427227199616071  1.0000
  H   H3        1.0  0.8740471368898567  0.4581585685281055  0.6572844508414023  1.0000
  H   H4        1.0  0.1259814729990225  0.4581602114459855  0.8427140704094286  1.0000
  H   H5        1.0  0.8740678106107183  0.9581512237424124  0.8427225919273055  1.0000
  H   H6        1.0  0.1259634661161542  0.958160569283024  0.6572836961827591  1.0000
  H   H7        1.0  0.125914764825815  0.5418329650562939  0.3427053821620022  1.0000
  H   H8        1.0  0.8740192268318694  0.5418484150356093  0.1572738676517034  1.0000
  H   H9        1.0  0.8661940709523605  0.2757254418021943  0.1594616155776691  1.0000
  H   H10       1.0  0.1337345377329626  0.275742602788668  0.3405380158513722  1.0000
  H   H11       1.0  0.1337860414767817  0.22426571300425732  0.6594679508435562  1.0000
  H   H12       1.0  0.8662545233005473  0.2242662684570647  0.8405483800677446  1.0000
  H   H13       1.0  0.1338010864974706  0.7242781994380678  0.8405348507466145  1.0000
  H   H14       1.0  0.8662402966886236  0.7242631751467955  0.659458924270524  1.0000
  H   H15       1.0  0.8662257441345034  0.7757315184809459  0.34053562236469764  1.0000
  H   H16       1.0  0.13373878674535436  0.7757409341030412  0.1594585098064414  1.0000
  H   H17       1.0  0.3176138229398759  0.1037077542882727  0.11578828581271951  1.0000
  H   H18       1.0  0.6823855248715348  0.10369722747061873  0.3842168451738317  1.0000
  H   H19       1.0  0.6823738141083809  0.3962925839501565  0.6157842054304652  1.0000
  H   H20       1.0  0.3176477429294096  0.3962917769600693  0.8842228354909026  1.0000
  H   H21       1.0  0.6824053524743192  0.8963051456708584  0.8842100758295787  1.0000
  H   H22       1.0  0.31764288878926555  0.8962836229444521  0.615779147128798  1.0000
  H   H23       1.0  0.317617648529378  0.6036989498097752  0.3842155773213349  1.0000
  H   H24       1.0  0.6823621950352817  0.6037132888903898  0.11578263298958548  1.0000
  H   H25       1.0  0.9346215051281064  0.170005329380956  0.15307322812555668  1.0000
  H   H26       1.0  0.06533670288246901  0.17001034794696326  0.3469362782122403  1.0000
  H   H27       1.0  0.0653694418769533  0.32999547283815656  0.6530799569166348  1.0000
  H   H28       1.0  0.9346803223692961  0.3299796172808342  0.8469355011458504  1.0000
  H   H29       1.0  0.065368109718726  0.830001160822512  0.8469275023888941  1.0000
  H   H30       1.0  0.9346492170588264  0.8299861713348733  0.6530649259787324  1.0000
  H   H31       1.0  0.9346423435145539  0.6700131539866803  0.3469226688314251  1.0000
  H   H32       1.0  0.06532592072214531  0.6700104921044316  0.1530675981778558  1.0000
  C   C1        1.0  0.39454603738402483  0.4149235034306643  0.2291225389121934  1.0000
  C   C2        1.0  0.6054349304047477  0.41489054151805504  0.27086656942321247  1.0000
  C   C3        1.0  0.605422024399111  0.08517729809108941  0.7291163034235524  1.0000
  C   C4        1.0  0.39464377751741614  0.0850200775756349  0.7708868610036604  1.0000
  C   C5        1.0  0.6054546631201774  0.5850801383351226  0.7708952482359878  1.0000
  C   C6        1.0  0.3946285867362818  0.5850931578631419  0.7291379512791637  1.0000
  C   C7        1.0  0.3945842162303563  0.9149538289550778  0.27088821891778286  1.0000
  C   C8        1.0  0.6053920280932203  0.9148674734365727  0.2291152895763631  1.0000
  N   N1        1.0  0.2845774047225619  0.3356478205251534  0.2070459235228839  1.0000
  N   N2        1.0  0.7154192954788742  0.3356189694864328  0.2929541449420086  1.0000
  N   N3        1.0  0.7155560705027498  0.16444402824986074  0.707038453221884  1.0000
  N   N4        1.0  0.28470277106710995  0.1643070111186731  0.7929305353851107  1.0000
  N   N5        1.0  0.715495348826707  0.6643700639993214  0.7929221152971381  1.0000
  N   N6        1.0  0.28456477777356787  0.6643469251683102  0.7070631679551269  1.0000
  N   N7        1.0  0.284616449085064  0.835667155856413  0.29294143168817044  1.0000
  N   N8        1.0  0.7154789895940467  0.8355983438362743  0.20703465948223254  1.0000
  N   N9        1.0  0.0941367198422114  0.367650602660568  0.1724272291189664  1.0000
  N   N10       1.0  0.9058385265246118  0.3676609797819523  0.3275712105270543  1.0000
  N   N11       1.0  0.9059178027468276  0.13233337389557684  0.6724203969842578  1.0000
  N   N12       1.0  0.09425903055047512  0.13235862934480022  0.8275596960786727  1.0000
  N   N13       1.0  0.90582148692954  0.6323473411613277  0.8275758702408496  1.0000
  N   N14       1.0  0.0942083622964631  0.632331265829038  0.6724200439687422  1.0000
  N   N15       1.0  0.09416234191350983  0.8676481882601196  0.3275623290987042  1.0000
  N   N16       1.0  0.9058765396408717  0.8676663774075237  0.1724197139975772  1.0000
  N   N17       1.0  0.09207137124796111  0.4616958578261574  0.1734555033007936  1.0000
  N   N18       1.0  0.9078395848794119  0.46170545983899564  0.3265304224083678  1.0000
  N   N19       1.0  0.9077910475385734  0.0382903087504971  0.6734810889397096  1.0000
  N   N20       1.0  0.0920842627109835  0.03831124890214001  0.8265470523333249  1.0000
  N   N21       1.0  0.9078720551887332  0.5382999493912595  0.8265471222216334  1.0000
  N   N22       1.0  0.09217774314034702  0.5382867857524118  0.6734570416863548  1.0000
  N   N23       1.0  0.09204522195034312  0.9616933917818218  0.3265456999146465  1.0000
  N   N24       1.0  0.9078259078267481  0.9617101984492467  0.17347452528562002  1.0000
  N   N25       1.0  0.2801257494896632  0.49422646850375435  0.2087856347527293  1.0000
  N   N26       1.0  0.7197877533539909  0.4942046280820378  0.29119109281339217  1.0000
  N   N27       1.0  0.7197251207071248  0.005851938346573599  0.7088270999326269  1.0000
  N   N28       1.0  0.28008852116495586  0.005730523667622801  0.7912092919480288  1.0000
  N   N29       1.0  0.7199229864664788  0.5057600787608223  0.7911795609022221  1.0000
  N   N30       1.0  0.2801667585509763  0.5057890426799929  0.7088195872280068  1.0000
  N   N31       1.0  0.2800705009892965  0.994248565115889  0.2912134303080549  1.0000
  N   N32       1.0  0.719756987237041  0.9941833801786117  0.2088151271304071  1.0000
  O   O1        1.0  0.7891673541519921  0.21123074296016853  0.15991088905004605  1.0000
  O   O2        1.0  0.21076353217527813  0.211246771020889  0.34009530612983246  1.0000
  O   O3        1.0  0.2108146232292185  0.28876114654547547  0.6599070447821305  1.0000
  O   O4        1.0  0.7892181212086768  0.28875851655510587  0.8400970367877606  1.0000
  O   O5        1.0  0.210814870526228  0.7887728983735088  0.840087946239322  1.0000
  O   O6        1.0  0.7892002168786265  0.7887554456881389  0.659893579407246  1.0000
  O   O7        1.0  0.7891860768088748  0.711236796806709  0.3400818407474305  1.0000
  O   O8        1.0  0.21076595102098852  0.7112458370080078  0.15990274610382477  1.0000
  O   O9        1.0  0.22577496806351155  0.10341271426766241  0.1553648275608808  1.0000
  O   O10       1.0  0.7741652683178304  0.10341822605722942  0.3446346111729426  1.0000
  O   O11       1.0  0.7742604100223007  0.39658108177825835  0.6553713856445853  1.0000
  O   O12       1.0  0.22582210605762046  0.39658301845895483  0.844649875924489  1.0000
  O   O13       1.0  0.7741980188301909  0.8965852292041275  0.8446259531210601  1.0000
  O   O14       1.0  0.22578739545087964  0.896584702890685  0.6553542743598018  1.0000
  O   O15       1.0  0.2257957170856315  0.603402617813984  0.3446407157845642  1.0000
  O   O16       1.0  0.7741785942787872  0.6034227597695648  0.1553612781051257  1.0000
