data_image0
_chemical_formula_structural       Sm2H24C26N6O18F8
_chemical_formula_sum              "Sm2 H24 C26 N6 O18 F8"
_cell_length_a       10.769303098737577
_cell_length_b       10.875314508156665
_cell_length_c       11.56015468926124
_cell_angle_alpha    102.09118902377914
_cell_angle_beta     105.34404986948888
_cell_angle_gamma    100.63278797085104

_space_group_name_H-M_alt    "P 1"
_space_group_IT_number       1

loop_
  _space_group_symop_operation_xyz
  'x, y, z'

loop_
  _atom_site_type_symbol
  _atom_site_label
  _atom_site_symmetry_multiplicity
  _atom_site_fract_x
  _atom_site_fract_y
  _atom_site_fract_z
  _atom_site_occupancy
  Sm  Sm1       1.0  0.12096005103447992  0.3800096117404053  0.504186226059133  1.0000
  Sm  Sm2       1.0  0.8790422565338927  0.6199886980595509  0.49581251267887444  1.0000
  H   H1        1.0  0.5545398284814596  0.6018863791738626  0.47547989635481275  1.0000
  H   H2        1.0  0.4454570964649065  0.3981100112007923  0.5245093811978379  1.0000
  H   H3        1.0  0.5042666216424934  0.7275827277371009  0.41761277092953014  1.0000
  H   H4        1.0  0.4957367134496167  0.2724194695805765  0.5823852535721485  1.0000
  H   H5        1.0  0.0188730396818997  0.9511617828608935  0.5926377849462626  1.0000
  H   H6        1.0  0.9811359063530318  0.048843301454795096  0.40736562169105645  1.0000
  H   H7        1.0  0.09615236919231757  0.012748157906543196  0.7535068859147528  1.0000
  H   H8        1.0  0.9038455957409043  0.9872589572800337  0.24649860294679374  1.0000
  H   H9        1.0  0.2264837039054086  0.32883818746199006  0.24629249414173418  1.0000
  H   H10       1.0  0.7735060679616552  0.6711709238973002  0.7537027656365752  1.0000
  H   H11       1.0  0.13133526064089554  0.22961830570634595  0.7434750953056622  1.0000
  H   H12       1.0  0.8686669388034504  0.7703868232038718  0.2565241002393749  1.0000
  H   H13       1.0  0.2879489632808614  0.6588688222935916  0.43282429051787835  1.0000
  H   H14       1.0  0.7120491891451197  0.34112853461525827  0.5671663387485496  1.0000
  H   H15       1.0  0.29542922213644834  0.07449811615802561  0.2358002180999037  1.0000
  H   H16       1.0  0.7045549228859684  0.9255110569412252  0.7642127300877918  1.0000
  H   H17       1.0  0.31292874479348143  0.17850453101225844  0.14059895598465033  1.0000
  H   H18       1.0  0.6870681134775295  0.8214948004439648  0.8594064579074824  1.0000
  H   H19       1.0  0.6480615882131816  0.33178005661414295  0.2785841876843023  1.0000
  H   H20       1.0  0.3519576499718723  0.6682385817626437  0.7214139960125789  1.0000
  H   H21       1.0  0.642158137403797  0.1682232603021987  0.2866238983324862  1.0000
  H   H22       1.0  0.3578395323731698  0.831786761512163  0.7133665229435452  1.0000
  H   H23       1.0  0.6901400015332015  0.22023137424555742  0.1657557997663801  1.0000
  H   H24       1.0  0.3098757605155882  0.779781444502177  0.8342412615149825  1.0000
  C   C1        1.0  0.8872321913831698  0.45345208328551223  0.029120936497754702  1.0000
  C   C2        1.0  0.11276810281666633  0.5465277380702177  0.9708797182515242  1.0000
  C   C3        1.0  0.013407947750444323  0.5127774327958079  0.25977019402540696  1.0000
  C   C4        1.0  0.9865870048857134  0.4872043596049521  0.7402165880900994  1.0000
  C   C5        1.0  0.007115131777467828  0.5077142255467494  0.12610246122167013  1.0000
  C   C6        1.0  0.9928925021435615  0.49226455580583917  0.8738876447136333  1.0000
  C   C7        1.0  0.4417543785479197  0.4175824242700657  0.8752494738605918  1.0000
  C   C8        1.0  0.5582360219420721  0.5824140441958576  0.12476592974908844  1.0000
  C   C9        1.0  0.1196334142770965  0.5540401976411715  0.0942893861943404  1.0000
  C   C10       1.0  0.8803680219171924  0.4459366930790694  0.9057109642872732  1.0000
  C   C11       1.0  0.4166057626841564  0.3794332860062752  0.9761574839755696  1.0000
  C   C12       1.0  0.5833844949701826  0.6205661120566219  0.023863654665255744  1.0000
  C   C13       1.0  0.8389626187720011  0.2899743698729154  0.34523880338899454  1.0000
  C   C14       1.0  0.1610471774696478  0.7100268066640893  0.6547597102734244  1.0000
  C   C15       1.0  0.2354755381760683  0.2414963877262082  0.278769924223667  1.0000
  C   C16       1.0  0.7645102118291333  0.7585117908400107  0.7212354283726441  1.0000
  C   C17       1.0  0.5267789264809224  0.5403898775919272  0.9027638557409006  1.0000
  C   C18       1.0  0.47321574025365004  0.4596046093828861  0.0972495884307349  1.0000
  C   C19       1.0  0.3825777039428218  0.3314225275638236  0.741402782263215  1.0000
  C   C20       1.0  0.6174201245014359  0.6685875181767784  0.25860930840517676  1.0000
  C   C21       1.0  0.0830496431927017  0.14969275475505128  0.6575418081645736  1.0000
  C   C22       1.0  0.9169583955152945  0.8503162287258804  0.34245869046639404  1.0000
  C   C23       1.0  0.3634694199796796  0.605640704739784  0.460480595197879  1.0000
  C   C24       1.0  0.6365284787387182  0.3943556807681575  0.5395106460154793  1.0000
  C   C25       1.0  0.6955950127550778  0.2516960916576565  0.26393063638343506  1.0000
  C   C26       1.0  0.3044168986324395  0.7483167532562619  0.7360646376849758  1.0000
  N   N1        1.0  0.4842798813364837  0.6545662254210427  0.458489921370699  1.0000
  N   N2        1.0  0.51572071335535  0.3454330626420941  0.5415016777718833  1.0000
  N   N3        1.0  0.05981894909001542  0.030585904682801902  0.6701750547182854  1.0000
  N   N4        1.0  0.9401814680545328  0.9694124234640215  0.3298275576795646  1.0000
  N   N5        1.0  0.2810181501260871  0.1560022464439612  0.2104849813943659  1.0000
  N   N6        1.0  0.7189713269750655  0.8440020030440891  0.7895153017792964  1.0000
  O   O1        1.0  0.8810301880953091  0.393685833080248  0.43857356240895473  1.0000
  O   O2        1.0  0.11897529449673533  0.6063134335204836  0.5614304553642242  1.0000
  O   O3        1.0  0.0504985641313525  0.174235941861717  0.5532852208096202  1.0000
  O   O4        1.0  0.949515517394957  0.8257632560553174  0.44671393374183305  1.0000
  O   O5        1.0  0.08694622946651978  0.44879842410375664  0.3117022838482697  1.0000
  O   O6        1.0  0.9130556371317625  0.55120183719292  0.688296734437948  1.0000
  O   O7        1.0  0.3334057337697018  0.5036608385565202  0.4935337822608901  1.0000
  O   O8        1.0  0.6665948228419794  0.4963384437643158  0.5064526162275272  1.0000
  O   O9        1.0  0.30366744556828007  0.377099344136532  0.668627508470486  1.0000
  O   O10       1.0  0.696336209446237  0.6229145542606818  0.33138415173245056  1.0000
  O   O11       1.0  0.9177120138232908  0.22200582445100991  0.32488846349254896  1.0000
  O   O12       1.0  0.08228884429133394  0.7779905521990998  0.6751138693570836  1.0000
  O   O13       1.0  0.20381947186677965  0.2250214732693935  0.3716821620253654  1.0000
  O   O14       1.0  0.7961733925169697  0.7749885824490192  0.6283071087040925  1.0000
  O   O15       1.0  0.9436874792980987  0.5785187036326889  0.3043324594313078  1.0000
  O   O16       1.0  0.0563017259062661  0.4214631323240781  0.6956555423553965  1.0000
  O   O17       1.0  0.41828779661607024  0.22913239207223776  0.7152555551514936  1.0000
  O   O18       1.0  0.5817105138565921  0.7708795926419755  0.28475184452025804  1.0000
  F   F1        1.0  0.33201325965813305  0.2610363977845863  0.9576389191259693  1.0000
  F   F2        1.0  0.6679774383456732  0.738975652660706  0.042377040979602015  1.0000
  F   F3        1.0  0.5581787602919591  0.5844048569307105  0.8091522777135866  1.0000
  F   F4        1.0  0.4418331804714484  0.4155895041613034  0.19086184132292763  1.0000
  F   F5        1.0  0.7750425914291199  0.4036900686443659  0.05386853402848149  1.0000
  F   F6        1.0  0.22496045547404014  0.5963004323790245  0.9461201886504043  1.0000
  F   F7        1.0  0.2388017900585311  0.6100652536184015  0.18475794113625452  1.0000
  F   F8        1.0  0.7611803803662981  0.3899049306386003  0.8152165477353819  1.0000
