data_image0
_chemical_formula_structural       Rb4H8C22N8O10
_chemical_formula_sum              "Rb4 H8 C22 N8 O10"
_cell_length_a       8.73212134025201
_cell_length_b       9.319429522496206
_cell_length_c       9.89164131988834
_cell_angle_alpha    104.07068424376503
_cell_angle_beta     107.3444833652121
_cell_angle_gamma    99.82083400979101

_space_group_name_H-M_alt    "P 1"
_space_group_IT_number       1

loop_
  _space_group_symop_operation_xyz
  'x, y, z'

loop_
  _atom_site_type_symbol
  _atom_site_label
  _atom_site_symmetry_multiplicity
  _atom_site_fract_x
  _atom_site_fract_y
  _atom_site_fract_z
  _atom_site_occupancy
  Rb  Rb1       1.0  0.913900438569371  0.9268361371947192  0.27347483172631826  1.0000
  Rb  Rb2       1.0  0.08609968047701241  0.07316225982710732  0.7265241085657975  1.0000
  Rb  Rb3       1.0  0.6318398663017746  0.9932538863116983  0.817491154540235  1.0000
  Rb  Rb4       1.0  0.36815957852212483  0.006742214509529298  0.18250607750445616  1.0000
  H   H1        1.0  0.6672344571366295  0.9505417724807541  0.4778471042917118  1.0000
  H   H2        1.0  0.3327642652260323  0.049460075856821085  0.5221512459942588  1.0000
  H   H3        1.0  0.6927936439657714  0.12718953416890597  0.5333892711982812  1.0000
  H   H4        1.0  0.30720714409453354  0.8728111556293568  0.46661036424243457  1.0000
  H   H5        1.0  0.9811169554742776  0.297788102992861  0.9398560085388251  1.0000
  H   H6        1.0  0.018880439277673067  0.7022091666401734  0.06014297764759385  1.0000
  H   H7        1.0  0.0301660638600865  0.21034921003564477  0.05763915863805378  1.0000
  H   H8        1.0  0.9698331974038013  0.7896503445861924  0.9423608325120723  1.0000
  C   C1        1.0  0.21628682160103102  0.5092422350737138  0.5735293242294331  1.0000
  C   C2        1.0  0.7837110429791423  0.49076077086387915  0.4264700769145477  1.0000
  C   C3        1.0  0.30796342400808646  0.5887196841931653  0.4997126116112085  1.0000
  C   C4        1.0  0.6920372391480782  0.4112764225370924  0.5002889826438944  1.0000
  C   C5        1.0  0.2978256831705509  0.47723999539205403  0.3627792767175464  1.0000
  C   C6        1.0  0.7021739073917318  0.5227607021938426  0.6372200489080555  1.0000
  C   C7        1.0  0.1961252026175657  0.3303809896006271  0.34859911151873746  1.0000
  C   C8        1.0  0.803875580234177  0.6696196967734735  0.6513995108231541  1.0000
  C   C9        1.0  0.14896974062727247  0.3485900812355494  0.48445146178147497  1.0000
  C   C10       1.0  0.8510269316634409  0.6514129359138394  0.515548642646223  1.0000
  C   C11       1.0  0.19533461463121427  0.5781914658833357  0.7063766334199499  1.0000
  C   C12       1.0  0.8046659794519542  0.42181267086721147  0.2936237349285519  1.0000
  C   C13       1.0  0.10798701679364338  0.4951053013753536  0.7749837680162982  1.0000
  C   C14       1.0  0.892012783371456  0.5048919595307524  0.22501786399799778  1.0000
  C   C15       1.0  0.25560873987822674  0.7376725990037372  0.7811231264015246  1.0000
  C   C16       1.0  0.7443907361970403  0.26232352236248596  0.21888018423612712  1.0000
  C   C17       1.0  0.3752912880971522  0.5089606621084073  0.2643259581921952  1.0000
  C   C18       1.0  0.6247085016508293  0.491036591949367  0.7356736476244519  1.0000
  C   C19       1.0  0.36794186169809256  0.3943240164199295  0.13686127389972566  1.0000
  C   C20       1.0  0.6320582611951551  0.6056824585605085  0.8631506238693517  1.0000
  C   C21       1.0  0.4700415511802233  0.6574933902675465  0.28744654347295995  1.0000
  C   C22       1.0  0.5299572856694539  0.3425130342897019  0.7125478218009602  1.0000
  N   N1        1.0  0.03630588454993237  0.4354490437659421  0.8378872857357463  1.0000
  N   N2        1.0  0.9636966294924818  0.5645493376806242  0.16211227418659038  1.0000
  N   N3        1.0  0.29910895489071265  0.8686010230037123  0.848552359983138  1.0000
  N   N4        1.0  0.7008949075966697  0.13140195084405798  0.1514506164340474  1.0000
  N   N5        1.0  0.3660419576859865  0.3018297402841695  0.03168557109679425  1.0000
  N   N6        1.0  0.6339609182678885  0.698161730136995  0.9683074575158485  1.0000
  N   N7        1.0  0.5501157732138893  0.777902082880409  0.30023446776311147  1.0000
  N   N8        1.0  0.4498831431259093  0.22209631850488165  0.699763149615073  1.0000
  O   O1        1.0  0.38412737105618777  0.7281842760082994  0.5470183379045819  1.0000
  O   O2        1.0  0.6158713565150435  0.2718175757534382  0.4529810254802129  1.0000
  O   O3        1.0  0.1495773720219518  0.20753112130694965  0.24304708156420662  1.0000
  O   O4        1.0  0.8504237557538661  0.792470718303697  0.7569539145496335  1.0000
  O   O5        1.0  0.0651744352866004  0.24348285887566587  0.5105039125306305  1.0000
  O   O6        1.0  0.9348203652836133  0.7565178698607511  0.48949417383452937  1.0000
  O   O7        1.0  0.7277618749214199  0.0419158152137911  0.5651479332646757  1.0000
  O   O8        1.0  0.2722389079303156  0.9580848711603098  0.4348506890772086  1.0000
  O   O9        1.0  0.9525648439312776  0.19909879962588659  0.9580916248266858  1.0000
  O   O10       1.0  0.04743289053618572  0.8008996198195317  0.04190872203286484  1.0000
