data_image0
_chemical_formula_structural       CuH18C24N4O8
_chemical_formula_sum              "Cu1 H18 C24 N4 O8"
_cell_length_a       6.965569101797797
_cell_length_b       7.985512479030372
_cell_length_c       10.604993411191659
_cell_angle_alpha    99.53586306970273
_cell_angle_beta     105.09026406741833
_cell_angle_gamma    109.80306749983272

_space_group_name_H-M_alt    "P 1"
_space_group_IT_number       1

loop_
  _space_group_symop_operation_xyz
  'x, y, z'

loop_
  _atom_site_type_symbol
  _atom_site_label
  _atom_site_symmetry_multiplicity
  _atom_site_fract_x
  _atom_site_fract_y
  _atom_site_fract_z
  _atom_site_occupancy
  Cu  Cu1       1.0  9.858765323986158e-07  1.2477880059485205e-07  0.9999988498592816  1.0000
  H   H1        1.0  0.29380286542562584  0.37031933402960265  0.48575266561532987  1.0000
  H   H2        1.0  0.7061830484093152  0.6296718981496742  0.5142407019085129  1.0000
  H   H3        1.0  0.012433742468303335  0.5670938620388098  0.1641526071880861  1.0000
  H   H4        1.0  0.9875705662215  0.43291828934268056  0.8358436792729409  1.0000
  H   H5        1.0  0.3868349968122046  0.6621228535991293  0.6551080895236725  1.0000
  H   H6        1.0  0.613156095577061  0.33786979263287986  0.34488912783939446  1.0000
  H   H7        1.0  0.11457789231662477  0.8668386254135073  0.3282892724231773  1.0000
  H   H8        1.0  0.8854357380172007  0.1331708271052889  0.6717138092451054  1.0000
  H   H9        1.0  0.5240013415983923  0.9220486642369965  0.7809900835931318  1.0000
  H   H10       1.0  0.47599916331401465  0.07794821088621262  0.2190110964526185  1.0000
  H   H11       1.0  0.17596829142714657  0.10046647389935265  0.47570743351263206  1.0000
  H   H12       1.0  0.8240320250505634  0.8995331400161392  0.5242959682462499  1.0000
  H   H13       1.0  0.3651108297971035  0.3782135815299981  0.7260194920207186  1.0000
  H   H14       1.0  0.6349033216072614  0.6217903373228638  0.273985763551167  1.0000
  H   H15       1.0  0.7340928608745544  0.2446087392189754  0.9722690760273454  1.0000
  H   H16       1.0  0.26591320490680914  0.755393698860445  0.027735626284112427  1.0000
  H   H17       1.0  0.6527815526192314  0.4270936132312714  0.9405028504843149  1.0000
  H   H18       1.0  0.34722021739281683  0.5729060340445713  0.059498902985168925  1.0000
  C   C1        1.0  0.10461752439984202  0.26734132198958355  0.2199408139747946  1.0000
  C   C2        1.0  0.8953851574758501  0.7326639003241765  0.7800561719688518  1.0000
  C   C3        1.0  0.1460718076770533  0.44744040442614624  0.3147703909173175  1.0000
  C   C4        1.0  0.8539170598721457  0.5525605049386257  0.6852256865461686  1.0000
  C   C5        1.0  0.24979044524468466  0.47796760375886305  0.4534146325163705  1.0000
  C   C6        1.0  0.7501931528710771  0.5220249637992823  0.5465804276324635  1.0000
  C   C7        1.0  0.09436622399528008  0.5882403766903792  0.27165253677039664  1.0000
  C   C8        1.0  0.9056284546580642  0.41176333280344585  0.7283476772441733  1.0000
  C   C9        1.0  0.3054737806959836  0.6435619091119662  0.547965068321986  1.0000
  C   C10       1.0  0.6945147869392373  0.35643481930282667  0.4520351180463608  1.0000
  C   C11       1.0  0.15061240202500417  0.7572735175158698  0.3647900722884075  1.0000
  C   C12       1.0  0.8493818943137087  0.24272604307448384  0.6352104692996862  1.0000
  C   C13       1.0  0.25805169395312083  0.7842345088940023  0.5027473391583757  1.0000
  C   C14       1.0  0.7419407871367769  0.21576086142089682  0.4972561236254622  1.0000
  C   C15       1.0  0.45052171524844914  0.0052009587328783  0.7322563382053888  1.0000
  C   C16       1.0  0.549478177714299  0.9947945223023853  0.2677455004613308  1.0000
  C   C17       1.0  0.2692830930736037  0.104178610399039  0.5763891212963373  1.0000
  C   C18       1.0  0.7307216252074583  0.8958210875742483  0.4236112262600288  1.0000
  C   C19       1.0  0.3641858367075771  0.24100644450298608  0.6966049770230927  1.0000
  C   C20       1.0  0.6358191318086671  0.758990490643143  0.303395984818657  1.0000
  C   C21       1.0  0.5936629797222751  0.2788712277711198  0.9336509054072837  1.0000
  C   C22       1.0  0.4063424535092607  0.721129824231987  0.06635351019230741  1.0000
  C   C23       1.0  0.45414370586875225  0.2357760835912971  0.024854569604833943  1.0000
  C   C24       1.0  0.5458580641432961  0.7642235636845458  0.9751471838646498  1.0000
  N   N1        1.0  0.32346110595611327  0.9572377850377624  0.6003369319588361  1.0000
  N   N2        1.0  0.6765370420367773  0.042760441487566  0.39966405004621924  1.0000
  N   N3        1.0  0.4762462406968098  0.17662027202501213  0.7909522904397337  1.0000
  N   N4        1.0  0.5237587690197644  0.8233766470978736  0.20905056206768793  1.0000
  O   O1        1.0  0.0412535315223508  0.2531804141171534  0.09106885739858941  1.0000
  O   O2        1.0  0.9587400704660427  0.7468177844317483  0.9089285614791155  1.0000
  O   O3        1.0  0.1366778725254534  0.1412433981302854  0.2679085991013893  1.0000
  O   O4        1.0  0.863356922207217  0.858770502092739  0.7320909309314204  1.0000
  O   O5        1.0  0.28381994335293825  0.08397189743534743  0.9728951805233951  1.0000
  O   O6        1.0  0.7161818472592786  0.9160277418288703  0.02710751827892477  1.0000
  O   O7        1.0  0.5254221329531035  0.34699060159955764  0.14031404142883733  1.0000
  O   O8        1.0  0.47457338728492726  0.653011747166673  0.8596851829173107  1.0000
