data_image0
_chemical_formula_structural       Cd10H20C40N16O36
_chemical_formula_sum              "Cd10 H20 C40 N16 O36"
_cell_length_a       10.646395678596248
_cell_length_b       10.925913498871292
_cell_length_c       15.836910681000106
_cell_angle_alpha    90.00001167758795
_cell_angle_beta     90.0000045281118
_cell_angle_gamma    97.93972890600132

_space_group_name_H-M_alt    "P 1"
_space_group_IT_number       1

loop_
  _space_group_symop_operation_xyz
  'x, y, z'

loop_
  _atom_site_type_symbol
  _atom_site_label
  _atom_site_symmetry_multiplicity
  _atom_site_fract_x
  _atom_site_fract_y
  _atom_site_fract_z
  _atom_site_occupancy
  Cd  Cd1       1.0  0.8346595405786561  0.42896815438874825  0.4546423843165712  1.0000
  Cd  Cd2       1.0  0.6653405950328661  0.07103144266985588  0.954642648766047  1.0000
  Cd  Cd3       1.0  0.16534030258628724  0.5710314650954444  0.5453576699237743  1.0000
  Cd  Cd4       1.0  0.334659248132077  0.9289681768143441  0.045357405474298715  1.0000
  Cd  Cd5       1.0  2.448825072e-07  1.8465424030000004e-07  0.4999996894912259  1.0000
  Cd  Cd6       1.0  0.50000002597276  0.5000003508571852  5.619810400000004e-09  1.0000
  Cd  Cd7       1.0  0.574081735235744  0.15653607374586193  0.5439533373148608  1.0000
  Cd  Cd8       1.0  0.9259184618555885  0.34346431754421053  0.04395306567892021  1.0000
  Cd  Cd9       1.0  0.4259182358366048  0.8434644698473409  0.4560473483618352  1.0000
  Cd  Cd10      1.0  0.0740824489279319  0.6565362290913512  0.956046988561525  1.0000
  H   H1        1.0  0.5392611598274969  0.5499588580785257  0.41262598331449857  1.0000
  H   H2        1.0  0.960738526833822  0.9500400814619852  0.9126263170080905  1.0000
  H   H3        1.0  0.4607385554300407  0.4500398372966786  0.5873734394894967  1.0000
  H   H4        1.0  0.03926037661989311  0.049959534979755915  0.08737373723222672  1.0000
  H   H5        1.0  0.9475317815866975  0.503858179984107  0.23766573162095034  1.0000
  H   H6        1.0  0.5524680046827727  0.9961416283354156  0.7376660500080874  1.0000
  H   H7        1.0  0.052468061578245816  0.49614143950008593  0.7623343226193953  1.0000
  H   H8        1.0  0.4475318384822204  0.0038579911488839007  0.2623346356685374  1.0000
  H   H9        1.0  0.6773126805071571  0.03898648006661891  0.2601214601149097  1.0000
  H   H10       1.0  0.8226884912599319  0.46101398262766224  0.7601224194180887  1.0000
  H   H11       1.0  0.32268810236890744  0.9610131424598408  0.7398773312528919  1.0000
  H   H12       1.0  0.17731147981241693  0.5389865609655332  0.23987826625860723  1.0000
  H   H13       1.0  0.9695742313511391  0.08269985517563334  0.6702065015268133  1.0000
  H   H14       1.0  0.530425986161255  0.4173005760411571  0.1702068506156849  1.0000
  H   H15       1.0  0.03042680733973675  0.9173016155688248  0.3297935527136957  1.0000
  H   H16       1.0  0.4695738570036951  0.5826990434430429  0.8297932036246607  1.0000
  H   H17       1.0  0.11444497199555312  0.12872726391058362  0.6593400949546294  1.0000
  H   H18       1.0  0.3855559790245381  0.37127306131859694  0.15934045652159065  1.0000
  H   H19       1.0  0.8855559387879172  0.8712732827248717  0.3406593278495222  1.0000
  H   H20       1.0  0.6144449317589321  0.6287274853168654  0.8406589662825681  1.0000
  C   C1        1.0  0.6125007244190216  0.6184745810431522  0.43891899688891567  1.0000
  C   C2        1.0  0.8874989664951016  0.8815243668123218  0.9389193170050663  1.0000
  C   C3        1.0  0.38750005845714963  0.3815250414835064  0.5610810573514513  1.0000
  C   C4        1.0  0.11250087666984143  0.11847525267187822  0.061080737235279514  1.0000
  C   C5        1.0  0.79500242128465  0.7073771526611594  0.4853895612133955  1.0000
  C   C6        1.0  0.7049983447644979  0.7926227370416402  0.9853898590396355  1.0000
  C   C7        1.0  0.2049975497876489  0.29262339093193657  0.5146104930270212  1.0000
  C   C8        1.0  0.29500149840044554  0.20737688244255995  0.014610195200710106  1.0000
  C   C9        1.0  0.7051148701883535  0.790112434344515  0.4940844422521594  1.0000
  C   C10       1.0  0.7948840178447156  0.7098874520230538  0.9940847332092277  1.0000
  C   C11       1.0  0.2948849729765399  0.20988718513958557  0.5059149805519001  1.0000
  C   C12       1.0  0.2051148856090066  0.29011216441868737  0.005915321031096701  1.0000
  C   C13       1.0  0.931423048202703  0.712466871082711  0.5066190844558562  1.0000
  C   C14       1.0  0.5685777683143202  0.7875337913212948  0.006618785841190801  1.0000
  C   C15       1.0  0.068576922869596  0.287533672510385  0.4933809697845533  1.0000
  C   C16       1.0  0.43142301456184395  0.21246583120536408  0.9933812683991761  1.0000
  C   C17       1.0  0.7045732457824984  0.915863417324758  0.5300554817881888  1.0000
  C   C18       1.0  0.7954274466179713  0.5841363283820372  0.030055798036237  1.0000
  C   C19       1.0  0.29542659738239513  0.08413620215934262  0.4699439410158774  1.0000
  C   C20       1.0  0.2045733362581927  0.41586329414462153  0.96994425620413  1.0000
  C   C21       1.0  0.8932731603455655  0.412864839720804  0.24464751472475402  1.0000
  C   C22       1.0  0.6067270692073876  0.0871356150373899  0.7446477783147644  1.0000
  C   C23       1.0  0.10672693863408265  0.5871366279811954  0.7553525395157268  1.0000
  C   C24       1.0  0.39327371366883324  0.912864007489368  0.255352907361889  1.0000
  C   C25       1.0  0.7820832462893751  0.2513764602477835  0.2995079474243241  1.0000
  C   C26       1.0  0.7179159245184792  0.24862308470825667  0.7995082397339675  1.0000
  C   C27       1.0  0.21791578507169626  0.748624080302854  0.7004921068160641  1.0000
  C   C28       1.0  0.2820839186465137  0.7513765347760357  0.20049244594265767  1.0000
  C   C29       1.0  0.8008663083318411  0.22897577383451312  0.21366039517997146  1.0000
  C   C30       1.0  0.6991328485904731  0.27102374397287576  0.713660689646133  1.0000
  C   C31       1.0  0.19913246721441882  0.771022918498126  0.7863383961877164  1.0000
  C   C32       1.0  0.30086712248182584  0.7289767996202202  0.28633936459427645  1.0000
  C   C33       1.0  0.7105023533386686  0.17451961585805262  0.3643741264768253  1.0000
  C   C34       1.0  0.7894969558684721  0.32548087372043716  0.864375064888286  1.0000
  C   C35       1.0  0.2894976177335807  0.8254809277349439  0.6356252963273051  1.0000
  C   C36       1.0  0.2105028872965775  0.6745187457639618  0.1356262522246254  1.0000
  C   C37       1.0  0.7558386130221209  0.12333480042073573  0.1593953838808488  1.0000
  C   C38       1.0  0.7441614748342007  0.3766647032681121  0.6593950642181312  1.0000
  C   C39       1.0  0.24416135805022784  0.8766657431724597  0.8406053017958472  1.0000
  C   C40       1.0  0.25583824042339404  0.6233339921071847  0.3406049900221505  1.0000
  N   N1        1.0  0.7331694750853687  0.5995480378241426  0.45090681659227283  1.0000
  N   N2        1.0  0.7668303456750465  0.9004518379311862  0.9509065014959719  1.0000
  N   N3        1.0  0.26682930046099773  0.40045065450869544  0.5490932376479806  1.0000
  N   N4        1.0  0.23316962539720273  0.09954870566181032  0.04909292130815861  1.0000
  N   N5        1.0  0.5913127067121452  0.7312242183613834  0.4636662550425541  1.0000
  N   N6        1.0  0.9086879279159847  0.7687747403626873  0.9636665603857963  1.0000
  N   N7        1.0  0.40868713645274823  0.268775401122717  0.5363331677615053  1.0000
  N   N8        1.0  0.09131285496017941  0.2312248821639713  0.036333493854570506  1.0000
  N   N9        1.0  0.8409629996994074  0.36783717575156066  0.3177097394782891  1.0000
  N   N10       1.0  0.6590363019598726  0.13216329906955343  0.8177100122143913  1.0000
  N   N11       1.0  0.15903615956896294  0.6321642889078734  0.682289683325884  1.0000
  N   N12       1.0  0.3409635412050207  0.86783632041454  0.182289410589668  1.0000
  N   N13       1.0  0.8712395198978631  0.33261955654031544  0.18049673939879096  1.0000
  N   N14       1.0  0.6287616389901559  0.16738088097314122  0.6804970154854786  1.0000
  N   N15       1.0  0.1287605790817921  0.6673819111616838  0.819503314841697  1.0000
  N   N16       1.0  0.37123914388606494  0.832618741553624  0.3195036701911746  1.0000
  O   O1        1.0  0.9945778534152372  0.8044182578024465  0.5422901910752813  1.0000
  O   O2        1.0  0.5054219012529301  0.6955814887310157  0.042290507552174  1.0000
  O   O3        1.0  0.0054211779458342  0.195582282748191  0.45770986316510703  1.0000
  O   O4        1.0  0.4945779419120627  0.30441813075328383  0.957710178124451  1.0000
  O   O5        1.0  0.9812175081970128  0.6153824225702493  0.48651856777098607  1.0000
  O   O6        1.0  0.51878244623083  0.8846183885559286  0.9865182371905095  1.0000
  O   O7        1.0  0.018783402586457512  0.3846181240652059  0.5134808550331726  1.0000
  O   O8        1.0  0.48121658513019144  0.11538215199460923  0.013481185613592604  1.0000
  O   O9        1.0  0.8040578166700743  0.9877201356382558  0.5498484912115416  1.0000
  O   O10       1.0  0.6959419392206743  0.5122796132855642  0.049849423445124316  1.0000
  O   O11       1.0  0.19594108678354877  0.012279480803279301  0.45015030015621  1.0000
  O   O12       1.0  0.3040580318516249  0.4877209303075318  0.9501506307952925  1.0000
  O   O13       1.0  0.5940539208952701  0.9477951939285421  0.5406787650981004  1.0000
  O   O14       1.0  0.9059459614196117  0.5522054762042219  0.0406790827456973  1.0000
  O   O15       1.0  0.405946050177029  0.052205349664554  0.4593212891423093  1.0000
  O   O16       1.0  0.09405400965268741  0.44779506738887415  0.9593209714947125  1.0000
  O   O17       1.0  0.7017352676538381  0.22640196529820147  0.4363395544066222  1.0000
  O   O18       1.0  0.7982639252861008  0.27359762292991974  0.9363404859676764  1.0000
  O   O19       1.0  0.29826363579983456  0.7735976511434332  0.5636598683974157  1.0000
  O   O20       1.0  0.20173591787889225  0.7264019965543796  0.0636601997089556  1.0000
  O   O21       1.0  0.6605568608869491  0.06497212363915854  0.3464375383875691  1.0000
  O   O22       1.0  0.8394433851301885  0.435028363309378  0.8464378634839136  1.0000
  O   O23       1.0  0.33944298227794434  0.9350274958449419  0.6535618844164973  1.0000
  O   O24       1.0  0.1605575256533385  0.5649721833261765  0.15356219075652436  1.0000
  O   O25       1.0  0.688665156243893  0.025761738947466004  0.1931014439419769  1.0000
  O   O26       1.0  0.8113349370643166  0.4742377754007806  0.6931017730678521  1.0000
  O   O27       1.0  0.3113348148283563  0.9742388046455305  0.8068979788621534  1.0000
  O   O28       1.0  0.18866490610067643  0.5257618440835189  0.30689891260878005  1.0000
  O   O29       1.0  0.78193705743562  0.128704667494155  0.0820229715686267  1.0000
  O   O30       1.0  0.7180631458134458  0.37129573583534636  0.5820239126268802  1.0000
  O   O31       1.0  0.21806385334785722  0.8712958791413072  0.9179764512355321  1.0000
  O   O32       1.0  0.28193682525890307  0.628704807757849  0.41797677304981573  1.0000
  O   O33       1.0  0.048364049534512815  0.059874479530677115  0.647832793528764  1.0000
  O   O34       1.0  0.4516359599130979  0.4401258390169431  0.1478331683382805  1.0000
  O   O35       1.0  0.9516360494451421  0.940126988171315  0.3521672607117169  1.0000
  O   O36       1.0  0.5483638832519021  0.5598737804673563  0.8521675173383445  1.0000
