data_image0
_chemical_formula_structural       Al4H36C38O22
_chemical_formula_sum              "Al4 H36 C38 O22"
_cell_length_a       6.6682013130406
_cell_length_b       14.409272617641573
_cell_length_c       16.668609827394878
_cell_angle_alpha    95.49863088619
_cell_angle_beta     90.00030127751131
_cell_angle_gamma    89.9996749966307

_space_group_name_H-M_alt    "P 1"
_space_group_IT_number       1

loop_
  _space_group_symop_operation_xyz
  'x, y, z'

loop_
  _atom_site_type_symbol
  _atom_site_label
  _atom_site_symmetry_multiplicity
  _atom_site_fract_x
  _atom_site_fract_y
  _atom_site_fract_z
  _atom_site_occupancy
  Al  Al1       1.0  0.1270296229244963  0.4993084889347655  0.4997697275936801  1.0000
  Al  Al2       1.0  0.627029518013174  0.5006945556741584  0.5002261070033285  1.0000
  Al  Al3       1.0  0.6113919818911812  0.9961888429526196  0.0014755679827302985  1.0000
  Al  Al4       1.0  0.1113933581467634  0.003816763076265783  0.9985178410415116  1.0000
  H   H1        1.0  0.9665381287737914  0.8992878686873805  0.7266989843830062  1.0000
  H   H2        1.0  0.466665175104417  0.1007226202712914  0.27328249609851696  1.0000
  H   H3        1.0  0.9010856368502971  0.7988932114063655  0.6130418625697303  1.0000
  H   H4        1.0  0.401221799094209  0.20109442072440936  0.3869520115725749  1.0000
  H   H5        1.0  0.6544287862555507  0.7745939375095076  0.6442823979375731  1.0000
  H   H6        1.0  0.15452671810451327  0.22537253059829251  0.3557361747714722  1.0000
  H   H7        1.0  0.5592334181518481  0.767860932818877  0.8236421132497185  1.0000
  H   H8        1.0  0.05919844432528979  0.2320992117903131  0.1763937060920853  1.0000
  H   H9        1.0  0.5775458225093857  0.6503214772586074  0.7194544244789185  1.0000
  H   H10       1.0  0.0775031109464166  0.3496313553358306  0.2805916295442188  1.0000
  H   H11       1.0  0.18902964506463596  0.819076956023643  0.8016227279631423  1.0000
  H   H12       1.0  0.6890539453444191  0.18096255542392467  0.1983378933403728  1.0000
  H   H13       1.0  0.19172892244985457  0.7206651061625279  0.6835513476271872  1.0000
  H   H14       1.0  0.691778919366044  0.2793683368294139  0.3164110520724179  1.0000
  H   H15       1.0  0.14588848581657737  0.6267510183841906  0.7403403711515252  1.0000
  H   H16       1.0  0.6458239871304982  0.3732784002188155  0.25963577033566304  1.0000
  H   H17       1.0  0.7248620873567405  0.7053700521399264  0.8803504135457202  1.0000
  H   H18       1.0  0.22472504388652229  0.29462088322838287  0.1196714449101464  1.0000
  H   H19       1.0  0.5117200762485794  0.8875187404516396  0.7526406871565711  1.0000
  H   H20       1.0  0.6685895056688833  0.9840281344319023  0.7829053620578036  1.0000
  H   H21       1.0  0.6307947616138065  0.949354244316673  0.6787893474958864  1.0000
  H   H22       1.0  0.0118166307714134  0.11242461550559568  0.2473726590452969  1.0000
  H   H23       1.0  0.16876796046597775  0.015942878966271196  0.21709037476908583  1.0000
  H   H24       1.0  0.13099210079882787  0.05060017445182299  0.3212128485719177  1.0000
  H   H25       1.0  0.9059894605355506  0.5596170524327277  0.8153453465113003  1.0000
  H   H26       1.0  0.6448622395372893  0.5416839647309998  0.8224030758063207  1.0000
  H   H27       1.0  0.7717206913196932  0.5049896391096381  0.7312509848573896  1.0000
  H   H28       1.0  0.40580629122725037  0.4403892303329612  0.18466791611312064  1.0000
  H   H29       1.0  0.1446622379004978  0.45828300520705767  0.1776335510163918  1.0000
  H   H30       1.0  0.27155287364399067  0.49499898044098245  0.26877637316952274  1.0000
  H   H31       1.0  0.28751338347981903  0.6748531510883139  0.8668670153569806  1.0000
  H   H32       1.0  0.7873968978564746  0.3252010014305852  0.13308303773050062  1.0000
  H   H33       1.0  0.37568046909768066  0.6184908983158905  0.48398808312195746  1.0000
  H   H34       1.0  0.8756791950016876  0.38153338855570235  0.516064373425415  1.0000
  H   H35       1.0  0.3499250165582096  0.879380389875571  0.009115357355383899  1.0000
  H   H36       1.0  0.8499185060983263  0.12062617095313037  0.9908724991794812  1.0000
  C   C1        1.0  0.3779668984755348  0.38366874497232567  0.38543438117993384  1.0000
  C   C2        1.0  0.8779232226135605  0.6163263080743347  0.6145703313095582  1.0000
  C   C3        1.0  0.37732790561253887  0.39558039355412683  0.6059275757399192  1.0000
  C   C4        1.0  0.8773684901557103  0.60442432892453  0.3940699615315281  1.0000
  C   C5        1.0  0.8779660222662145  0.6650205518239928  0.33019721071658376  1.0000
  C   C6        1.0  0.3779705880623467  0.3349843476343962  0.6698087615484737  1.0000
  C   C7        1.0  0.8782037605640908  0.7173726871806707  0.276604930173157  1.0000
  C   C8        1.0  0.3782217370750728  0.2826396807312149  0.7233860257603127  1.0000
  C   C9        1.0  0.8770767393131536  0.7755762410362692  0.2178344958296492  1.0000
  C   C10       1.0  0.37709027828588393  0.2244271642277624  0.7821570101372399  1.0000
  C   C11       1.0  0.8749255268163835  0.8285580669968622  0.1647878413493444  1.0000
  C   C12       1.0  0.3749224850374874  0.1714404819455453  0.8352036332535279  1.0000
  C   C13       1.0  0.8310131685093224  0.8577461905798598  0.7357673868020883  1.0000
  C   C14       1.0  0.33111403654284277  0.1422455520058321  0.26423781801272367  1.0000
  C   C15       1.0  0.8113587539728185  0.7805845171445964  0.6646812378664533  1.0000
  C   C16       1.0  0.31145650061940694  0.21939647684303049  0.3353202544374271  1.0000
  C   C17       1.0  0.7067681759425851  0.7341410447553115  0.8221279939716054  1.0000
  C   C18       1.0  0.2067102674911823  0.2658373670639164  0.17789315688902724  1.0000
  C   C19       1.0  0.07689786346890061  0.7631535461649078  0.8054468720796278  1.0000
  C   C20       1.0  0.5768733631094634  0.2368733118795134  0.19452309704160337  1.0000
  C   C21       1.0  0.8683164275310207  0.8092037015748516  0.8146185462599931  1.0000
  C   C22       1.0  0.3683061287339627  0.1908025622541984  0.18537356090686063  1.0000
  C   C23       1.0  0.8776923026855314  0.6846741213806948  0.6899314040418288  1.0000
  C   C24       1.0  0.37772242783820786  0.31532017541965013  0.31007270141355997  1.0000
  C   C25       1.0  0.7213718904378793  0.655570127210872  0.7518905311485469  1.0000
  C   C26       1.0  0.22131083027823448  0.3444108979545888  0.24813608390612535  1.0000
  C   C27       1.0  0.08767283654005097  0.6952086666215109  0.727499796842409  1.0000
  C   C28       1.0  0.587669424523689  0.3048209911435364  0.27248406285870896  1.0000
  C   C29       1.0  0.3671341134482233  0.10866453270286769  0.8976017041284621  1.0000
  C   C30       1.0  0.8671279862277926  0.8913362406536578  0.10239097238313381  1.0000
  C   C31       1.0  0.3651493822014515  0.11765650928890638  0.1132280700146211  1.0000
  C   C32       1.0  0.8651446308559655  0.8823525388942953  0.8867640465413871  1.0000
  C   C33       1.0  0.6507872238292691  0.9235701261006141  0.7382650757186794  1.0000
  C   C34       1.0  0.1509369450635916  0.07639693683579905  0.2617390370401366  1.0000
  C   C35       1.0  0.7645118024288278  0.5602557558373816  0.7814603924452044  1.0000
  C   C36       1.0  0.26435457903031784  0.43972909521847464  0.2185639187411894  1.0000
  C   C37       1.0  0.14598175412392317  0.7161492967598162  0.8778597910624555  1.0000
  C   C38       1.0  0.6458926815023673  0.2838786792242942  0.12210911440901379  1.0000
  O   O1        1.0  0.5479193066871132  0.41966755057825367  0.5806537889611506  1.0000
  O   O2        1.0  0.04797124424437269  0.5802505402291372  0.41926371417009284  1.0000
  O   O3        1.0  0.2076661334297398  0.4076337968339984  0.4153467934603796  1.0000
  O   O4        1.0  0.7075968998862763  0.5922899427662641  0.5847228432380689  1.0000
  O   O5        1.0  0.20636843602120788  0.4186134554683888  0.5803759063750817  1.0000
  O   O6        1.0  0.7064321630405744  0.5814829289177011  0.4197055352367158  1.0000
  O   O7        1.0  0.04706946600905581  0.5904096448117924  0.5850152675415713  1.0000
  O   O8        1.0  0.5471339723513253  0.409664477657685  0.4149211764947154  1.0000
  O   O9        1.0  0.3764938205737208  0.5563914697507498  0.5016762599410498  1.0000
  O   O10       1.0  0.8765019667245467  0.44361034348649747  0.49832668048856016  1.0000
  O   O11       1.0  0.1951904458605114  0.09640167956693799  0.08183666768253771  1.0000
  O   O12       1.0  0.695193313533494  0.9036068383540651  0.9181599329043592  1.0000
  O   O13       1.0  0.5344014643997638  0.0806849538048269  0.9228082824359092  1.0000
  O   O14       1.0  0.0344008220748435  0.9193170938395453  0.07718254704221289  1.0000
  O   O15       1.0  0.5320040775510008  0.0809820358897539  0.09103228871882861  1.0000
  O   O16       1.0  0.03200231286188429  0.9190274683719365  0.9089567707368359  1.0000
  O   O17       1.0  0.6930327662343458  0.9126151168471921  0.07925753563424821  1.0000
  O   O18       1.0  0.193030487705748  0.0873906990460469  0.9207330222063773  1.0000
  O   O19       1.0  0.358236116648932  0.9432700644439292  0.9957010213485872  1.0000
  O   O20       1.0  0.8582295796552445  0.05673685280324039  0.004290467456122801  1.0000
  O   O21       1.0  0.06491081565215498  0.720784850063012  0.9437734539051447  1.0000
  O   O22       1.0  0.5647999497646765  0.27921747092320703  0.05620057095863729  1.0000
