data_image0
_chemical_formula_structural       Co4H68C100N12O16
_chemical_formula_sum              "Co4 H68 C100 N12 O16"
_cell_length_a       9.818551171287469
_cell_length_b       11.364356950508684
_cell_length_c       25.931882292453047
_cell_angle_alpha    82.71406386484718
_cell_angle_beta     79.0532795348671
_cell_angle_gamma    64.38852210753731

_space_group_name_H-M_alt    "P 1"
_space_group_IT_number       1

loop_
  _space_group_symop_operation_xyz
  'x, y, z'

loop_
  _atom_site_type_symbol
  _atom_site_label
  _atom_site_symmetry_multiplicity
  _atom_site_fract_x
  _atom_site_fract_y
  _atom_site_fract_z
  _atom_site_occupancy
  Co  Co1       1.0  0.5842454865528596  0.8974216813210134  0.8251742714140347  1.0000
  Co  Co2       1.0  0.6924024329668652  0.39787639265276925  0.32515012832569556  1.0000
  Co  Co3       1.0  0.30759410281091715  0.602129928477481  0.6748502362786225  1.0000
  Co  Co4       1.0  0.41575635376768366  0.10257588574742019  0.17482891888655414  1.0000
  H   H1        1.0  0.1221105293713265  0.2605249557730574  0.8281483591763104  1.0000
  H   H2        1.0  0.09433446484145945  0.8933196689035158  0.8317959199078259  1.0000
  H   H3        1.0  0.6931954795211368  0.24947783432128293  0.8175229768193188  1.0000
  H   H4        1.0  0.8953041934694213  0.6876975000136056  0.7785778976684269  1.0000
  H   H5        1.0  0.028255800380051738  0.44630604204425595  0.782258125699556  1.0000
  H   H6        1.0  0.5938026884205743  0.43863717798755186  0.8498099110720855  1.0000
  H   H7        1.0  0.4799464997195886  0.6805837702140208  0.8433618780150665  1.0000
  H   H8        1.0  0.6198629750888998  0.0274726333247628  0.5556088909590569  1.0000
  H   H9        1.0  0.6425553541659782  0.7743554528448512  0.7173634789127872  1.0000
  H   H10       1.0  0.6548254517041983  0.8488231305633819  0.6234140692964301  1.0000
  H   H11       1.0  0.5144200781111508  0.23972439004354126  0.6726565339798326  1.0000
  H   H12       1.0  0.5182945832917697  0.14508262249144377  0.7648557758355988  1.0000
  H   H13       1.0  0.5898521015598561  0.2841992300083688  0.5953034704308634  1.0000
  H   H14       1.0  0.7233120389978679  0.4750233992186993  0.4298075899414186  1.0000
  H   H15       1.0  0.6887928116690959  0.4067939121381699  0.5251801427146103  1.0000
  H   H16       1.0  0.5373476549931057  0.1332574494195953  0.4813834405041673  1.0000
  H   H17       1.0  0.5779508311525704  0.213106494266718  0.3887330894092286  1.0000
  H   H18       1.0  0.788197867095647  0.7610633553381093  0.32806898145513225  1.0000
  H   H19       1.0  0.17967160991561582  0.3937969843440783  0.3317760146871365  1.0000
  H   H20       1.0  0.23878612811746805  0.7498973650784749  0.31776562405567427  1.0000
  H   H21       1.0  0.6379683483536952  0.188442855551628  0.27838021155002207  1.0000
  H   H22       1.0  0.742575404396654  0.9470459061511604  0.2820887626956504  1.0000
  H   H23       1.0  0.11654955271627918  0.9389739590598509  0.35000480615686047  1.0000
  H   H24       1.0  0.9951849603248563  0.18095164062791716  0.3434538126843164  1.0000
  H   H25       1.0  0.7967259852365985  0.5274029305513322  0.05547229492134417  1.0000
  H   H26       1.0  0.8655899902653489  0.2743981871045165  0.2173319030397208  1.0000
  H   H27       1.0  0.8728564707155115  0.3486792728202275  0.12334403614681828  1.0000
  H   H28       1.0  0.573740380897462  0.7398458356934726  0.17250727311754582  1.0000
  H   H29       1.0  0.5717162735372984  0.6453331365976851  0.26472410629565957  1.0000
  H   H30       1.0  0.5307612351923227  0.7843370779816825  0.09534158618453145  1.0000
  H   H31       1.0  0.3714588912305674  0.9748217036315765  0.9298429730835591  1.0000
  H   H32       1.0  0.3789522853332344  0.9069630199183225  0.025239384296099773  1.0000
  H   H33       1.0  0.8478275346259215  0.6331471517610154  0.9813167553284925  1.0000
  H   H34       1.0  0.8198977888782369  0.7126227890848753  0.8886488631727969  1.0000
  H   H35       1.0  0.21180357355294185  0.2389478074505647  0.6719284404603767  1.0000
  H   H36       1.0  0.8203289515686337  0.6062160337959527  0.6682148072270166  1.0000
  H   H37       1.0  0.7612219771094788  0.2501087447915538  0.6822208160690334  1.0000
  H   H38       1.0  0.3620360563151621  0.8115516571177398  0.721614873624645  1.0000
  H   H39       1.0  0.257429845662358  0.052944734411617796  0.7179087991727611  1.0000
  H   H40       1.0  0.8834657538057517  0.061019505964402795  0.6499857055521401  1.0000
  H   H41       1.0  0.004819132591457455  0.8190477548051049  0.6565410132807512  1.0000
  H   H42       1.0  0.2032545914285393  0.47259567342752734  0.9445346659376949  1.0000
  H   H43       1.0  0.13440731694089444  0.7256022974455689  0.7826702855001597  1.0000
  H   H44       1.0  0.12713511748672365  0.6513202015145082  0.8766559190719077  1.0000
  H   H45       1.0  0.42625418026290174  0.2601517575532952  0.8274975917242882  1.0000
  H   H46       1.0  0.42827772719376617  0.35466348084645466  0.7352808547616476  1.0000
  H   H47       1.0  0.46922671497303264  0.21566549847486266  0.9046696330488683  1.0000
  H   H48       1.0  0.6285453591015724  0.025170949127513595  0.07015840043177951  1.0000
  H   H49       1.0  0.6210412060419586  0.0930452752450535  0.9747622405507596  1.0000
  H   H50       1.0  0.1521512332062898  0.3668466300452309  0.018694468818019113  1.0000
  H   H51       1.0  0.18010634340129886  0.2873572972884304  0.11136172701749554  1.0000
  H   H52       1.0  0.8779006238992012  0.7394599174767009  0.17185566986390194  1.0000
  H   H53       1.0  0.9056464950206762  0.1066739593665247  0.16820513029517054  1.0000
  H   H54       1.0  0.30680553076043554  0.7505363048481968  0.18247738929443355  1.0000
  H   H55       1.0  0.10469486647647135  0.3123205996487073  0.2214258499565459  1.0000
  H   H56       1.0  0.9717476441948707  0.553715871192189  0.2177393049026435  1.0000
  H   H57       1.0  0.40620563479535576  0.5613789517588258  0.15019290380802625  1.0000
  H   H58       1.0  0.5200573916972998  0.3194265466302042  0.1566442874300193  1.0000
  H   H59       1.0  0.38014249238991477  0.9725239064678206  0.4443910148005087  1.0000
  H   H60       1.0  0.35742709189793237  0.225649955207416  0.2826410282667807  1.0000
  H   H61       1.0  0.34515664939487334  0.1511744834943798  0.37659206863303735  1.0000
  H   H62       1.0  0.4856136299231439  0.760265297802853  0.3273429095043382  1.0000
  H   H63       1.0  0.48172717096529993  0.8549187916803904  0.23514345865285685  1.0000
  H   H64       1.0  0.41014170351592605  0.7158021191635413  0.4046912053851698  1.0000
  H   H65       1.0  0.2766923815840485  0.5249731534421898  0.5701931610072676  1.0000
  H   H66       1.0  0.31121105741409155  0.5932016531019357  0.4748199332163379  1.0000
  H   H67       1.0  0.46266943859733123  0.8667302068196961  0.5186107492674947  1.0000
  H   H68       1.0  0.4220736761255922  0.7868850821686096  0.6112618881873573  1.0000
  C   C1        1.0  0.8975078297491378  0.2747075269242814  0.8219001996340792  1.0000
  C   C2        1.0  0.05288078505636663  0.207838644778306  0.8267884466895835  1.0000
  C   C3        1.0  0.12290489635888951  0.0713229135402429  0.8304490369940751  1.0000
  C   C4        1.0  0.038346738749659624  0.9995669907322124  0.8296424844716836  1.0000
  C   C5        1.0  0.8829195695710225  0.06453571351181608  0.8259301518324517  1.0000
  C   C6        1.0  0.8136628252352622  0.20121178589199226  0.8218909141378102  1.0000
  C   C7        1.0  0.8331596396035721  0.6285802312252144  0.794528228975004  1.0000
  C   C8        1.0  0.9066214100322229  0.4930178184409542  0.7971440378868734  1.0000
  C   C9        1.0  0.823822519599304  0.4186624960518728  0.8174182791717186  1.0000
  C   C10       1.0  0.6663829205143018  0.48880290110971464  0.8335464353131808  1.0000
  C   C11       1.0  0.601198088490662  0.62423130175101  0.8304108960726563  1.0000
  C   C12       1.0  0.6015736011426754  0.09766863048303519  0.584295877974881  1.0000
  C   C13       1.0  0.6196415782664533  0.8760012050471531  0.7060038235089293  1.0000
  C   C14       1.0  0.6242267010260321  0.9190735625017225  0.6533367784974188  1.0000
  C   C15       1.0  0.5908015302064841  0.05132779452885219  0.6390949995216741  1.0000
  C   C16       1.0  0.548536276628191  0.13510358028955952  0.6806048289297377  1.0000
  C   C17       1.0  0.5482303169535498  0.0839130677042377  0.7319140650258118  1.0000
  C   C18       1.0  0.5991029272001855  0.21623911269679746  0.5670408428434255  1.0000
  C   C19       1.0  0.2897045574518203  0.0027357592129603975  0.8330424966310088  1.0000
  C   C20       1.0  0.6851225379928254  0.3978071157711014  0.4431166906836309  1.0000
  C   C21       1.0  0.6648848218263198  0.35973581012874695  0.49604185441788917  1.0000
  C   C22       1.0  0.614862646990119  0.25998041242350206  0.5119706671427691  1.0000
  C   C23       1.0  0.5822729772660297  0.20723828995811291  0.471993086008389  1.0000
  C   C24       1.0  0.6042002922223804  0.25136885311573565  0.4201750156741041  1.0000
  C   C25       1.0  0.7897629180025943  0.9895594584130762  0.8259540884748515  1.0000
  C   C26       1.0  0.004801623139236857  0.7752762948984682  0.322004302128839  1.0000
  C   C27       1.0  0.9114758433603075  0.7083735704799566  0.3267925653054958  1.0000
  C   C28       1.0  0.9743510902171694  0.5718526802603989  0.33043769375748866  1.0000
  C   C29       1.0  0.13149619189997727  0.5000370571632544  0.32966355272953507  1.0000
  C   C30       1.0  0.22557411342024397  0.5650267752044514  0.3260397437721919  1.0000
  C   C31       1.0  0.16216059520886716  0.7017118353227972  0.3220641322160915  1.0000
  C   C32       1.0  0.7431144291582469  0.1292422478236404  0.2944073549984195  1.0000
  C   C33       1.0  0.8024968090702491  0.9936853222615624  0.297045839141198  1.0000
  C   C34       1.0  0.9390845247047539  0.91923517017824  0.3174770732846425  1.0000
  C   C35       1.0  0.010229169512797542  0.9892469623795251  0.3336605111259486  1.0000
  C   C36       1.0  0.9432456607995193  0.12469376435785762  0.3304728845786115  1.0000
  C   C37       1.0  0.7163761341702044  0.5976487574150225  0.08420178552339756  1.0000
  C   C38       1.0  0.7982414224140656  0.37604334720291627  0.2059352279895918  1.0000
  C   C39       1.0  0.803296177358128  0.4190313128370138  0.15324957953654209  1.0000
  C   C40       1.0  0.7188864404776466  0.5513187557519075  0.1389923825458581  1.0000
  C   C41       1.0  0.6360468747091235  0.6351964438127596  0.1804905324820538  1.0000
  C   C42       1.0  0.6359213880645314  0.5840694866983397  0.23180328676303216  1.0000
  C   C43       1.0  0.6175220330058907  0.7163279524374104  0.06703090094757158  1.0000
  C   C44       1.0  0.8736566721760327  0.5032364570794668  0.33298895227827774  1.0000
  C   C45       1.0  0.47357584204598907  0.897608339092578  0.943140440779899  1.0000
  C   C46       1.0  0.4790218601651407  0.8597399820501578  0.9960724041421184  1.0000
  C   C47       1.0  0.6129203758188881  0.7599781426661423  0.011963546963109199  1.0000
  C   C48       1.0  0.7382309722429172  0.7070860584222558  0.971949170861819  1.0000
  C   C49       1.0  0.7239165792688242  0.7509964087899803  0.9201189816023427  1.0000
  C   C50       1.0  0.39375402362378514  0.48998160613776764  0.32599509092522533  1.0000
  C   C51       1.0  0.9952062448587355  0.22472600220585548  0.6779885448115691  1.0000
  C   C52       1.0  0.08852547169129114  0.2916336343161987  0.6732016230106337  1.0000
  C   C53       1.0  0.02565367923299537  0.42816232058886067  0.6695550275575781  1.0000
  C   C54       1.0  0.8685052328355385  0.4999720656339052  0.6703282034119551  1.0000
  C   C55       1.0  0.7744165861252128  0.4349852261027324  0.6739483694112776  1.0000
  C   C56       1.0  0.8378429411815562  0.29829723850145473  0.6779243910807293  1.0000
  C   C57       1.0  0.256887092427242  0.8707581503987925  0.7055891390853473  1.0000
  C   C58       1.0  0.19750263658256978  0.0063150784611920975  0.7029508028544027  1.0000
  C   C59       1.0  0.06092162181783321  0.0807642517998275  0.6825195328516073  1.0000
  C   C60       1.0  0.9897867312127105  0.010749495202595896  0.6663340276751837  1.0000
  C   C61       1.0  0.05675982900569235  0.8753027463893587  0.6695250930979311  1.0000
  C   C62       1.0  0.28361571220121823  0.40234590386492636  0.9158030563041704  1.0000
  C   C63       1.0  0.2017536118180559  0.6239532748001296  0.7940700447283998  1.0000
  C   C64       1.0  0.1966978367687774  0.5809652871799003  0.8467542246709525  1.0000
  C   C65       1.0  0.2811026146332197  0.4486837323183935  0.8610129784825771  1.0000
  C   C66       1.0  0.3639473657681408  0.3648060438158112  0.8195148443833841  1.0000
  C   C67       1.0  0.3640687968354826  0.41593494135908315  0.7682011106012537  1.0000
  C   C68       1.0  0.3824643678819016  0.28367358556686645  0.9329762466745846  1.0000
  C   C69       1.0  0.12634604171981326  0.49678058045255824  0.6670091971060469  1.0000
  C   C70       1.0  0.5264246332044848  0.1023814119952178  0.05686291176010627  1.0000
  C   C71       1.0  0.520968076058118  0.14025858744097522  0.003932348647239789  1.0000
  C   C72       1.0  0.38706762597446004  0.24001164665986607  0.988042235514335  1.0000
  C   C73       1.0  0.26175523411334484  0.2928988913039134  0.02805971805328509  1.0000
  C   C74       1.0  0.27608575254647155  0.24898950379550663  0.07988908737510057  1.0000
  C   C75       1.0  0.6062324034937989  0.5100305570150069  0.6740037297302093  1.0000
  C   C76       1.0  0.10250160092223848  0.7252957912050989  0.17809556206776014  1.0000
  C   C77       1.0  0.9471266104317312  0.7921539635668039  0.17321000564177777  1.0000
  C   C78       1.0  0.8771017595195689  0.9286648307185887  0.16955090535260808  1.0000
  C   C79       1.0  0.9616439301007205  0.0004343912355366988  0.1703543412951233  1.0000
  C   C80       1.0  0.11706463815578898  0.9354725173850512  0.17406712560184448  1.0000
  C   C81       1.0  0.18633591848550435  0.7987964216935667  0.17810494229701848  1.0000
  C   C82       1.0  0.16683927688421116  0.37143393368086924  0.20547382751699664  1.0000
  C   C83       1.0  0.0933805687192617  0.5069943491957221  0.20285521589617864  1.0000
  C   C84       1.0  0.1761884692801916  0.5813418489116344  0.18258078290815394  1.0000
  C   C85       1.0  0.3336292542549162  0.511205371550787  0.16645385832713794  1.0000
  C   C86       1.0  0.39880478282100995  0.3757789931070903  0.16959380086193923  1.0000
  C   C87       1.0  0.3984261945021434  0.9023288984222115  0.4157047609213293  1.0000
  C   C88       1.0  0.3803458357440519  0.12399830333358611  0.2939983556164947  1.0000
  C   C89       1.0  0.37576157623573886  0.08092205053613812  0.34666633485534243  1.0000
  C   C90       1.0  0.40919714457975004  0.9486677827711246  0.36090583180548197  1.0000
  C   C91       1.0  0.4514779631877848  0.8648919840670929  0.3193952786752232  1.0000
  C   C92       1.0  0.4517778563836433  0.916086415673313  0.26808663498122337  1.0000
  C   C93       1.0  0.40089839734385196  0.783757420478274  0.43295858750660426  1.0000
  C   C94       1.0  0.7102985362921999  0.9972402077639657  0.16695413665094344  1.0000
  C   C95       1.0  0.3148840682056858  0.602191352390463  0.5568814801785746  1.0000
  C   C96       1.0  0.3351204977291078  0.6402568007166849  0.5039567458253129  1.0000
  C   C97       1.0  0.3851420292437596  0.7400092697638598  0.4880281477909277  1.0000
  C   C98       1.0  0.4177404980966843  0.7927503819388876  0.5280036170710928  1.0000
  C   C99       1.0  0.3958206146891785  0.7486237157410044  0.5798209327638942  1.0000
  C   C100      1.0  0.21021733992748895  0.010441976719775398  0.17404617616736562  1.0000
  N   N1        1.0  0.6826768828383011  0.6948150797323507  0.8118090959579971  1.0000
  N   N2        1.0  0.5848065558719427  0.9559903298361903  0.7453389985462021  1.0000
  N   N3        1.0  0.6569374922055645  0.3443411775041413  0.40508446701904427  1.0000
  N   N4        1.0  0.8099811732138277  0.195368752698009  0.31177378356722574  1.0000
  N   N5        1.0  0.7136536365478751  0.45612083441412915  0.24525313816870659  1.0000
  N   N6        1.0  0.5932099254129927  0.8439327633752713  0.9050654834466767  1.0000
  N   N7        1.0  0.19002224512398427  0.8046277547404587  0.6882239564045561  1.0000
  N   N8        1.0  0.28634215962027565  0.5438806226298425  0.7547487164509405  1.0000
  N   N9        1.0  0.4067969975652233  0.1560501562106253  0.0949385742756377  1.0000
  N   N10       1.0  0.31732090386034173  0.305197145186618  0.18819392419815267  1.0000
  N   N11       1.0  0.4151877069317109  0.0440121287470205  0.25466445023621986  1.0000
  N   N12       1.0  0.3430716451362701  0.6556563401496689  0.5949155062738853  1.0000
  O   O1        1.0  0.36143091578512093  0.0670727049202782  0.841686960585214  1.0000
  O   O2        1.0  0.3612649349581577  0.8811034910659713  0.8251279235999077  1.0000
  O   O3        1.0  0.644238063493873  0.05108569473208749  0.8362396235082837  1.0000
  O   O4        1.0  0.8524984209444711  0.869536214147047  0.8160634816305145  1.0000
  O   O5        1.0  0.7288731016237193  0.567510372501836  0.3415973475461768  1.0000
  O   O6        1.0  0.9317944648806673  0.3815932168268433  0.32509687098873735  1.0000
  O   O7        1.0  0.46761489078997454  0.5515477509006388  0.33608004312932127  1.0000
  O   O8        1.0  0.46084629247044984  0.3698891747073176  0.3162207859541723  1.0000
  O   O9        1.0  0.2711304015617061  0.43250080521373496  0.6584010833073036  1.0000
  O   O10       1.0  0.06821027582977744  0.6184238821046577  0.67490537226638  1.0000
  O   O11       1.0  0.532375424172308  0.4484606293402323  0.6639272022177349  1.0000
  O   O12       1.0  0.5391400294284879  0.6301210646353894  0.683780081259293  1.0000
  O   O13       1.0  0.6385687911086965  0.9328994995140008  0.1583193863130106  1.0000
  O   O14       1.0  0.638743841498453  0.11886941195232478  0.17485999707177058  1.0000
  O   O15       1.0  0.3557483923707353  0.9489391509879327  0.16375769280424624  1.0000
  O   O16       1.0  0.14747656426169445  0.1304632743811709  0.18393727126632334  1.0000
