data_image0
_chemical_formula_structural       Ag4H36C40N8O8
_chemical_formula_sum              "Ag4 H36 C40 N8 O8"
_cell_length_a       9.071204186911292
_cell_length_b       10.44732198800238
_cell_length_c       11.006599024679495
_cell_angle_alpha    90.0000075592662
_cell_angle_beta     112.3234004831587
_cell_angle_gamma    90.00006844230313

_space_group_name_H-M_alt    "P 1"
_space_group_IT_number       1

loop_
  _space_group_symop_operation_xyz
  'x, y, z'

loop_
  _atom_site_type_symbol
  _atom_site_label
  _atom_site_symmetry_multiplicity
  _atom_site_fract_x
  _atom_site_fract_y
  _atom_site_fract_z
  _atom_site_occupancy
  Ag  Ag1       1.0  0.658559376678767  0.61779793865999  0.5742625394876981  1.0000
  Ag  Ag2       1.0  0.6585612471361131  0.8822015478034045  0.07426307696183446  1.0000
  Ag  Ag3       1.0  0.3414367723868851  0.3822005452553867  0.42573285216732876  1.0000
  Ag  Ag4       1.0  0.34143728532635015  0.11779885047945272  0.9257330558800588  1.0000
  H   H1        1.0  0.9062724026473674  0.42236043448764365  0.7417994272471659  1.0000
  H   H2        1.0  0.9062749553761408  0.0776395227915856  0.24180013743468012  1.0000
  H   H3        1.0  0.0937142257463535  0.577635177873546  0.2581966378738727  1.0000
  H   H4        1.0  0.09371524811760419  0.9223647042193976  0.7581970394685272  1.0000
  H   H5        1.0  0.0791597343014985  0.25273567183206325  0.7098530240160272  1.0000
  H   H6        1.0  0.0791613758270344  0.24726342156954928  0.20985256426551047  1.0000
  H   H7        1.0  0.9208304853225754  0.7472580261651913  0.29014870064866466  1.0000
  H   H8        1.0  0.920828840578814  0.7527417626247869  0.7901482508499313  1.0000
  H   H9        1.0  0.8663527422938981  0.33041146022978307  0.29262565266120066  1.0000
  H   H10       1.0  0.8663521501596348  0.169586548215662  0.7926255194286895  1.0000
  H   H11       1.0  0.13365771359705994  0.6695851093272723  0.707376005216652  1.0000
  H   H12       1.0  0.1336583057353309  0.8304148072568723  0.2073761384507193  1.0000
  H   H13       1.0  0.7001518981315441  0.4961648595183306  0.3413235388946347  1.0000
  H   H14       1.0  0.700152223676689  0.0038348973131405997  0.8413245781157386  1.0000
  H   H15       1.0  0.29985853516703287  0.5038345815875545  0.6586717521132783  1.0000
  H   H16       1.0  0.2998594045481155  0.9961655009765523  0.15867199303859536  1.0000
  H   H17       1.0  0.596292013998017  0.3105382716673901  0.1068421805009834  1.0000
  H   H18       1.0  0.5962926500314226  0.18946134487709543  0.6068433403270745  1.0000
  H   H19       1.0  0.40370414797974524  0.6894611694313397  0.8931568493662851  1.0000
  H   H20       1.0  0.4037035151749677  0.8105390534047955  0.39315659909348005  1.0000
  H   H21       1.0  0.7647882950602778  0.4856569189957367  0.07930323192751838  1.0000
  H   H22       1.0  0.7647886349545346  0.014343826018048799  0.5793033684231687  1.0000
  H   H23       1.0  0.23521025676754445  0.5143415649213168  0.9206983582316467  1.0000
  H   H24       1.0  0.2352099168764923  0.9856584866313794  0.4206982217372399  1.0000
  H   H25       1.0  0.5572065588847792  0.4129386943304212  0.6608280506364679  1.0000
  H   H26       1.0  0.5572055522805002  0.08706184623324731  0.16082765516628678  1.0000
  H   H27       1.0  0.442793184643854  0.5870636183196609  0.3391739101170614  1.0000
  H   H28       1.0  0.4427929963202999  0.9129375948668396  0.8391730254402106  1.0000
  H   H29       1.0  0.394257397359155  0.24183160543977775  0.7057908595986787  1.0000
  H   H30       1.0  0.39425667695627453  0.25816781482357243  0.20579057529957373  1.0000
  H   H31       1.0  0.6057411480154187  0.7581697500264326  0.29420891145546335  1.0000
  H   H32       1.0  0.6057418684158976  0.7418306690933463  0.7942091957536305  1.0000
  H   H33       1.0  0.14556931346954372  0.1307149515690824  0.551370000893229  1.0000
  H   H34       1.0  0.145571162321751  0.36928514614844227  0.051370529975145  1.0000
  H   H35       1.0  0.8544328199043464  0.8692806608007474  0.44863452015033545  1.0000
  H   H36       1.0  0.8544309710593438  0.6307190808692483  0.9486339910712259  1.0000
  C   C1        1.0  0.8998617988962607  0.39840883176866976  0.6434124261256642  1.0000
  C   C2        1.0  0.8998631999892694  0.10159014808552057  0.14341278128154036  1.0000
  C   C3        1.0  0.10012958660600191  0.6015886949610945  0.3565823927095479  1.0000
  C   C4        1.0  0.10012938044082631  0.8984102501942389  0.8565833177007035  1.0000
  C   C5        1.0  0.9962432255551334  0.3037348577763127  0.6249103016352534  1.0000
  C   C6        1.0  0.9962459767038822  0.19626613404270185  0.1249110888963472  1.0000
  C   C7        1.0  0.0037517576331324996  0.6962607545896448  0.3750919958495729  1.0000
  C   C8        1.0  0.0037525783573712996  0.8037390501560823  0.8750914108179798  1.0000
  C   C9        1.0  0.9867377377351686  0.27581189870498696  0.4963664445198148  1.0000
  C   C10       1.0  0.9867396170951892  0.22418722014052153  0.9963661783952771  1.0000
  C   C11       1.0  0.013260801180550202  0.7241856280287139  0.5036315074271158  1.0000
  C   C12       1.0  0.013261305218137  0.7758131781437572  0.003632514738832498  1.0000
  C   C13       1.0  0.8771121634433429  0.34783890537521245  0.39312550063057466  1.0000
  C   C14       1.0  0.8771139255558822  0.15216104248957413  0.8931260972620053  1.0000
  C   C15       1.0  0.12289590582378199  0.6521567069973884  0.6068745065077366  1.0000
  C   C16       1.0  0.1228977155834343  0.8478431845327562  0.10687411210549409  1.0000
  C   C17       1.0  0.785604974610898  0.44016299799516656  0.42024281477696224  1.0000
  C   C18       1.0  0.785605393826856  0.05983590134198381  0.920243890383233  1.0000
  C   C19       1.0  0.21439950988553852  0.5598393146569762  0.5797533519252127  1.0000
  C   C20       1.0  0.21439909711962463  0.9401597110286205  0.07975409542272868  1.0000
  C   C21       1.0  0.5903484025502054  0.33653248316597484  0.009216403844675454  1.0000
  C   C22       1.0  0.5903489886487138  0.16346711372737127  0.5092157276758797  1.0000
  C   C23       1.0  0.4096489608078429  0.6634660007504962  0.9907857252743496  1.0000
  C   C24       1.0  0.4096495599536851  0.8365342417389031  0.49078495293124286  1.0000
  C   C25       1.0  0.6848266566043364  0.4338178184695068  0.9936804460670671  1.0000
  C   C26       1.0  0.6848268035465139  0.0661829006492738  0.493679498071529  1.0000
  C   C27       1.0  0.3151730869218881  0.5661816226312838  0.006321514685531295  1.0000
  C   C28       1.0  0.315172936754294  0.9338194120007371  0.5063215531290197  1.0000
  C   C29       1.0  0.6773287035756185  0.4669870715665284  0.8659480555322928  1.0000
  C   C30       1.0  0.6773287982642345  0.03301266494757021  0.36594799553873975  1.0000
  C   C31       1.0  0.3226710399522119  0.5330142839004495  0.1340539052209309  1.0000
  C   C32       1.0  0.3226733254293777  0.9669867761544496  0.6340537968471338  1.0000
  C   C33       1.0  0.5689994509059205  0.3931326748095501  0.7617337791756286  1.0000
  C   C34       1.0  0.5689984742015852  0.1068669347527731  0.2617324870204953  1.0000
  C   C35       1.0  0.4310002893932818  0.6068677234742735  0.23826727202430217  1.0000
  C   C36       1.0  0.43100007117138256  0.8931325063472432  0.7382672840330216  1.0000
  C   C37       1.0  0.47816074457154667  0.2982901422535562  0.7857318581734417  1.0000
  C   C38       1.0  0.4781611182031328  0.2017093762297294  0.2857309982323529  1.0000
  C   C39       1.0  0.5218378072586772  0.7017112132127892  0.21426973198666122  1.0000
  C   C40       1.0  0.5218374271690321  0.7982891076871964  0.7142687728208514  1.0000
  N   N1        1.0  0.7948305839116117  0.4668358754253105  0.5433809884368727  1.0000
  N   N2        1.0  0.7948306820818161  0.0331648958476833  0.04338183809486645  1.0000
  N   N3        1.0  0.2051727217961243  0.5331635656771567  0.4566184458831728  1.0000
  N   N4        1.0  0.20517262362751862  0.9668364596209786  0.9566175962257973  1.0000
  N   N5        1.0  0.4865333006712618  0.2681455878158587  0.9080041953645122  1.0000
  N   N6        1.0  0.4865337279519934  0.23185395624432917  0.4080042645618959  1.0000
  N   N7        1.0  0.513462858080274  0.7318557676490016  0.09199392495039396  1.0000
  N   N8        1.0  0.5134648141931493  0.7681454848556302  0.5919945969386403  1.0000
  O   O1        1.0  0.0743158397953323  0.18845410745483807  0.4676220176600551  1.0000
  O   O2        1.0  0.0743178652736063  0.31154405930928414  0.967621808293181  1.0000
  O   O3        1.0  0.9256851018801483  0.8115405477312478  0.5323821327900831  1.0000
  O   O4        1.0  0.9256842648788606  0.6884592105252381  0.032381803199896746  1.0000
  O   O5        1.0  0.7614955224081612  0.5578419759306713  0.842679849650139  1.0000
  O   O6        1.0  0.761496298225552  0.9421576545433795  0.3426791459327134  1.0000
  O   O7        1.0  0.2385054192721299  0.44215842235399083  0.1573243008018608  1.0000
  O   O8        1.0  0.2385058319245132  0.05784274374185829  0.6573244655594266  1.0000
