data_image0
_chemical_formula_structural       Dy2H8C24O16F12
_chemical_formula_sum              "Dy2 H8 C24 O16 F12"
_cell_length_a       8.817516138240483
_cell_length_b       8.820102696695612
_cell_length_c       11.1127346525908
_cell_angle_alpha    107.69518480988053
_cell_angle_beta     109.7858200041127
_cell_angle_gamma    100.94385338802837

_space_group_name_H-M_alt    "P 1"
_space_group_IT_number       1

loop_
  _space_group_symop_operation_xyz
  'x, y, z'

loop_
  _atom_site_type_symbol
  _atom_site_label
  _atom_site_symmetry_multiplicity
  _atom_site_fract_x
  _atom_site_fract_y
  _atom_site_fract_z
  _atom_site_occupancy
  Dy  Dy1       1.0  0.8710112850482332  0.6629962160883879  0.534241216102835  1.0000
  Dy  Dy2       1.0  0.1289886177082593  0.3370037330100785  0.4657593862399522  1.0000
  H   H1        1.0  0.6050624954488768  0.5940613575105544  0.6409288735112355  1.0000
  H   H2        1.0  0.9532888978561687  0.9646869389741968  0.35914761962579433  1.0000
  H   H3        1.0  0.39493741306092284  0.4059385884274604  0.3590708297630342  1.0000
  H   H4        1.0  0.0467085147859692  0.0353092479350821  0.6408523076729509  1.0000
  H   H5        1.0  0.716806948521679  0.7764766250704866  0.7446526216386857  1.0000
  H   H6        1.0  0.03200921898095997  0.9721991427724817  0.2552780778601473  1.0000
  H   H7        1.0  0.28319448992283475  0.2235207886786625  0.2553495958522518  1.0000
  H   H8        1.0  0.9679858786225284  0.027800853481672  0.7447212248534284  1.0000
  C   C1        1.0  0.5172182512978055  0.9801269178169393  0.621025103179555  1.0000
  C   C2        1.0  0.35906301070620117  0.8964216193173796  0.37892282382733805  1.0000
  C   C3        1.0  0.4827816744719087  0.019873018639707106  0.37897190288913407  1.0000
  C   C4        1.0  0.640936920816806  0.10357831397880797  0.6210732831728336  1.0000
  C   C5        1.0  0.3734471955402088  0.8735908358338167  0.499951022242442  1.0000
  C   C6        1.0  0.6265539257644407  0.12640909199436118  0.5000472078020762  1.0000
  C   C7        1.0  0.2389966748991696  0.7391997890586097  0.500057969540208  1.0000
  C   C8        1.0  0.7610032278573229  0.2608001600398566  0.4999426328025791  1.0000
  C   C9        1.0  0.6289876566623179  0.6648267873348458  0.29430233774665027  1.0000
  C   C10       1.0  0.371016629309544  0.335171852401281  0.7056982487550769  1.0000
  C   C11       1.0  0.5043474695276942  0.652329172928212  0.15714351703331172  1.0000
  C   C12       1.0  0.49565527500284645  0.3476720053176905  0.8428563533887896  1.0000
  C   C13       1.0  0.5473958896715415  0.7521730727597101  0.08834026782508896  1.0000
  C   C14       1.0  0.6642232773267978  0.45955361997989286  0.9116240067017995  1.0000
  C   C15       1.0  0.45260641566144955  0.2478268527609089  0.9116609843323077  1.0000
  C   C16       1.0  0.3357809441204296  0.540441221347372  0.08837295829638955  1.0000
  C   C17       1.0  0.42973323868711316  0.7437798817168967  0.9635078691398461  1.0000
  C   C18       1.0  0.7806767346386323  0.46681763059825687  0.03649214323364441  1.0000
  C   C19       1.0  0.5702646776772015  0.2562213563265204  0.036494297927141914  1.0000
  C   C20       1.0  0.2193230920866185  0.5331785264122573  0.9635066357426537  1.0000
  C   C21       1.0  0.2621385861937284  0.6365177484237917  0.8991830640340481  1.0000
  C   C22       1.0  0.7378596818302726  0.36348095657785956  0.10081769606820501  1.0000
  C   C23       1.0  0.13217281156057933  0.6355986526989453  0.7682114588277215  1.0000
  C   C24       1.0  0.8678255440012776  0.36440383806974797  0.23178932650397133  1.0000
  O   O1        1.0  0.1284345332434499  0.7865991979713629  0.5354136522193258  1.0000
  O   O2        1.0  0.2511421005182298  0.5933571704576222  0.464779059634246  1.0000
  O   O3        1.0  0.8715681940271692  0.2134019897559085  0.46458891540835606  1.0000
  O   O4        1.0  0.7488566009500063  0.406642790429764  0.5352212178012437  1.0000
  O   O5        1.0  0.6820018116667795  0.6978763503737679  0.6496486243833104  1.0000
  O   O6        1.0  0.04833094040217391  0.032665692588274495  0.35022029030481855  1.0000
  O   O7        1.0  0.31799534836012816  0.30212614902339396  0.3503509369725605  1.0000
  O   O8        1.0  0.9516649250453284  0.9673330359912313  0.6497798199828323  1.0000
  O   O9        1.0  0.5834273542281565  0.5706083560400685  0.35192333594763164  1.0000
  O   O10       1.0  0.21927226553141574  0.2319100466843906  0.6480580667397859  1.0000
  O   O11       1.0  0.4165737670764925  0.4293915717881091  0.6480748940968863  1.0000
  O   O12       1.0  0.7807344172636449  0.7680885726343476  0.3519440686450679  1.0000
  O   O13       1.0  0.04714465675331067  0.7340370901533291  0.7814917786381201  1.0000
  O   O14       1.0  0.9528492453152283  0.2659629147293003  0.21850630009962654  1.0000
  O   O15       1.0  0.11320354309422949  0.536309988493521  0.6498308602100593  1.0000
  O   O16       1.0  0.8868021192415939  0.463696210987763  0.3501701016578521  1.0000
  F   F1        1.0  0.5409768707663288  0.9640322404795613  0.7429971626200215  1.0000
  F   F2        1.0  0.2209593457935028  0.7986658593765057  0.25696042461574115  1.0000
  F   F3        1.0  0.45902236319061274  0.0359727557396923  0.2570008592410886  1.0000
  F   F4        1.0  0.7790343036598131  0.20134045799400724  0.7430372881791313  1.0000
  F   F5        1.0  0.7058663369593958  0.8611959099207168  0.1392106693647719  1.0000
  F   F6        1.0  0.7223699772166724  0.5671137521314904  0.8607017981171337  1.0000
  F   F7        1.0  0.29413589234235354  0.1388002235119501  0.8607887594261285  1.0000
  F   F8        1.0  0.2776386862172657  0.43288358140275557  0.13929967161205067  1.0000
  F   F9        1.0  0.4816983553979881  0.8420163328325786  0.9032705170154641  1.0000
  F   F10       1.0  0.9390466545397872  0.5791697704145378  0.09682148541494229  1.0000
  F   F11       1.0  0.5182951189796228  0.1579824130038574  0.09672714532052845  1.0000
  F   F12       1.0  0.060954004554105295  0.42082891733018357  0.903181722638969  1.0000
