data_image0
_chemical_formula_structural       Cu2H8C12N4Cl4
_chemical_formula_sum              "Cu2 H8 C12 N4 Cl4"
_cell_length_a       3.79429317550409
_cell_length_b       7.8035095715133345
_cell_length_c       13.794291177007375
_cell_angle_alpha    97.29624566829649
_cell_angle_beta     95.50215041322323
_cell_angle_gamma    96.95548608216777

_space_group_name_H-M_alt    "P 1"
_space_group_IT_number       1

loop_
  _space_group_symop_operation_xyz
  'x, y, z'

loop_
  _atom_site_type_symbol
  _atom_site_label
  _atom_site_symmetry_multiplicity
  _atom_site_fract_x
  _atom_site_fract_y
  _atom_site_fract_z
  _atom_site_occupancy
  Cu  Cu1       1.0  0.6933380261815996  0.991919487854446  0.11579069065921742  1.0000
  Cu  Cu2       1.0  0.3066734633943042  0.008076834161578  0.884205967247162  1.0000
  H   H1        1.0  0.6210672077665504  0.97874833726717  0.3257711005211306  1.0000
  H   H2        1.0  0.37892247505970994  0.0212557206296538  0.6742255551465987  1.0000
  H   H3        1.0  0.7836108343629816  0.6226718902270819  0.089435104354223  1.0000
  H   H4        1.0  0.21638943154965054  0.3773218052845166  0.9105639888765891  1.0000
  H   H5        1.0  0.6328730713009916  0.7538600238451635  0.4407158417581413  1.0000
  H   H6        1.0  0.3671113555802492  0.24614402958302153  0.5592828571796673  1.0000
  H   H7        1.0  0.8243981243099866  0.3858001646330039  0.19483690518473648  1.0000
  H   H8        1.0  0.17560551856850276  0.6141961630789794  0.805164631806413  1.0000
  C   C1        1.0  0.6606576980026517  0.8452176158093464  0.3001709382926451  1.0000
  C   C2        1.0  0.33933455744409713  0.15477603084291763  0.6998250516324943  1.0000
  C   C3        1.0  0.754074143843731  0.6457712697235108  0.1675780941007474  1.0000
  C   C4        1.0  0.24592227478234463  0.3542276514941278  0.832425619159757  1.0000
  C   C5        1.0  0.6708058805939956  0.7206941153130157  0.363678872768638  1.0000
  C   C6        1.0  0.32918316489922717  0.2793073498145518  0.636319760042646  1.0000
  C   C7        1.0  0.7740652574978242  0.5144699072397358  0.22604439632450382  1.0000
  C   C8        1.0  0.22593444876584803  0.4855316164208433  0.7739574066651969  1.0000
  C   C9        1.0  0.7278407627435115  0.5519423808212734  0.3257802423193752  1.0000
  C   C10       1.0  0.2721565895500433  0.4480604221108991  0.6742194167180101  1.0000
  C   C11       1.0  0.7365112785668727  0.4176076175221866  0.3870155688837968  1.0000
  C   C12       1.0  0.2634865040535246  0.5823965189914093  0.6129885441207535  1.0000
  N   N1        1.0  0.6973311017254247  0.8072535046854056  0.20388325082871722  1.0000
  N   N2        1.0  0.3026682039874941  0.1927466953128913  0.7961155495375394  1.0000
  N   N3        1.0  0.7429366628204476  0.30649285030500556  0.43605027516637307  1.0000
  N   N4        1.0  0.2570686999389906  0.6935100014865014  0.5639524871766852  1.0000
  Cl  Cl1       1.0  0.2845248322846316  0.8128788034659991  0.9973768542793165  1.0000
  Cl  Cl2       1.0  0.715489633706369  0.18711882708812774  0.002619244763963011  1.0000
  Cl  Cl3       1.0  0.19584821634416727  0.14025203263905434  0.2060324053621869  1.0000
  Cl  Cl4       1.0  0.8041642962274691  0.8597482008489407  0.7939645523522216  1.0000
