data_image0
_chemical_formula_structural       Cu2H44C36N4O12
_chemical_formula_sum              "Cu2 H44 C36 N4 O12"
_cell_length_a       9.915303559822824
_cell_length_b       9.915309586057669
_cell_length_c       11.20068236671592
_cell_angle_alpha    68.81758298880222
_cell_angle_beta     68.81761070879138
_cell_angle_gamma    67.84696254782077

_space_group_name_H-M_alt    "P 1"
_space_group_IT_number       1

loop_
  _space_group_symop_operation_xyz
  'x, y, z'

loop_
  _atom_site_type_symbol
  _atom_site_label
  _atom_site_symmetry_multiplicity
  _atom_site_fract_x
  _atom_site_fract_y
  _atom_site_fract_z
  _atom_site_occupancy
  Cu  Cu1       1.0  0.05050266382497878  0.9494971244316801  0.2499999734558358  1.0000
  Cu  Cu2       1.0  0.9494958246843693  0.050504428441818995  0.7499991480784235  1.0000
  H   H1        1.0  0.1381684832937822  0.6608536189086182  0.18656889504813998  1.0000
  H   H2        1.0  0.6608539234006513  0.1381696272253308  0.6865694287173626  1.0000
  H   H3        1.0  0.8618317213380848  0.3391456750348212  0.8134304002840409  1.0000
  H   H4        1.0  0.33914672979600624  0.8618319190903494  0.31342810901961127  1.0000
  H   H5        1.0  0.35980547514584055  0.430303897790239  0.18298198009363634  1.0000
  H   H6        1.0  0.43030438557530454  0.3598067907315396  0.6829813731581994  1.0000
  H   H7        1.0  0.6401947298035396  0.5696953964701664  0.8170182078382455  1.0000
  H   H8        1.0  0.5696955019290043  0.6401936307997503  0.3170167698759202  1.0000
  H   H9        1.0  0.8405986065623665  0.11530381202685905  0.0808243065445852  1.0000
  H   H10       1.0  0.11530313402819563  0.8406007854363792  0.5808235603678682  1.0000
  H   H11       1.0  0.15940096476690263  0.8846977380431795  0.9191753619905756  1.0000
  H   H12       1.0  0.8846975201209942  0.1594007618301987  0.41917665516820085  1.0000
  H   H13       1.0  0.6174408440267882  0.34266444069113794  0.07126655599776643  1.0000
  H   H14       1.0  0.34266379371760536  0.6174427769052074  0.5712651195070323  1.0000
  H   H15       1.0  0.38255796161011796  0.6573359845945106  0.9287337178345468  1.0000
  H   H16       1.0  0.6573346951092489  0.38255877628525775  0.4287348946269205  1.0000
  H   H17       1.0  0.023953105972516694  0.3695930943518491  0.11107366579414454  1.0000
  H   H18       1.0  0.369593591393766  0.023953668195048305  0.611074271539863  1.0000
  H   H19       1.0  0.9760470986593502  0.6304061995915832  0.8889256295380439  1.0000
  H   H20       1.0  0.630407379565476  0.9760467511667128  0.38892620369457404  1.0000
  H   H21       1.0  0.18444780716114198  0.42228728184824155  0.9924503815478973  1.0000
  H   H22       1.0  0.4222881763024659  0.184446631276181  0.49245148546536655  1.0000
  H   H23       1.0  0.8155534799731399  0.5777120089747714  0.007548568185498438  1.0000
  H   H24       1.0  0.5777120289644203  0.8155526633011904  0.5075495950662089  1.0000
  H   H25       1.0  0.15409755231402045  0.400587272241367  0.1657574185975506  1.0000
  H   H26       1.0  0.4005882666963742  0.15409561065027333  0.6657577445622209  1.0000
  H   H27       1.0  0.8459040519478265  0.599410890993788  0.8342426834339065  1.0000
  H   H28       1.0  0.599411938570512  0.8459036839270909  0.33424333596936157  1.0000
  H   H29       1.0  0.42208450296969596  0.20266253518337143  0.15679809831603117  1.0000
  H   H30       1.0  0.20266427785634986  0.422084633309197  0.6567973830698081  1.0000
  H   H31       1.0  0.5779146194772693  0.7973367621974604  0.8432024352146429  1.0000
  H   H32       1.0  0.7973380924153659  0.5779146550273211  0.34320300626419  1.0000
  H   H33       1.0  0.4479242126150353  0.23456164996974851  0.9826615871169935  1.0000
  H   H34       1.0  0.23456131627745697  0.4479256936602951  0.48266031409512794  1.0000
  H   H35       1.0  0.5520756755242856  0.7654387721954735  0.017338341116527503  1.0000
  H   H36       1.0  0.7654393375542269  0.5520758532893169  0.5173390088412476  1.0000
  H   H37       1.0  0.4678135635765202  0.0489715527969068  0.09064138729637963  1.0000
  H   H38       1.0  0.04896854303559193  0.4678149085988821  0.59064353121655  1.0000
  H   H39       1.0  0.5321877235577618  0.9510277380261059  0.9093575624370163  1.0000
  H   H40       1.0  0.9510288639238664  0.5321866483459348  0.4093586137155967  1.0000
  H   H41       1.0  0.17732119196522686  0.16020450024691973  0.30626131951462554  1.0000
  H   H42       1.0  0.16020648860371267  0.17731982783606534  0.8062610641269999  1.0000
  H   H43       1.0  0.822679329794205  0.839793666108669  0.6937391281156168  1.0000
  H   H44       1.0  0.8397951156581274  0.8226783353990897  0.19373903790445027  1.0000
  C   C1        1.0  0.20729800427724854  0.13211417925833055  0.0132634819324338  1.0000
  C   C2        1.0  0.1321122144146045  0.207298348549692  0.5132621424557797  1.0000
  C   C3        1.0  0.792702966364487  0.8678862397864648  0.9867361007022952  1.0000
  C   C4        1.0  0.8678869077148477  0.7927009485141665  0.48673749847520076  1.0000
  C   C5        1.0  0.2349665763803017  0.1893414170730736  0.11121391476428502  1.0000
  C   C6        1.0  0.1893404236372191  0.23496729447892045  0.6112139389427613  1.0000
  C   C7        1.0  0.7650336285690783  0.8106578771873317  0.888786273167604  1.0000
  C   C8        1.0  0.8106594645021018  0.7650331276863016  0.38878598929075997  1.0000
  C   C9        1.0  0.23817660997465134  0.6510459231157953  0.21230108461201516  1.0000
  C   C10       1.0  0.6510462011316988  0.23817698860655412  0.7123009464110696  1.0000
  C   C11       1.0  0.7618225124723139  0.34895337426503664  0.7876994489186587  1.0000
  C   C12       1.0  0.3489526038701953  0.7618234360451621  0.2876975422218494  1.0000
  C   C13       1.0  0.36219377951253046  0.5241374187165562  0.2100601042362556  1.0000
  C   C14       1.0  0.5241388227782551  0.3621952009284187  0.7100591971703027  1.0000
  C   C15       1.0  0.6378053429344348  0.4758618786642758  0.7899404292944185  1.0000
  C   C16       1.0  0.475861065043553  0.6378052209198373  0.2899398384635177  1.0000
  C   C17       1.0  0.4846115369787327  0.5153874538582812  0.2500012503691309  1.0000
  C   C18       1.0  0.5153872689756867  0.4846129717443262  0.7499999160628834  1.0000
  C   C19       1.0  0.7968227869619466  0.17942785147474186  0.15486585980633555  1.0000
  C   C20       1.0  0.17942877774748917  0.7968232822346125  0.6548642782388543  1.0000
  C   C21       1.0  0.20317710149488022  0.8205725710074461  0.8451349610268866  1.0000
  C   C22       1.0  0.8205714272018908  0.2031760120257928  0.3451359096930276  1.0000
  C   C23       1.0  0.6712367476420197  0.30483741897901956  0.15161091995764064  1.0000
  C   C24       1.0  0.3048367239708086  0.6712360596964758  0.6516112036087592  1.0000
  C   C25       1.0  0.32876282432226134  0.6951641317249512  0.8483905337769218  1.0000
  C   C26       1.0  0.6951616334188131  0.32876211353389106  0.34839172041846217  1.0000
  C   C27       1.0  0.6176937015403609  0.38230395314003124  0.2500017176655689  1.0000
  C   C28       1.0  0.3823046558492679  0.6176942200903356  0.7500012063616597  1.0000
  C   C29       1.0  0.14399551326587806  0.35654164818430445  0.0934624952017344  1.0000
  C   C30       1.0  0.3565412399957707  0.14399590165598405  0.5934625141551992  1.0000
  C   C31       1.0  0.8560046916835019  0.6434576460760938  0.9065376927301471  1.0000
  C   C32       1.0  0.6434586484610563  0.8560045208262039  0.4065383066780231  1.0000
  C   C33       1.0  0.4040637503499624  0.1681452968362791  0.08226110317995955  1.0000
  C   C34       1.0  0.16814507989363392  0.4040656495359514  0.5822604441199247  1.0000
  C   C35       1.0  0.5959367714094697  0.8318528695193024  0.9177393444502829  1.0000
  C   C36       1.0  0.831854491753141  0.595935900851053  0.4177401170149367  1.0000
  N   N1        1.0  0.8696787132193009  0.1303204420768438  0.2500004191504744  1.0000
  N   N2        1.0  0.13032149173007204  0.8696788521835616  0.7499997687814073  1.0000
  N   N3        1.0  0.23192502236850737  0.7680739748855743  0.2499993877421787  1.0000
  N   N4        1.0  0.7680737829508929  0.23192645008310817  0.749999993490434  1.0000
  O   O1        1.0  0.137038440624714  0.03152903452341601  0.056171003875675814  1.0000
  O   O2        1.0  0.0315265906643489  0.1370400608578493  0.5561720786426038  1.0000
  O   O3        1.0  0.8629589653822194  0.9684725214705096  0.9438284632573685  1.0000
  O   O4        1.0  0.9684722152900707  0.8629603647447581  0.4438290877894106  1.0000
  O   O5        1.0  0.18345589663744016  0.10419920070924599  0.2436561078354984  1.0000
  O   O6        1.0  0.10419907275905163  0.18345678378653218  0.7436566835990774  1.0000
  O   O7        1.0  0.8165432254920122  0.8958000963546127  0.756343533095475  1.0000
  O   O8        1.0  0.8958018978826842  0.8165436352582632  0.25634289903565843  1.0000
  O   O9        1.0  0.2529663844001249  0.1918472658328483  0.891298743749552  1.0000
  O   O10       1.0  0.191850412855409  0.25296442215633164  0.3912975039129735  1.0000
  O   O11       1.0  0.747036302364137  0.8081508942818872  0.10870101268310596  1.0000
  O   O12       1.0  0.8081533567287734  0.7470337351549434  0.6087027995205931  1.0000
