data_image0
_chemical_formula_structural       Cu2H12C24S2N6O2
_chemical_formula_sum              "Cu2 H12 C24 S2 N6 O2"
_cell_length_a       5.669665827335032
_cell_length_b       7.674680791535435
_cell_length_c       12.58203490783165
_cell_angle_alpha    88.62891393677879
_cell_angle_beta     90.01364273246405
_cell_angle_gamma    90.03729281307766

_space_group_name_H-M_alt    "P 1"
_space_group_IT_number       1

loop_
  _space_group_symop_operation_xyz
  'x, y, z'

loop_
  _atom_site_type_symbol
  _atom_site_label
  _atom_site_symmetry_multiplicity
  _atom_site_fract_x
  _atom_site_fract_y
  _atom_site_fract_z
  _atom_site_occupancy
  Cu  Cu1       1.0  0.1330741362629411  0.4701497159794669  0.021766120727740205  1.0000
  Cu  Cu2       1.0  0.864356888236365  0.9725312134443981  0.52554069920226  1.0000
  H   H1        1.0  0.036301708783994996  0.37081478280146746  0.26936042075569594  1.0000
  H   H2        1.0  0.962821911897059  0.8646026614866072  0.22227205181653187  1.0000
  H   H3        1.0  0.9648872610096219  0.8715628342477401  0.769432881506191  1.0000
  H   H4        1.0  0.03717118695416839  0.36882300429433457  0.724620066110042  1.0000
  H   H5        1.0  0.6957798861779949  0.2217859990342887  0.3529118732957103  1.0000
  H   H6        1.0  0.31364987342098516  0.7274479973248092  0.14445915839004192  1.0000
  H   H7        1.0  0.3054953686823154  0.7223969878051832  0.8525814462578298  1.0000
  H   H8        1.0  0.6866549974997653  0.2324970802205257  0.645502855503736  1.0000
  H   H9        1.0  0.39436624018996  0.07012030075077288  0.24071490521510702  1.0000
  H   H10       1.0  0.6114376489652429  0.5736335964190784  0.26232450677726155  1.0000
  H   H11       1.0  0.6059481641756932  0.5711415405598856  0.739767400916854  1.0000
  H   H12       1.0  0.38935841429344714  0.0751412326136531  0.7616724564399179  1.0000
  C   C1        1.0  0.6293139413162123  0.6068187283119997  0.9981020697300169  1.0000
  C   C2        1.0  0.369273197121352  0.1095244261587993  0.5000494700210754  1.0000
  C   C3        1.0  0.9091562725234253  0.30213567726973883  0.2205737129693618  1.0000
  C   C4        1.0  0.0910828299546012  0.7991276553415362  0.2741119464808079  1.0000
  C   C5        1.0  0.09182092286700082  0.8033049199232918  0.720444604056077  1.0000
  C   C6        1.0  0.9092352829306591  0.30146677227615726  0.7757148780450438  1.0000
  C   C7        1.0  0.716059324735582  0.2175482686069614  0.26706119375902665  1.0000
  C   C8        1.0  0.2890471359052071  0.7193317325124936  0.23012838745057715  1.0000
  C   C9        1.0  0.28482519189750377  0.7186223544251716  0.7667431642700608  1.0000
  C   C10       1.0  0.7114700349380741  0.22212409169870986  0.7311054075878474  1.0000
  C   C11       1.0  0.5491143652885809  0.1310881058825757  0.2045240358707049  1.0000
  C   C12       1.0  0.45493954963065153  0.6337063268680365  0.29574110111751395  1.0000
  C   C13       1.0  0.4512059840439164  0.6325608183994048  0.7039183975578709  1.0000
  C   C14       1.0  0.5455756484628294  0.13459269561628423  0.7959016329813695  1.0000
  C   C15       1.0  0.5901521100971293  0.13086212016872165  0.09565286961579743  1.0000
  C   C16       1.0  0.4112920855733718  0.6332172984173782  0.4043525976959756  1.0000
  C   C17       1.0  0.4096071390448657  0.6330677522077651  0.5951225858140533  1.0000
  C   C18       1.0  0.5888293127883982  0.13192736239920316  0.904605181029169  1.0000
  C   C19       1.0  0.7898423192086311  0.21901349736773304  0.05647897306288741  1.0000
  C   C20       1.0  0.2092865045301906  0.7207193346193675  0.4399386459673096  1.0000
  C   C21       1.0  0.2100938156778369  0.7213605338651019  0.5558087110862148  1.0000
  C   C22       1.0  0.7907126007839478  0.21891758365844538  0.9407783959988197  1.0000
  C   C23       1.0  0.4551326868812921  0.06504765175177599  0.0008387294978220002  1.0000
  C   C24       1.0  0.5445626228897424  0.5669459738649819  0.5006315179957569  1.0000
  S   S1        1.0  0.8807215309701135  0.7094776270075515  0.9962060278591028  1.0000
  S   S2        1.0  0.11776625226335108  0.21170079964166888  0.4977412247045977  1.0000
  N   N1        1.0  0.44557900287227875  0.5328750867516162  0.9996369767849418  1.0000
  N   N2        1.0  0.5530606093962903  0.03585806061610701  0.5018241730471189  1.0000
  N   N3        1.0  0.9471886068834863  0.3066272836962298  0.11377243762780864  1.0000
  N   N4        1.0  0.0488738750073381  0.8026675676689125  0.3798652440191718  1.0000
  N   N5        1.0  0.05322963413872368  0.8084116426999303  0.6136114143321622  1.0000
  N   N6        1.0  0.9511672255445589  0.3025324314346278  0.881538572017121  1.0000
  O   O1        1.0  0.27590893496659413  0.9755249276163693  0.0022014306253482006  1.0000
  O   O2        1.0  0.7235699633020402  0.4773103863565281  0.5023376375783642  1.0000
