data_image0
_chemical_formula_structural       H40Pb4C56S8N8O28
_chemical_formula_sum              "H40 Pb4 C56 S8 N8 O28"
_cell_length_a       8.0108580923565
_cell_length_b       13.509974078686842
_cell_length_c       16.09665516501173
_cell_angle_alpha    89.99957021853514
_cell_angle_beta     93.11627330164146
_cell_angle_gamma    89.99894150133284

_space_group_name_H-M_alt    "P 1"
_space_group_IT_number       1

loop_
  _space_group_symop_operation_xyz
  'x, y, z'

loop_
  _atom_site_type_symbol
  _atom_site_label
  _atom_site_symmetry_multiplicity
  _atom_site_fract_x
  _atom_site_fract_y
  _atom_site_fract_z
  _atom_site_occupancy
  H   H1        1.0  0.2163820768258731  0.901909809223369  0.592564799738888  1.0000
  H   H2        1.0  0.28361815038048377  0.40191596431018445  0.4074321512606789  1.0000
  H   H3        1.0  0.7837230388019094  0.09805546968103582  0.4074391757898186  1.0000
  H   H4        1.0  0.7162856882714265  0.598062639250095  0.5925601815973709  1.0000
  H   H5        1.0  0.20201777306915852  0.8238324356017089  0.6651243513015361  1.0000
  H   H6        1.0  0.2979986743499055  0.3238353772077147  0.334876636675567  1.0000
  H   H7        1.0  0.7980798425477572  0.17614764720591583  0.3348831493236447  1.0000
  H   H8        1.0  0.7019139158985438  0.6761469272640993  0.6651177960172917  1.0000
  H   H9        1.0  0.061325981259002994  0.5124136225465321  0.343111387798274  1.0000
  H   H10       1.0  0.4386590508018529  0.0124187985200948  0.6568838858255931  1.0000
  H   H11       1.0  0.9386853743190002  0.4876005096504484  0.6568975130325044  1.0000
  H   H12       1.0  0.5613585540580956  0.9875805297890423  0.3431195924246212  1.0000
  H   H13       1.0  0.15291036269548644  0.565466390041017  0.2041799833279186  1.0000
  H   H14       1.0  0.34708549512694725  0.06546542031883719  0.7958177322871554  1.0000
  H   H15       1.0  0.8470722360721935  0.4345358992665211  0.795816959276131  1.0000
  H   H16       1.0  0.6529271096667842  0.9345353883980182  0.20418747480518828  1.0000
  H   H17       1.0  0.1488171992363263  0.7425594557171492  0.16397184584249666  1.0000
  H   H18       1.0  0.35117056287884196  0.242558822566167  0.8360288815762051  1.0000
  H   H19       1.0  0.8511666478055346  0.2574406130294093  0.8360189179743076  1.0000
  H   H20       1.0  0.6488157876925554  0.7574434667007778  0.16397251097561147  1.0000
  H   H21       1.0  0.048047003566502204  0.871343695296403  0.2602963662011178  1.0000
  H   H22       1.0  0.45194169107214316  0.3713428047698244  0.739709785449904  1.0000
  H   H23       1.0  0.9519543450777446  0.1286674762647451  0.7396936272540275  1.0000
  H   H24       1.0  0.5480296568458839  0.6286617051746644  0.2602887173569571  1.0000
  H   H25       1.0  0.8976883127403568  0.8700024411446491  0.040361157645925516  1.0000
  H   H26       1.0  0.6023068200576062  0.3699968002451612  0.9596379791602705  1.0000
  H   H27       1.0  0.1023005370768502  0.1300065098668313  0.9596371960754059  1.0000
  H   H28       1.0  0.39768828151967034  0.6299980870363486  0.040363028257139916  1.0000
  H   H29       1.0  0.8850545148769624  0.687533477870211  0.07206916596754102  1.0000
  H   H30       1.0  0.6149451355438275  0.18752797961462161  0.9279349726681833  1.0000
  H   H31       1.0  0.11495683812495368  0.3124739926207028  0.9279310373555776  1.0000
  H   H32       1.0  0.385047466096104  0.8124676478693613  0.07206720979642263  1.0000
  H   H33       1.0  0.833685811300704  0.5659522174740843  0.9610798713084068  1.0000
  H   H34       1.0  0.6663164320490935  0.0659503722418293  0.0389275901612152  1.0000
  H   H35       1.0  0.1663342940477648  0.43404785101201065  0.038924295646076204  1.0000
  H   H36       1.0  0.33368242055410485  0.9340452552040333  0.9610753821922987  1.0000
  H   H37       1.0  0.7909365882091564  0.6199783885385841  0.8120236105508598  1.0000
  H   H38       1.0  0.7090589465458238  0.1199762220189129  0.18798146496275345  1.0000
  H   H39       1.0  0.20905851361081323  0.380025381063831  0.18797863933922093  1.0000
  H   H40       1.0  0.29094740673345854  0.8800231063566386  0.8120210884892318  1.0000
  Pb  Pb1       1.0  0.867328616807157  0.9272866843058408  0.5990084650441504  1.0000
  Pb  Pb2       1.0  0.6326747010018535  0.4272997495939633  0.40097251455147653  1.0000
  Pb  Pb3       1.0  0.1327102389602928  0.07270006061497722  0.4009893740932712  1.0000
  Pb  Pb4       1.0  0.3672928954121701  0.5726736722513408  0.5990209171667973  1.0000
  C   C1        1.0  0.0072782275575136  0.6638337444069078  0.37834860334261583  1.0000
  C   C2        1.0  0.49271702211454027  0.16383937608894433  0.6216497170534584  1.0000
  C   C3        1.0  0.9927193725155445  0.3361789075354977  0.621647501447761  1.0000
  C   C4        1.0  0.5072905816553542  0.8361629130494778  0.3783541126197535  1.0000
  C   C5        1.0  0.058341416572126506  0.590201432480974  0.3252946399044917  1.0000
  C   C6        1.0  0.44164490820917734  0.09020419603104561  0.6747020410384367  1.0000
  C   C7        1.0  0.94166493686798  0.40981195957257194  0.6747091560015905  1.0000
  C   C8        1.0  0.5583526939311836  0.9097988333633608  0.3253002763089655  1.0000
  C   C9        1.0  0.1097690885603768  0.6207500361632083  0.24738103857664848  1.0000
  C   C10       1.0  0.3902212710658475  0.12074971399646732  0.7526143157919664  1.0000
  C   C11       1.0  0.8902285122159128  0.3792544736383192  0.7526169299996683  1.0000
  C   C12       1.0  0.6097750809552522  0.8792510948233951  0.2473879678360619  1.0000
  C   C13       1.0  0.10773780703947719  0.7208362024738192  0.22478148600068695  1.0000
  C   C14       1.0  0.39224313974154507  0.22083417606435057  0.7752160885226902  1.0000
  C   C15       1.0  0.8922597923610522  0.27917052792870567  0.7752121338019011  1.0000
  C   C16       1.0  0.6077344589716205  0.7791688534570438  0.22478258292613876  1.0000
  C   C17       1.0  0.053239551128669384  0.7937860700740272  0.2788666145040254  1.0000
  C   C18       1.0  0.4467503428888832  0.2937861427461215  0.721135089376432  1.0000
  C   C19       1.0  0.9467580486432109  0.2062214005168315  0.7211282478004153  1.0000
  C   C20       1.0  0.5532310072215552  0.7062183671279526  0.27886678951035304  1.0000
  C   C21       1.0  0.0034957339864832002  0.7641841661005556  0.35653986711763974  1.0000
  C   C22       1.0  0.4965075968533057  0.2641873409015787  0.6434617649764507  1.0000
  C   C23       1.0  0.9965006143883244  0.23582922606495063  0.6434512339247294  1.0000
  C   C24       1.0  0.5034937567545157  0.7358127276822798  0.3565437598248168  1.0000
  C   C25       1.0  0.9426528558827698  0.8260470245430014  0.4253404426478725  1.0000
  C   C26       1.0  0.5573661715724397  0.3260497534114748  0.5746689351021246  1.0000
  C   C27       1.0  0.05734974271260279  0.1739648872077169  0.5746489632796996  1.0000
  C   C28       1.0  0.442647685697338  0.6739495748773406  0.4253437607498968  1.0000
  C   C29       1.0  0.847139279827381  0.8435117549670395  0.908540275265395  1.0000
  C   C30       1.0  0.6528641913957854  0.34351107088045285  0.09146049629220702  1.0000
  C   C31       1.0  0.1528545714201002  0.15649423522959446  0.09146069838489274  1.0000
  C   C32       1.0  0.34714091081831105  0.6564852967405342  0.908538917181794  1.0000
  C   C33       1.0  0.8723068463517051  0.8156355461779438  0.9911935216044374  1.0000
  C   C34       1.0  0.6276975066381566  0.3156336567625857  0.008809934799401712  1.0000
  C   C35       1.0  0.12768950486820776  0.1843674832346025  0.0088062770066202  1.0000
  C   C36       1.0  0.37229884487854287  0.6843627109023629  0.9911904850877777  1.0000
  C   C37       1.0  0.8669585914834882  0.7139003082927857  0.008247847024939903  1.0000
  C   C38       1.0  0.6330402261620236  0.2138992222518397  0.9917579663389164  1.0000
  C   C39       1.0  0.13304651196601472  0.2861027210536449  0.9917559151909504  1.0000
  C   C40       1.0  0.36695362559716926  0.7860986258066872  0.008244249845056105  1.0000
  C   C41       1.0  0.8378512945718126  0.6440664063847804  0.9448196575491824  1.0000
  C   C42       1.0  0.6621472297871092  0.1440629820033976  0.055186588978493524  1.0000
  C   C43       1.0  0.16214880899130424  0.35593884356047306  0.05518645475843442  1.0000
  C   C44       1.0  0.3378578734080051  0.8559319052160034  0.944815930762083  1.0000
  C   C45       1.0  0.8138437305962825  0.6737553450200692  0.8618342711082791  1.0000
  C   C46       1.0  0.6861488540783682  0.17375387607417284  0.13816914266643476  1.0000
  C   C47       1.0  0.1861501210576435  0.3262491647832917  0.13816794505181215  1.0000
  C   C48       1.0  0.3138524974694619  0.8262432317646715  0.8618295483706648  1.0000
  C   C49       1.0  0.8188560734105294  0.7746971136557544  0.84434998938697  1.0000
  C   C50       1.0  0.6811458227463589  0.27469332375911654  0.15565303805997396  1.0000
  C   C51       1.0  0.1811402782903926  0.2253118372994507  0.15565167295962115  1.0000
  C   C52       1.0  0.3188555288131667  0.7253030438858588  0.844345652979776  1.0000
  C   C53       1.0  0.8042095940956743  0.8251876639532013  0.762452662925597  1.0000
  C   C54       1.0  0.6957944551090589  0.32518520261471906  0.23754451248262146  1.0000
  C   C55       1.0  0.19580550879032188  0.17480796342564983  0.23754515661295275  1.0000
  C   C56       1.0  0.30418814388084303  0.6748030230092823  0.7624524301718342  1.0000
  S   S1        1.0  0.9341165619011561  0.6557259959558479  0.48048367910197254  1.0000
  S   S2        1.0  0.5658915937195133  0.155732082606761  0.5195184048617565  1.0000
  S   S3        1.0  0.06585353378352468  0.34428887673759323  0.5195085774178809  1.0000
  S   S4        1.0  0.4341422655271359  0.8442620642201245  0.4804929668893864  1.0000
  S   S5        1.0  0.8449078954387231  0.9637342614039284  0.8623831623355473  1.0000
  S   S6        1.0  0.6550930257106913  0.4637353618715423  0.13761429610899975  1.0000
  S   S7        1.0  0.15509595598796722  0.0362658072017865  0.13761435364109792  1.0000
  S   S8        1.0  0.34490332521973943  0.5362617459955814  0.8623842600187717  1.0000
  N   N1        1.0  0.90631559514852  0.7732185441519659  0.49375420422462934  1.0000
  N   N2        1.0  0.5937063506388826  0.27322370095586723  0.5062512371835555  1.0000
  N   N3        1.0  0.0936344947287822  0.22680151005879173  0.5062269513510531  1.0000
  N   N4        1.0  0.4063500125863583  0.7267793280507817  0.49376509039348815  1.0000
  N   N5        1.0  0.8144789561319212  0.9241374495183691  0.7656734927165731  1.0000
  N   N6        1.0  0.6855407181710333  0.42413957166947114  0.23432347925546548  1.0000
  N   N7        1.0  0.18554114624571838  0.07585669746107017  0.23432073422308267  1.0000
  N   N8        1.0  0.31446188450046714  0.5758567959545857  0.7656783517728772  1.0000
  O   O1        1.0  0.7740836048699363  0.6029466230850957  0.4793043102535038  1.0000
  O   O2        1.0  0.7259187180916624  0.1029361234051152  0.52069794975899  1.0000
  O   O3        1.0  0.22590148752644976  0.3970541859174901  0.5206709559816576  1.0000
  O   O4        1.0  0.27410639448694235  0.897045440114546  0.4793268534955005  1.0000
  O   O5        1.0  0.05574623990445099  0.6157046015731211  0.5419186351756553  1.0000
  O   O6        1.0  0.44426178152256307  0.11571666874342407  0.4580784700043169  1.0000
  O   O7        1.0  0.9442151085390689  0.38433395731274805  0.45808705271755923  1.0000
  O   O8        1.0  0.555778324134607  0.8842989437284954  0.5419200240092225  1.0000
  O   O9        1.0  0.9248298361965012  0.9184677408047152  0.4228837461099034  1.0000
  O   O10       1.0  0.5751962723258828  0.418466549417701  0.5771271027040186  1.0000
  O   O11       1.0  0.0752140193374373  0.0815486118481701  0.5771129853262169  1.0000
  O   O12       1.0  0.4247763275520953  0.581532779137703  0.4228770251190285  1.0000
  O   O13       1.0  0.007219501062813498  0.0116763328722129  0.8721858422073583  1.0000
  O   O14       1.0  0.4927830601320124  0.5116794012714577  0.12782171268483472  1.0000
  O   O15       1.0  0.9927743519551767  0.9883266965240193  0.12782072272381134  1.0000
  O   O16       1.0  0.5072170429734938  0.4883184467434063  0.8721825358925559  1.0000
  O   O17       1.0  0.7014348901564985  0.0202446120112825  0.8862572391551429  1.0000
  O   O18       1.0  0.7985625402583237  0.5202410740740149  0.11372863751377345  1.0000
  O   O19       1.0  0.2985564573699193  0.9797591576677362  0.11373248450787803  1.0000
  O   O20       1.0  0.2014300590482208  0.47975677402481404  0.8862660899158359  1.0000
  O   O21       1.0  0.7903133896146172  0.7802664268140304  0.6924969894236954  1.0000
  O   O22       1.0  0.7096845796200311  0.28026688915173986  0.30750465439741964  1.0000
  O   O23       1.0  0.20972046785713155  0.21971883771409753  0.3075081698367513  1.0000
  O   O24       1.0  0.29026801538773117  0.7197146749026899  0.6924902363204526  1.0000
  O   O25       1.0  0.1616721179510776  0.8905427212280725  0.644993208323456  1.0000
  O   O26       1.0  0.3383322184658581  0.39054355640175226  0.355002061606328  1.0000
  O   O27       1.0  0.8384404997724103  0.10944550362173538  0.35501593950502314  1.0000
  O   O28       1.0  0.66157411902541  0.6094431892963355  0.644985989911426  1.0000
