data_image0
_chemical_formula_structural       Zn2H18C54S10N4O42F10
_chemical_formula_sum              "Zn2 H18 C54 S10 N4 O42 F10"
_cell_length_a       9.61485585344333
_cell_length_b       10.739231972298432
_cell_length_c       27.717023521264906
_cell_angle_alpha    92.45111164144369
_cell_angle_beta     84.4166915428412
_cell_angle_gamma    83.7253419099411

_space_group_name_H-M_alt    "P 1"
_space_group_IT_number       1

loop_
  _space_group_symop_operation_xyz
  'x, y, z'

loop_
  _atom_site_type_symbol
  _atom_site_label
  _atom_site_symmetry_multiplicity
  _atom_site_fract_x
  _atom_site_fract_y
  _atom_site_fract_z
  _atom_site_occupancy
  Zn  Zn1       1.0  0.6508663424698399  0.4827132015418556  0.4892515113396953  1.0000
  Zn  Zn2       1.0  0.3466085269128953  0.5106991943407595  0.5073174680221655  1.0000
  H   H1        1.0  0.6735245193082237  0.9225011202969996  0.554266194515229  1.0000
  H   H2        1.0  0.34652358007673467  0.0695111734083085  0.4366903237048021  1.0000
  H   H3        1.0  0.15501957580449507  0.3022653109197293  0.4750992592169041  1.0000
  H   H4        1.0  0.8396978369002569  0.6777907800140569  0.5318777348029187  1.0000
  H   H5        1.0  0.5758587775490724  0.40094634762599674  0.7560087855897705  1.0000
  H   H6        1.0  0.3800973964627233  0.6616119449366878  0.2526805065880282  1.0000
  H   H7        1.0  0.629658031328198  0.3031982694922633  0.2591735013195375  1.0000
  H   H8        1.0  0.3656318939578683  0.7648898780031317  0.7299391800994781  1.0000
  H   H9        1.0  0.6610081095726416  0.3245777211572687  0.5913726702422792  1.0000
  H   H10       1.0  0.29461252091243034  0.6983045722314288  0.4228172863805638  1.0000
  H   H11       1.0  0.9750740356488737  0.9074400588946503  0.47248269348148847  1.0000
  H   H12       1.0  0.173430129395463  0.1422419664828638  0.5773579490005147  1.0000
  H   H13       1.0  0.006227481160060226  0.6194269546993851  0.3661008535880796  1.0000
  H   H14       1.0  0.8651903498320198  0.4515747641210339  0.6501903366777454  1.0000
  H   H15       1.0  0.0018078319475592249  0.6151921471045229  0.8835696754767071  1.0000
  H   H16       1.0  0.654106066354153  0.7751382954147557  0.20612989073106286  1.0000
  H   H17       1.0  0.6535494768285945  0.0582852643295197  0.9924141690413747  1.0000
  H   H18       1.0  0.9139762175981759  0.8268092606667211  0.8923336564151609  1.0000
  C   C1        1.0  0.5127630507835974  0.25908846748959047  0.4885792225893297  1.0000
  C   C2        1.0  0.4970439733612225  0.7342200192024605  0.5058311997410172  1.0000
  C   C3        1.0  0.4668247092523927  0.5959495300224165  0.9003717296367526  1.0000
  C   C4        1.0  0.5422259400533067  0.5111832083769132  0.09819059716400598  1.0000
  C   C5        1.0  0.359955339450302  0.5364688658307345  0.8795372818859235  1.0000
  C   C6        1.0  0.591653041575647  0.6055540333066604  0.1280505325778947  1.0000
  C   C7        1.0  0.269674337862405  0.4714768376575905  0.9093045246229322  1.0000
  C   C8        1.0  0.620830184211748  0.7198420409629949  0.1082588369154109  1.0000
  C   C9        1.0  0.5417468473811127  0.6809767067226106  0.8731206287025228  1.0000
  C   C10       1.0  0.49832438892573094  0.4002334048812062  0.11832040819601267  1.0000
  C   C11       1.0  0.5078081469858519  0.525136345438334  0.6478566368585774  1.0000
  C   C12       1.0  0.465446578399984  0.5039114838247514  0.35222188812345917  1.0000
  C   C13       1.0  0.47728995770540933  0.4364002824172458  0.018747249745303  1.0000
  C   C14       1.0  0.5863757525318719  0.6470974637730224  0.9735201963282732  1.0000
  C   C15       1.0  0.5812003311477696  0.6359729569742925  0.0262076766169628  1.0000
  C   C16       1.0  0.4301155881165501  0.4783981553151548  0.9733360971377392  1.0000
  C   C17       1.0  0.5354055644482117  0.5271657194149809  0.047600985768596595  1.0000
  C   C18       1.0  0.4949253356037813  0.5746360378018525  0.9491208562121116  1.0000
  C   C19       1.0  0.4621822915188007  0.31827439924519046  0.03702431001791239  1.0000
  C   C20       1.0  0.6648755152265339  0.7263212578794978  0.9449783216089358  1.0000
  C   C21       1.0  0.4684476330246811  0.30375022180589184  0.0870358458727765  1.0000
  C   C22       1.0  0.636097079605989  0.7445088790463005  0.8966206824510292  1.0000
  C   C23       1.0  0.5122020376404989  0.4989772711305137  0.5939580326111482  1.0000
  C   C24       1.0  0.46141952622054566  0.511833450758246  0.40667294934954157  1.0000
  C   C25       1.0  0.31172653802553907  0.43805865250806153  0.9545546203863324  1.0000
  C   C26       1.0  0.6081687573734416  0.7320586727470157  0.058392121922082686  1.0000
  C   C27       1.0  0.6446217467261308  0.015553075108961397  0.4787302261102013  1.0000
  C   C28       1.0  0.37617773927292575  0.9768284807877593  0.5118881295393152  1.0000
  C   C29       1.0  0.5456094079546433  0.9327906558045598  0.45282048928117996  1.0000
  C   C30       1.0  0.4748105405947313  0.058446011503377804  0.5378799791278723  1.0000
  C   C31       1.0  0.5033584796875061  0.8712755506060078  0.5023746313226667  1.0000
  C   C32       1.0  0.5162150577658551  0.120486231351272  0.4889913469009457  1.0000
  C   C33       1.0  0.6019156784907694  0.9550005779076689  0.5280011943080111  1.0000
  C   C34       1.0  0.41850643978440166  0.0370483538782551  0.46284153257250427  1.0000
  C   C35       1.0  0.07951301133589078  0.3836003335029972  0.48685005555935845  1.0000
  C   C36       1.0  0.9156030867670636  0.5965684105973564  0.5203376043275583  1.0000
  C   C37       1.0  0.9891722432030436  0.4693348907641167  0.4556974420793622  1.0000
  C   C38       1.0  0.007231889593462904  0.5107206207215712  0.5512445667453035  1.0000
  C   C39       1.0  0.9539023213758212  0.395205160384215  0.5264993601663974  1.0000
  C   C40       1.0  0.04066325042287393  0.584849804234139  0.4809629998045466  1.0000
  C   C41       1.0  0.35692169145817604  0.5323191466027027  0.8261275513759543  1.0000
  C   C42       1.0  0.6079474951342975  0.5768048919512482  0.1792976338786119  1.0000
  C   C43       1.0  0.5288319776968394  0.6933458760258518  0.8205983198328538  1.0000
  C   C44       1.0  0.47766845001918057  0.3890378249420365  0.1712170506263035  1.0000
  C   C45       1.0  0.4183288017892581  0.6730020910047756  0.717054623252011  1.0000
  C   C46       1.0  0.5673547049707964  0.3865375645595321  0.2766886911070117  1.0000
  C   C47       1.0  0.4400935680765343  0.6413687084748008  0.6675521461086189  1.0000
  C   C48       1.0  0.5427008796506314  0.3987158022582449  0.32698538666524257  1.0000
  C   C49       1.0  0.5606262773345351  0.44087444947696525  0.681093449076343  1.0000
  C   C50       1.0  0.4032508425623291  0.5962780827727201  0.324217577848124  1.0000
  C   C51       1.0  0.5380935157673009  0.469201633095338  0.7309529149426482  1.0000
  C   C52       1.0  0.4260392122702683  0.5871808909676518  0.2737054726170953  1.0000
  C   C53       1.0  0.46594899647476506  0.5842910419774512  0.7484593883307297  1.0000
  C   C54       1.0  0.5103478371235114  0.4839197768788497  0.2506079073098135  1.0000
  S   S1        1.0  0.6728311150005623  0.29651693188752415  0.6663976421151858  1.0000
  S   S2        1.0  0.2839270210977817  0.7298467624382498  0.34734615793512796  1.0000
  S   S3        1.0  0.8141025107384297  0.039333056307206994  0.45111055656808924  1.0000
  S   S4        1.0  0.20401294975560094  0.9636882102516254  0.5376389431744073  1.0000
  S   S5        1.0  0.9716689508967066  0.43881957999836635  0.3923762045141501  1.0000
  S   S6        1.0  0.04476785885479022  0.5281166820770267  0.6130460257457528  1.0000
  S   S7        1.0  0.09688147474386007  0.4343190707396048  0.8955585480040966  1.0000
  S   S8        1.0  0.6923285053693108  0.8515334053011542  0.13898700552916668  1.0000
  S   S9        1.0  0.45398704281355867  0.17825692864236942  0.9989929019346205  1.0000
  S   S10       1.0  0.8148618616509252  0.7973618184966542  0.9630963431666472  1.0000
  N   N1        1.0  0.44541448201577083  0.6084498565180926  0.8003018787466729  1.0000
  N   N2        1.0  0.5349851126697021  0.4822236883660694  0.19843785149330978  1.0000
  N   N3        1.0  0.8625411790556613  0.4807525530750638  0.49551748420751096  1.0000
  N   N4        1.0  0.13260300257495322  0.5004892615737335  0.511203127057378  1.0000
  O   O1        1.0  0.6296705038841496  0.3025289455981408  0.4818633620532609  1.0000
  O   O2        1.0  0.37837381574353657  0.6955149129075552  0.5024470292686942  1.0000
  O   O3        1.0  0.391516422699155  0.3203537464676601  0.4979740284654852  1.0000
  O   O4        1.0  0.6130130438293621  0.6678778005979497  0.5099738359847947  1.0000
  O   O5        1.0  0.6295476546165233  0.4550739686182866  0.5697933607361276  1.0000
  O   O6        1.0  0.3419435017350382  0.5150469406695779  0.43146759006512525  1.0000
  O   O7        1.0  0.3971854647908872  0.5227294161231201  0.5763930435159919  1.0000
  O   O8        1.0  0.578851095898024  0.5154021918721271  0.4231487324430532  1.0000
  O   O9        1.0  0.2908467401995267  0.46079542141789187  0.804433140489948  1.0000
  O   O10       1.0  0.6782676769992905  0.6332836224566025  0.20650609504654227  1.0000
  O   O11       1.0  0.4149332856660592  0.31036259834137075  0.1918990726061409  1.0000
  O   O12       1.0  0.5918363925037441  0.763192454204216  0.7948935580482936  1.0000
  O   O13       1.0  0.8165741310021774  0.3300201913517072  0.6662784277059188  1.0000
  O   O14       1.0  0.6331732543674989  0.20345176753146182  0.698710826372064  1.0000
  O   O15       1.0  0.6477842987403336  0.2523517363657461  0.6140220139911533  1.0000
  O   O16       1.0  0.31279292355920774  0.8343894674848829  0.31936761788763585  1.0000
  O   O17       1.0  0.14361983105093404  0.6914159818902166  0.35067274308018875  1.0000
  O   O18       1.0  0.3239210983858599  0.7618170050685366  0.4001723529978705  1.0000
  O   O19       1.0  0.7955852117794608  0.06284881024417639  0.40156115859834773  1.0000
  O   O20       1.0  0.8824777736067589  0.12206726323195483  0.4808857068971974  1.0000
  O   O21       1.0  0.8916393898721116  0.9005059081571007  0.45400423567836856  1.0000
  O   O22       1.0  0.1244005597453821  0.917296187311273  0.5007402478227263  1.0000
  O   O23       1.0  0.20941142021579404  0.9071204309808254  0.583358235207079  1.0000
  O   O24       1.0  0.14590593243802635  0.11007856877465372  0.5463253077167849  1.0000
  O   O25       1.0  0.11159359528568301  0.3960790425693689  0.3708977235848677  1.0000
  O   O26       1.0  0.8568435340534677  0.36556834644  0.3905374545588671  1.0000
  O   O27       1.0  0.9224221630150212  0.57424026549608  0.37662001945877677  1.0000
  O   O28       1.0  0.12620274138414095  0.4120558414275451  0.6217659398726312  1.0000
  O   O29       1.0  0.09645352118680965  0.6472505038979222  0.6186411817223672  1.0000
  O   O30       1.0  0.893180605073468  0.5377479465944506  0.6397159809192913  1.0000
  O   O31       1.0  0.10866899698947206  0.3174696415959702  0.8682665711449218  1.0000
  O   O32       1.0  0.00784393344437725  0.4576744992348979  0.9406536443725597  1.0000
  O   O33       1.0  0.05102948203528972  0.5449552105787137  0.8616738417498625  1.0000
  O   O34       1.0  0.8398717057353197  0.808454548367472  0.13669484652136527  1.0000
  O   O35       1.0  0.6429173982414369  0.9661868457751627  0.1187425932804942  1.0000
  O   O36       1.0  0.6198372337453293  0.8583802859903642  0.1921691499926297  1.0000
  O   O37       1.0  0.327897983056623  0.12404624204990711  0.01321635557332  1.0000
  O   O38       1.0  0.49151441188148254  0.20493819682204156  0.9491861359292668  1.0000
  O   O39       1.0  0.5826126204571908  0.09731638885137532  0.018617400206004196  1.0000
  O   O40       1.0  0.7866599755849465  0.9321788105700861  0.9644643957970942  1.0000
  O   O41       1.0  0.8728919059112318  0.7297591085636341  0.000888450261044205  1.0000
  O   O42       1.0  0.9293298839108886  0.7614949938725958  0.9156217568024514  1.0000
  F   F1        1.0  0.8986242038114656  0.30403047246529985  0.5498436631821377  1.0000
  F   F2        1.0  0.09431853736954574  0.6805377155910082  0.45956457272963286  1.0000
  F   F3        1.0  0.5944884497979643  0.3037586223107738  0.3528206109256189  1.0000
  F   F4        1.0  0.39710909858238364  0.7293189212877426  0.6372192405127849  1.0000
  F   F5        1.0  0.4419738382722329  0.19419294788251318  0.1044398991663726  1.0000
  F   F6        1.0  0.7055905270237517  0.8294449461086516  0.8723976285558733  1.0000
  F   F7        1.0  0.23375899089310798  0.3652906079842496  0.9815348547707997  1.0000
  F   F8        1.0  0.6204310704901915  0.8442699604972151  0.0396891060979243  1.0000
  F   F9        1.0  0.5834464101841162  0.8664072042681144  0.4103154672430804  1.0000
  F   F10       1.0  0.4336192164837628  0.1239148123333038  0.5809216725180092  1.0000
