data_image0
_chemical_formula_structural       Zn2H14C24N4O8
_chemical_formula_sum              "Zn2 H14 C24 N4 O8"
_cell_length_a       9.760928136045797
_cell_length_b       11.01974278881523
_cell_length_c       14.492161583288507
_cell_angle_alpha    88.87201169588182
_cell_angle_beta     89.50213875342904
_cell_angle_gamma    89.91028329769762

_space_group_name_H-M_alt    "P 1"
_space_group_IT_number       1

loop_
  _space_group_symop_operation_xyz
  'x, y, z'

loop_
  _atom_site_type_symbol
  _atom_site_label
  _atom_site_symmetry_multiplicity
  _atom_site_fract_x
  _atom_site_fract_y
  _atom_site_fract_z
  _atom_site_occupancy
  Zn  Zn1       1.0  0.6376747671509689  0.4969712541620055  0.5002488054940173  1.0000
  Zn  Zn2       1.0  0.3511681777237995  0.4961527409356137  0.4962473503422658  1.0000
  H   H1        1.0  0.29265322857233395  0.8890920591511671  0.4332185768033412  1.0000
  H   H2        1.0  0.8793666935366671  0.5572713992919915  0.28479761107119117  1.0000
  H   H3        1.0  0.8609178393217788  0.7832404694482661  0.3886343010321411  1.0000
  H   H4        1.0  0.7415134345690503  0.7166662367010943  0.328301027784903  1.0000
  H   H5        1.0  0.6869777211183247  0.8851907530405682  0.7039438091022346  1.0000
  H   H6        1.0  0.7383136957584284  0.7647157328665838  0.6492231896288416  1.0000
  H   H7        1.0  0.13474497110695438  0.5787977533150793  0.2877286456456645  1.0000
  H   H8        1.0  0.11841590664750606  0.7139518005678767  0.3531614430270338  1.0000
  H   H9        1.0  0.29535881417321963  0.11429300623337471  0.4365818037364165  1.0000
  H   H10       1.0  0.8273062860512892  0.1093762454840217  0.536901641893806  1.0000
  H   H11       1.0  0.7400434996495944  0.0958660942453307  0.6454691693660379  1.0000
  H   H12       1.0  0.8245040496456038  0.885048046725721  0.5228502655343448  1.0000
  H   H13       1.0  0.12366441434190278  0.4054507039562906  0.6259088783047346  1.0000
  H   H14       1.0  0.8653036922216515  0.40864647580492164  0.6285424283357344  1.0000
  C   C1        1.0  0.4913759323581884  0.7313320714467719  0.4933280328783098  1.0000
  C   C2        1.0  0.7450680417097714  0.918909124458942  0.5703183904988833  1.0000
  C   C3        1.0  0.06618804914221947  0.5491647538860603  0.4328868760211151  1.0000
  C   C4        1.0  0.4965499806201805  0.5071778466181412  0.316522751778102  1.0000
  C   C5        1.0  0.0660288419906863  0.4467303238154158  0.5694168660858452  1.0000
  C   C6        1.0  0.92310864905361  0.4479707023374003  0.5707050243361422  1.0000
  C   C7        1.0  0.9234199747434244  0.5469056064306628  0.43261528548185885  1.0000
  C   C8        1.0  0.9149706914704151  0.6166482086984502  0.33962471087291857  1.0000
  C   C9        1.0  0.07826904171159298  0.6219043807092747  0.3441012578514275  1.0000
  C   C10       1.0  0.495060888531256  0.262490696099654  0.4981454742790135  1.0000
  C   C11       1.0  0.49220284617150856  0.5032231242001758  0.679395197854987  1.0000
  C   C12       1.0  0.4882609181605913  0.5154850664853398  0.7784378180867435  1.0000
  C   C13       1.0  0.4968717218875226  0.5201193455929387  0.21724834695372414  1.0000
  C   C14       1.0  0.4934915857186013  0.52764633908766  0.13266999126108203  1.0000
  C   C15       1.0  0.4901943084719844  0.5317913621600567  0.0401998268766022  1.0000
  C   C16       1.0  0.48800231375602  0.5306205717615882  0.9550558206619897  1.0000
  C   C17       1.0  0.4872904535613714  0.524495271043122  0.862741029311259  1.0000
  C   C18       1.0  0.6046509377763627  0.9311599477667017  0.5245210861967422  1.0000
  C   C19       1.0  0.4932724206645317  0.8662597333561449  0.4919473900057342  1.0000
  C   C20       1.0  0.3817958217194287  0.9361927813507193  0.45963803696736955  1.0000
  C   C21       1.0  0.38342930641150724  0.0627006857434296  0.46150876531541474  1.0000
  C   C22       1.0  0.4966492225983713  0.1273828171424185  0.4952331127678278  1.0000
  C   C23       1.0  0.6065388179615212  0.05760348018868198  0.52668690588537  1.0000
  C   C24       1.0  0.7442159568941091  0.0623209735227945  0.5745304244040241  1.0000
  N   N1        1.0  0.14080730120293336  0.4977477354577004  0.4991927039256936  1.0000
  N   N2        1.0  0.848541118426702  0.498079757632432  0.5007486645775217  1.0000
  N   N3        1.0  0.8446247964641884  0.7312051171271676  0.33222819758476874  1.0000
  N   N4        1.0  0.7589541395117149  0.8546846501663692  0.6581904544992269  1.0000
  O   O1        1.0  0.603927237121361  0.6782493939091693  0.5143568617701817  1.0000
  O   O2        1.0  0.37967509600359506  0.6780950762425916  0.47432227732134896  1.0000
  O   O3        1.0  0.6099161725260414  0.5261628245925962  0.3570086842511557  1.0000
  O   O4        1.0  0.38267172201302907  0.4781309407397813  0.35396108210082394  1.0000
  O   O5        1.0  0.6103736026928883  0.3160516069365542  0.4889265643385414  1.0000
  O   O6        1.0  0.37945398687477183  0.3140685966667363  0.5097771687262167  1.0000
  O   O7        1.0  0.6087060824943505  0.47960037763409247  0.6437117534165466  1.0000
  O   O8        1.0  0.37904047203129915  0.517673408506475  0.6374314377565327  1.0000
