data_image0
_chemical_formula_structural       Zn8H24C108O26F24
_chemical_formula_sum              "Zn8 H24 C108 O26 F24"
_cell_length_a       24.420242673002733
_cell_length_b       24.420198354948923
_cell_length_c       24.420238492170945
_cell_angle_alpha    59.999816917894655
_cell_angle_beta     59.99988276929118
_cell_angle_gamma    59.99984693253252

_space_group_name_H-M_alt    "P 1"
_space_group_IT_number       1

loop_
  _space_group_symop_operation_xyz
  'x, y, z'

loop_
  _atom_site_type_symbol
  _atom_site_label
  _atom_site_symmetry_multiplicity
  _atom_site_fract_x
  _atom_site_fract_y
  _atom_site_fract_z
  _atom_site_occupancy
  Zn  Zn1       1.0  0.9671672277215252  0.09850009845620629  0.4671667898746323  1.0000
  Zn  Zn2       1.0  0.9671673543060066  0.9671650794304084  0.5985009028939675  1.0000
  Zn  Zn3       1.0  0.0985020640377456  0.9671647894744025  0.4671670285542149  1.0000
  Zn  Zn4       1.0  0.9671658925753164  0.9671644482327365  0.4671657953821223  1.0000
  Zn  Zn5       1.0  0.532835020458279  0.40149771011381574  0.032834020616185504  1.0000
  Zn  Zn6       1.0  0.4014998306793558  0.5328323368043684  0.032834198453251404  1.0000
  Zn  Zn7       1.0  0.5328347112520075  0.5328324711694988  0.9014992805353403  1.0000
  Zn  Zn8       1.0  0.53283565281005  0.5328334890677625  0.032834900925699594  1.0000
  H   H1        1.0  0.8484323801373606  0.23960630854992368  0.3484324178273612  1.0000
  H   H2        1.0  0.8484336839173351  0.06352985129665706  0.3484319255079384  1.0000
  H   H3        1.0  0.651569717751684  0.26039298772233366  0.1515690613659119  1.0000
  H   H4        1.0  0.6515697750594498  0.43646916807480823  0.1515679679697115  1.0000
  H   H5        1.0  0.06353037315517421  0.8484308685024687  0.7396078655839561  1.0000
  H   H6        1.0  0.23960640291275578  0.8484297918293678  0.563532377316669  1.0000
  H   H7        1.0  0.4364710842458236  0.6515665515769984  0.7603941285895531  1.0000
  H   H8        1.0  0.2603943452191116  0.6515669189782686  0.9364710353974391  1.0000
  H   H9        1.0  0.06353015089761266  0.23960565493212013  0.34843225510574893  1.0000
  H   H10       1.0  0.23960701333391646  0.06352927242313194  0.3484321208177407  1.0000
  H   H11       1.0  0.43647030709696805  0.2603924790787176  0.15156858455567598  1.0000
  H   H12       1.0  0.26039425775693564  0.4364688556901512  0.15156841317303102  1.0000
  H   H13       1.0  0.848432245259545  0.8484303459869337  0.7396065524042187  1.0000
  H   H14       1.0  0.8484318163225876  0.848431570515281  0.5635307347845072  1.0000
  H   H15       1.0  0.6515704721170719  0.6515662184403581  0.760393463850072  1.0000
  H   H16       1.0  0.651569839738144  0.6515663895826689  0.9364694486444025  1.0000
  H   H17       1.0  0.8484337508492954  0.06352906485626869  0.7396065996811105  1.0000
  H   H18       1.0  0.8484324048461644  0.23960549535958345  0.5635301328314952  1.0000
  H   H19       1.0  0.6515688444289222  0.4364690029351478  0.7603932250839167  1.0000
  H   H20       1.0  0.6515698501818645  0.26039305117727446  0.9364690519104573  1.0000
  H   H21       1.0  0.06353092936006283  0.8484306400885018  0.34843157701459393  1.0000
  H   H22       1.0  0.23960673033771232  0.8484301381582  0.3484317678705936  1.0000
  H   H23       1.0  0.4364708674281842  0.6515663882611379  0.15156884279437588  1.0000
  H   H24       1.0  0.2603944897773115  0.6515671325129375  0.15156848476217272  1.0000
  C   C1        1.0  0.8953151567271361  0.10468586509946945  0.6046860569237824  1.0000
  C   C2        1.0  0.10469030592720696  0.8953116552176965  0.6046843129994245  1.0000
  C   C3        1.0  0.10468931405367946  0.10468310734888313  0.39531418480979863  1.0000
  C   C4        1.0  0.10468950727666725  0.8953116939601315  0.3953145955724153  1.0000
  C   C5        1.0  0.8953148773863048  0.10468560415692725  0.39531361223064476  1.0000
  C   C6        1.0  0.8953145951140511  0.8953120588783676  0.6046856031275709  1.0000
  C   C7        1.0  0.39531181854298575  0.3953148822695951  0.10468762922633357  1.0000
  C   C8        1.0  0.3953142138994535  0.6046847323147446  0.8953151497659207  1.0000
  C   C9        1.0  0.6046881360236325  0.39531453816082524  0.8953117379577338  1.0000
  C   C10       1.0  0.6046898700641137  0.6046829773698336  0.8953116858617776  1.0000
  C   C11       1.0  0.6046879415684429  0.3953127751901134  0.1046870597649345  1.0000
  C   C12       1.0  0.3953123240916268  0.604684549972724  0.10468757712918383  1.0000
  C   C13       1.0  0.8321341815064897  0.21777654777202568  0.3321325169163814  1.0000
  C   C14       1.0  0.7915863417381387  0.2588391389821681  0.2915848163504081  1.0000
  C   C15       1.0  0.7697790738188388  0.3304310084275032  0.269776515723443  1.0000
  C   C16       1.0  0.8321343983823654  0.11795743409068378  0.33213318634531674  1.0000
  C   C17       1.0  0.7915865105880825  0.15799049829124806  0.2915849211413218  1.0000
  C   C18       1.0  0.7697791153843597  0.1300135229158599  0.2697781295255411  1.0000
  C   C19       1.0  0.6678699579706587  0.2822215141085636  0.16786865660742484  1.0000
  C   C20       1.0  0.7084171113403597  0.2411606934878279  0.20841477145578574  1.0000
  C   C21       1.0  0.7302248925840827  0.16956769937506527  0.2302241849531016  1.0000
  C   C22       1.0  0.6678698103418768  0.38204069703730426  0.1678673471558129  1.0000
  C   C23       1.0  0.7084170176357956  0.34200859032762315  0.20841433231364462  1.0000
  C   C24       1.0  0.7302249202656553  0.3699852541341144  0.2302219311283195  1.0000
  C   C25       1.0  0.8520311759067594  0.14797053062121526  0.3520295373377495  1.0000
  C   C26       1.0  0.7705501672362088  0.22945157955261652  0.2705477842969017  1.0000
  C   C27       1.0  0.6479728597432481  0.35202824642875197  0.1479705233161114  1.0000
  C   C28       1.0  0.7294553274303937  0.2705470185257041  0.22945149783983257  1.0000
  C   C29       1.0  0.11796010813067391  0.8321306009212749  0.7177775420122927  1.0000
  C   C30       1.0  0.15799097837829357  0.7915837932392691  0.7588409969789325  1.0000
  C   C31       1.0  0.13001625285009052  0.7697751868175828  0.8304327721473331  1.0000
  C   C32       1.0  0.21777802762502327  0.8321311989498597  0.6179585038831165  1.0000
  C   C33       1.0  0.2588392517394451  0.7915828129911517  0.6579936845898545  1.0000
  C   C34       1.0  0.33043190457232885  0.7697748755556262  0.6300163903244781  1.0000
  C   C35       1.0  0.3820429872594388  0.667865181166036  0.7822244521628079  1.0000
  C   C36       1.0  0.3420094295033919  0.7084133963138087  0.7411617757121008  1.0000
  C   C37       1.0  0.3699850719549999  0.7302212816685553  0.6695708077429928  1.0000
  C   C38       1.0  0.2822244851935737  0.6678656385574726  0.8820430174443177  1.0000
  C   C39       1.0  0.24116160021956282  0.7084131826470993  0.8420108409942063  1.0000
  C   C40       1.0  0.16956948947986183  0.730221662177911  0.869986549543164  1.0000
  C   C41       1.0  0.14796968772048982  0.8520273230318338  0.6479736178860451  1.0000
  C   C42       1.0  0.22945368956960968  0.7705451723060079  0.7294534795414124  1.0000
  C   C43       1.0  0.35203082988662254  0.6479683382533351  0.8520305733463903  1.0000
  C   C44       1.0  0.2705481198781426  0.72945014283097  0.7705497659980838  1.0000
  C   C45       1.0  0.11795977475598106  0.21777540932196626  0.33213251836942703  1.0000
  C   C46       1.0  0.1579905012977889  0.25883903970430566  0.2915852341045664  1.0000
  C   C47       1.0  0.1300155852378567  0.33043028456062723  0.2697774133663344  1.0000
  C   C48       1.0  0.21777760878848074  0.11795658255848453  0.33213292119801  1.0000
  C   C49       1.0  0.2588390340821789  0.15799031947339873  0.2915853322649228  1.0000
  C   C50       1.0  0.3304322102670483  0.130015039913431  0.2697763570751023  1.0000
  C   C51       1.0  0.382041899933867  0.2822231223917982  0.16786770995027916  1.0000
  C   C52       1.0  0.34200978362255785  0.24115974022851108  0.20841513270958964  1.0000
  C   C53       1.0  0.36998405966045306  0.16956785534776486  0.2302237319657437  1.0000
  C   C54       1.0  0.2822232587033823  0.38204114195431776  0.1678679184638128  1.0000
  C   C55       1.0  0.2411608472391718  0.34200805685893704  0.20841534022029154  1.0000
  C   C56       1.0  0.16956895109837672  0.3699846164677538  0.2302227583742678  1.0000
  C   C57       1.0  0.14797054238508162  0.14797022956716432  0.35202974732481357  1.0000
  C   C58       1.0  0.229453036818839  0.22945138893916803  0.27054741790141185  1.0000
  C   C59       1.0  0.35203106895595226  0.3520274198006774  0.14797142668903263  1.0000
  C   C60       1.0  0.27054731734860127  0.27054746024104753  0.22945230889006046  1.0000
  C   C61       1.0  0.8321328659051725  0.8321309093861872  0.7177770103508441  1.0000
  C   C62       1.0  0.7915847544470648  0.7915842851285504  0.7588397433445166  1.0000
  C   C63       1.0  0.7697760508669517  0.7697763150909862  0.8304316499654977  1.0000
  C   C64       1.0  0.8321329259215697  0.832131797171492  0.6179584059974277  1.0000
  C   C65       1.0  0.7915852979975141  0.7915848375433611  0.6579913533966107  1.0000
  C   C66       1.0  0.769777436892326  0.7697768997368684  0.6300149913396923  1.0000
  C   C67       1.0  0.667869447872455  0.6678652514406239  0.7822233115745052  1.0000
  C   C68       1.0  0.7084162556933434  0.7084138480434915  0.741160912930859  1.0000
  C   C69       1.0  0.7302233271826282  0.7302226429746951  0.6695693119797426  1.0000
  C   C70       1.0  0.6678697914550537  0.6678647672557929  0.8820416102568632  1.0000
  C   C71       1.0  0.7084159485659427  0.7084135320526241  0.8420088300318941  1.0000
  C   C72       1.0  0.730222990676573  0.7302222888552026  0.8699851920880165  1.0000
  C   C73       1.0  0.852030528983455  0.852027831828096  0.6479714878309368  1.0000
  C   C74       1.0  0.7705488189642151  0.7705466378767979  0.7294520643625051  1.0000
  C   C75       1.0  0.6479744030555067  0.6479668522855349  0.8520286956011561  1.0000
  C   C76       1.0  0.7294536560910814  0.7294505032250738  0.7705481190672004  1.0000
  C   C77       1.0  0.8321349486929464  0.1179571315167962  0.7177760400905698  1.0000
  C   C78       1.0  0.7915864786240615  0.15799042526565202  0.7588383037559083  1.0000
  C   C79       1.0  0.7697780669438217  0.13001488219266108  0.8304311977961023  1.0000
  C   C80       1.0  0.832134157709717  0.2177756798604947  0.6179578504976038  1.0000
  C   C81       1.0  0.791586046126582  0.2588388111704133  0.6579904203592053  1.0000
  C   C82       1.0  0.7697786911476432  0.33042977510105237  0.6300138137020002  1.0000
  C   C83       1.0  0.6678689325276251  0.38204140322494595  0.7822225333100692  1.0000
  C   C84       1.0  0.7084160187253017  0.34200754459662613  0.7411607138106292  1.0000
  C   C85       1.0  0.7302232246971767  0.3699851579439938  0.6695689613189588  1.0000
  C   C86       1.0  0.6678693832606726  0.2822233336266889  0.8820400828799536  1.0000
  C   C87       1.0  0.7084159665801195  0.2411603120410246  0.8420089315581623  1.0000
  C   C88       1.0  0.730224930866413  0.16956768143648998  0.8699840909957857  1.0000
  C   C89       1.0  0.8520316350432465  0.14796932575895033  0.6479705490839012  1.0000
  C   C90       1.0  0.7705494182995307  0.2294516092823359  0.7294513363070011  1.0000
  C   C91       1.0  0.6479725230786997  0.35202784789142777  0.8520296100339452  1.0000
  C   C92       1.0  0.7294538862478175  0.27054716778091137  0.770547069917427  1.0000
  C   C93       1.0  0.11795936196239154  0.8321307076368853  0.33213307387005403  1.0000
  C   C94       1.0  0.15799169682797023  0.7915837337564399  0.291585054274023  1.0000
  C   C95       1.0  0.13001553079261866  0.7697761520205904  0.26977714378405426  1.0000
  C   C96       1.0  0.21777738271800462  0.8321313981552265  0.3321325015986505  1.0000
  C   C97       1.0  0.2588401359078035  0.791582910365335  0.2915847132922381  1.0000
  C   C98       1.0  0.33043223577828923  0.769775238420081  0.2697765035750309  1.0000
  C   C99       1.0  0.38204213505400736  0.6678652019428881  0.16786876447992685  1.0000
  C   C100      1.0  0.3420099327843289  0.7084131274166551  0.2084151983591411  1.0000
  C   C101      1.0  0.36998544700107744  0.7302216953251275  0.2302232760241196  1.0000
  C   C102      1.0  0.2822237681499259  0.6678658032685123  0.16786839105679272  1.0000
  C   C103      1.0  0.24116156295158928  0.7084140200551658  0.20841489931823537  1.0000
  C   C104      1.0  0.1695690535838281  0.7302221014984626  0.2302231090350518  1.0000
  C   C105      1.0  0.1479711435614988  0.8520271668915527  0.3520300460507643  1.0000
  C   C106      1.0  0.2294530200550325  0.770545362113616  0.27054861880458964  1.0000
  C   C107      1.0  0.3520307629521752  0.6479683331901712  0.14797179229960727  1.0000
  C   C108      1.0  0.27054814260946347  0.7294502131130756  0.22945288519376558  1.0000
  O   O1        1.0  9.384811512004078e-08  0.999998424446332  0.4999998514618937  1.0000
  O   O2        1.0  0.9119642149446107  0.13467235227713562  0.541399792341224  1.0000
  O   O3        1.0  0.04139765107749565  0.9119618650923514  0.6346760448082663  1.0000
  O   O4        1.0  0.1346737081942209  0.04139943374879344  0.41196418236817334  1.0000
  O   O5        1.0  0.9119653906697851  0.04139715472464179  0.634674250943455  1.0000
  O   O6        1.0  0.04139849912350963  0.13467334028370453  0.41196406289941495  1.0000
  O   O7        1.0  0.1346734203410023  0.9119616160469092  0.5414025128748818  1.0000
  O   O8        1.0  0.13467392002506526  0.9119604891139588  0.4119647255144444  1.0000
  O   O9        1.0  0.911964817439312  0.041399058054018556  0.4119627959805641  1.0000
  O   O10       1.0  0.04139861200899724  0.9119628455989571  0.4119634769770215  1.0000
  O   O11       1.0  0.9119643506983408  0.13467331840274  0.41196428807982965  1.0000
  O   O12       1.0  0.911965607589245  0.9119614911656341  0.6346750186250819  1.0000
  O   O13       1.0  0.9119630587729264  0.9119630455208353  0.5414012936614869  1.0000
  O   O14       1.0  0.5000016277947523  0.4999993477544323  9.026983037469894e-07  1.0000
  O   O15       1.0  0.4586036888907543  0.3653240667626322  0.08803727829064203  1.0000
  O   O16       1.0  0.3653277372881474  0.5880346852626843  0.9586008998396311  1.0000
  O   O17       1.0  0.5880373894792399  0.4585986409477413  0.8653266580117461  1.0000
  O   O18       1.0  0.3653278338997197  0.45859814637164226  0.08803763166834952  1.0000
  O   O19       1.0  0.5880388244109297  0.36532452159945444  0.95860178531683  1.0000
  O   O20       1.0  0.4586025837299558  0.5880359703827124  0.8653262550354982  1.0000
  O   O21       1.0  0.5880396874833733  0.5880335559828109  0.8653269463798098  1.0000
  O   O22       1.0  0.5880379035865814  0.4585992233638835  0.08803706881651858  1.0000
  O   O23       1.0  0.5880381531234775  0.5880344704109673  0.9586012826823309  1.0000
  O   O24       1.0  0.5880374187370946  0.3653248304179116  0.08803716243326683  1.0000
  O   O25       1.0  0.3653279805903223  0.5880358240662957  0.08803680716447095  1.0000
  O   O26       1.0  0.4586031155321562  0.5880341135032838  0.088037582854632  1.0000
  F   F1        1.0  0.7107553750027549  0.43757500025069623  0.21075258340113828  1.0000
  F   F2        1.0  0.7892466659214675  0.3590828996520941  0.28924650185911094  1.0000
  F   F3        1.0  0.7107547168001603  0.14091650044686324  0.21075609020330446  1.0000
  F   F4        1.0  0.7892472708777588  0.06242402501833053  0.28924761574716495  1.0000
  F   F5        1.0  0.14091803064533795  0.7107526855768284  0.9375768038724533  1.0000
  F   F6        1.0  0.06242553991654617  0.789246043351291  0.8590843326344527  1.0000
  F   F7        1.0  0.43757553666893045  0.7107518149079509  0.6409191087598316  1.0000
  F   F8        1.0  0.3590836918604621  0.7892449996083145  0.5624261646753654  1.0000
  F   F9        1.0  0.1409172658951691  0.4375747814883794  0.2107536563601471  1.0000
  F   F10       1.0  0.06242527047223934  0.3590824942513819  0.2892472289022337  1.0000
  F   F11       1.0  0.4375757582972779  0.14091621053648143  0.21075347226394578  1.0000
  F   F12       1.0  0.3590830190251779  0.06242399844443711  0.28924671045400885  1.0000
  F   F13       1.0  0.7107520396915274  0.7107537182437157  0.9375755063741028  1.0000
  F   F14       1.0  0.7892448709941958  0.7892468413634148  0.8590827697110728  1.0000
  F   F15       1.0  0.7107532726652651  0.710754158294911  0.6409178865615104  1.0000
  F   F16       1.0  0.789246755786543  0.7892462952419946  0.5624249827234707  1.0000
  F   F17       1.0  0.7107548223114504  0.14091572309008152  0.93757496560459  1.0000
  F   F18       1.0  0.789248494240482  0.06242437931263096  0.8590813958025552  1.0000
  F   F19       1.0  0.7107538300346474  0.43757423647162585  0.6409171489167139  1.0000
  F   F20       1.0  0.7892471962935372  0.35908258702283297  0.5624246919842336  1.0000
  F   F21       1.0  0.14091807551181296  0.7107536133123489  0.21075311396077726  1.0000
  F   F22       1.0  0.062425210780766016  0.7892457642907619  0.28924607242070277  1.0000
  F   F23       1.0  0.43757630910610595  0.710752625150242  0.21075276167105986  1.0000
  F   F24       1.0  0.3590832713008253  0.7892454220506409  0.28924524728371637  1.0000
