data_image0
_chemical_formula_structural       Al4H41C66Br11N8O30
_chemical_formula_sum              "Al4 H41 C66 Br11 N8 O30"
_cell_length_a       6.5945156815727595
_cell_length_b       22.531247849836394
_cell_length_c       23.23755783711361
_cell_angle_alpha    68.10401072379118
_cell_angle_beta     89.26311219871495
_cell_angle_gamma    89.00481658831056

_space_group_name_H-M_alt    "P 1"
_space_group_IT_number       1

loop_
  _space_group_symop_operation_xyz
  'x, y, z'

loop_
  _atom_site_type_symbol
  _atom_site_label
  _atom_site_symmetry_multiplicity
  _atom_site_fract_x
  _atom_site_fract_y
  _atom_site_fract_z
  _atom_site_occupancy
  Al  Al1       1.0  0.1674937526524758  0.5026384839232139  0.4955768988418469  1.0000
  Al  Al2       1.0  0.6659622817536429  0.5015180276508033  0.49634317341944706  1.0000
  Al  Al3       1.0  0.5899003000669154  0.002474243266853196  0.9959683768432723  1.0000
  Al  Al4       1.0  0.0909247502599086  0.005823188974474597  0.9973697822235008  1.0000
  H   H1        1.0  0.1122787738114681  0.6879520110735841  0.18725335039049185  1.0000
  H   H2        1.0  0.149142938717894  0.7771359978035336  0.8768955163693803  1.0000
  H   H3        1.0  0.6445838684358521  0.36579491473310105  0.2786171087275449  1.0000
  H   H4        1.0  0.6858515827676968  0.12272166160458654  0.2021491493910972  1.0000
  H   H5        1.0  0.6447450939084263  0.07044572940685612  0.1253947168824325  1.0000
  H   H6        1.0  0.6828487082369107  0.40269740458194286  0.6885959367087723  1.0000
  H   H7        1.0  0.1966733337108764  0.3085800919677197  0.636797722202054  1.0000
  H   H8        1.0  0.4181674511346856  0.8142383555631272  0.911138009813797  1.0000
  H   H9        1.0  0.27923429313806025  0.7542792440278774  0.9720285774166086  1.0000
  H   H10       1.0  0.4328329348560232  0.8104901637661616  0.9893611364394699  1.0000
  H   H11       1.0  0.7967350890640718  0.8112181517878768  0.5796855724840242  1.0000
  H   H12       1.0  0.5249789280161606  0.8182011567512789  0.5810472232436438  1.0000
  H   H13       1.0  0.6431018418450307  0.7773954751786507  0.5358532483821036  1.0000
  H   H14       1.0  0.43131543713320053  0.5950197051897916  0.5775194015362074  1.0000
  H   H15       1.0  0.3540075481122499  0.6696448656134069  0.5199525004845781  1.0000
  H   H16       1.0  0.3724498252057201  0.662660768792975  0.5993894634366937  1.0000
  H   H17       1.0  0.2331350553970069  0.20295063517345827  0.4964569710428035  1.0000
  H   H18       1.0  0.31995917683739356  0.1647154455744158  0.4442217159240228  1.0000
  H   H19       1.0  0.058516131061033094  0.16049119348524957  0.4673668354058619  1.0000
  H   H20       1.0  0.9299439133094651  0.38901471229640106  0.44082649594188433  1.0000
  H   H21       1.0  0.8832964389278358  0.3186507165043083  0.508067056899847  1.0000
  H   H22       1.0  0.8932445613742815  0.31297226321193256  0.43304688618408693  1.0000
  H   H23       1.0  0.9605314131153052  0.024941947702067997  0.7981845335655178  1.0000
  H   H24       1.0  0.021060891619818306  0.0800309095141714  0.7215904749785904  1.0000
  H   H25       1.0  0.8805243009291531  0.10712165220428464  0.7741651554042333  1.0000
  H   H26       1.0  0.1313803313810169  0.18838419226205627  0.5995049092579378  1.0000
  H   H27       1.0  0.30185623349471763  0.135220971671437  0.6560779827286963  1.0000
  H   H28       1.0  0.3585752232354907  0.21880899217919142  0.619166156348335  1.0000
  H   H29       1.0  0.29652799179716277  0.8189457321077644  0.26454096529844406  1.0000
  H   H30       1.0  0.28957888505729557  0.8014464071448232  0.3465148182300624  1.0000
  H   H31       1.0  0.37376718629720074  0.7409248563859167  0.31836518237292916  1.0000
  H   H32       1.0  0.8465024435385048  0.783653014565509  0.38269288291286346  1.0000
  H   H33       1.0  0.9848599364004825  0.7102213833817502  0.4235754704452858  1.0000
  H   H34       1.0  0.7500193895799895  0.7266946372207672  0.4546759635769106  1.0000
  H   H35       1.0  0.4806151138546682  0.9201997460711057  0.6804307959155976  1.0000
  H   H36       1.0  0.753209652063653  0.9150120372301916  0.6840140721987921  1.0000
  H   H37       1.0  0.6164928452151132  0.9704726016569155  0.7104995807786806  1.0000
  H   H38       1.0  0.4165981200869737  0.5827665319491616  0.44859574820962667  1.0000
  H   H39       1.0  0.9236586496122073  0.4218190394517052  0.5421131842777527  1.0000
  H   H40       1.0  0.33392413982373637  0.9321337009894681  0.9855310938038854  1.0000
  H   H41       1.0  0.8316509192319046  0.08845342069608363  0.9627320534914359  1.0000
  C   C1        1.0  0.41339162579311056  0.4325846280093729  0.43742125330311404  1.0000
  C   C2        1.0  0.4214857867811332  0.41615938531914776  0.5966800470082487  1.0000
  C   C3        1.0  0.9130451091885945  0.5634970884383962  0.5626218664658821  1.0000
  C   C4        1.0  0.9110473650937295  0.5877578315292881  0.39549821862785695  1.0000
  C   C5        1.0  0.8310318274433114  0.8602259017976197  0.15687293359566473  1.0000
  C   C6        1.0  0.912375460969791  0.6418798258606276  0.3334294285815814  1.0000
  C   C7        1.0  0.026451800906315298  0.6908299987931487  0.22640325591426347  1.0000
  C   C8        1.0  0.022168976632137596  0.6392009337534788  0.281692826841521  1.0000
  C   C9        1.0  0.8098431110730147  0.6981485881984143  0.3282369041322539  1.0000
  C   C10       1.0  0.8061381173293538  0.7525941818182889  0.27114242038256  1.0000
  C   C11       1.0  0.9210637521892198  0.7482793380288869  0.21968950338035137  1.0000
  C   C12       1.0  0.9259624651882988  0.8027554700168339  0.16307926365434613  1.0000
  C   C13       1.0  0.716422726515731  0.8630369174742826  0.2080439462250965  1.0000
  C   C14       1.0  0.6962438813911405  0.8103568271398347  0.2630037559682066  1.0000
  C   C15       1.0  0.7271770096256063  0.9070162060820695  0.8465856100914805  1.0000
  C   C16       1.0  0.7384299882158772  0.8697710552173492  0.8096169747918507  1.0000
  C   C17       1.0  0.8916360563232927  0.8228140197648844  0.8220812395340642  1.0000
  C   C18       1.0  0.0337939069655349  0.8143980018155477  0.8685501696679336  1.0000
  C   C19       1.0  0.029183042894160786  0.853903990465341  0.9027487731659176  1.0000
  C   C20       1.0  0.8705385300449322  0.900144780470356  0.8931199347510842  1.0000
  C   C21       1.0  0.9159849078459815  0.7060638755146018  0.7253371889395621  1.0000
  C   C22       1.0  0.9028424652595818  0.7804528920768873  0.786446130547084  1.0000
  C   C23       1.0  0.7749769931382959  0.6821351636540031  0.638943259072711  1.0000
  C   C24       1.0  0.771844597184618  0.6476697942180042  0.5994104432819113  1.0000
  C   C25       1.0  0.9047717128992332  0.5949882665544026  0.6096651176096443  1.0000
  C   C26       1.0  0.031237178377765015  0.5751516651232436  0.6622295065625109  1.0000
  C   C27       1.0  0.039142071999819415  0.6108852391635295  0.7003674796073723  1.0000
  C   C28       1.0  0.9119724109540429  0.664871191548521  0.6885191337352764  1.0000
  C   C29       1.0  0.5439481345719342  0.3990407713617118  0.34994986397454386  1.0000
  C   C30       1.0  0.5443017944272839  0.35774128478031036  0.3182536178692672  1.0000
  C   C31       1.0  0.41682700473168677  0.3043333265376021  0.33697446366029726  1.0000
  C   C32       1.0  0.28332608057912984  0.29428526446192665  0.38759423165254947  1.0000
  C   C33       1.0  0.286296382993406  0.33626645036031283  0.42003151035766695  1.0000
  C   C34       1.0  0.4169563415493301  0.389014242730788  0.40167192133243645  1.0000
  C   C35       1.0  0.4176641113088806  0.19803229665336627  0.2304651566522864  1.0000
  C   C36       1.0  0.4319856408826793  0.2613307422575701  0.3025221482181308  1.0000
  C   C37       1.0  0.546378674340943  0.12915269695897547  0.1757866640872194  1.0000
  C   C38       1.0  0.5238638462808467  0.10010395927233164  0.13312826308636258  1.0000
  C   C39       1.0  0.34589644500213984  0.10823742562433841  0.09852914128261149  1.0000
  C   C40       1.0  0.19186262393934334  0.14960269851232513  0.1048439737296789  1.0000
  C   C41       1.0  0.21300921549841687  0.17794074063240123  0.14904660814973167  1.0000
  C   C42       1.0  0.38935856807130165  0.16724133707873534  0.1848856385534816  1.0000
  C   C43       1.0  0.3528332055346581  0.1508966102789913  0.8380241125345049  1.0000
  C   C44       1.0  0.42719171170254094  0.3630052600947026  0.6583399641773154  1.0000
  C   C45       1.0  0.5912747045868302  0.3136356693644161  0.7579908893933192  1.0000
  C   C46       1.0  0.5763832951677159  0.36342082459511726  0.7012687688454091  1.0000
  C   C47       1.0  0.3058117324569595  0.3103337840499592  0.6708420907586113  1.0000
  C   C48       1.0  0.32878190070677965  0.2566465295345922  0.7267290905879235  1.0000
  C   C49       1.0  0.4606418099034642  0.25958952719035017  0.7749243679996807  1.0000
  C   C50       1.0  0.4499299365929303  0.20659018978266636  0.8327526446407986  1.0000
  C   C51       1.0  0.2506390017889045  0.14495326739673692  0.7868569077415655  1.0000
  C   C52       1.0  0.2294168489633392  0.19873812601485238  0.7329185399423962  1.0000
  C   C53       1.0  0.3490601997883473  0.09422999765777013  0.8984961247877975  1.0000
  C   C54       1.0  0.33282691602317277  0.0695449379264943  0.058444277128074894  1.0000
  C   C55       1.0  0.8337575385576413  0.9165514678278442  0.09588444439438604  1.0000
  C   C56       1.0  0.8590017798152091  0.9392287057736793  0.9332177793880518  1.0000
  C   C57       1.0  0.33365317732396704  0.8038292647852642  0.9548748371627056  1.0000
  C   C58       1.0  0.6531012145649342  0.787763911377489  0.5782771908800227  1.0000
  C   C59       1.0  0.4370801641777434  0.6470938000946518  0.5634087331983081  1.0000
  C   C60       1.0  0.19383989912752503  0.19033198861549755  0.4566237283246649  1.0000
  C   C61       1.0  0.9549578236387077  0.3371726857830524  0.462051606286117  1.0000
  C   C62       1.0  0.00046023529040440037  0.0744206915384851  0.7702967894478475  1.0000
  C   C63       1.0  0.2360474052964179  0.18397387802598086  0.6371885362348377  1.0000
  C   C64       1.0  0.3712809299440849  0.7925315972085801  0.3091217983790526  1.0000
  C   C65       1.0  0.8332211329570995  0.7326697002991269  0.4119154206815523  1.0000
  C   C66       1.0  0.6141305224141859  0.9232560021920906  0.7067199895286221  1.0000
  Br  Br1       1.0  0.0553160792512202  0.7945199951824695  0.09251155312550446  1.0000
  Br  Br2       1.0  0.17851427390452562  0.49659158384993435  0.6857419852307344  1.0000
  Br  Br3       1.0  0.23354001896270662  0.5903812390989814  0.7644993267006868  1.0000
  Br  Br4       1.0  0.7180049972644015  0.47078750855678225  0.31904450719641625  1.0000
  Br  Br5       1.0  0.5858933465723554  0.9401200174790676  0.20417185527459483  1.0000
  Br  Br6       1.0  0.9666267701930806  0.1726903101699122  0.05082473662888281  1.0000
  Br  Br7       1.0  0.006475707990666998  0.2314137611172954  0.16211879279848054  1.0000
  Br  Br8       1.0  0.5336148145148627  0.21249809586834806  0.9089052097916123  1.0000
  Br  Br9       1.0  0.8209538554330039  0.31801798065505693  0.8053872205290132  1.0000
  Br  Br10      1.0  0.17070249630221213  0.564199435350716  0.2872189539587708  1.0000
  Br  Br11      1.0  0.5102941749265568  0.9679195727626465  0.829900733089012  1.0000
  N   N1        1.0  0.937442789983237  0.8074764968100256  0.7247374775032397  1.0000
  N   N2        1.0  0.946955681289545  0.7690591563565835  0.693438866462543  1.0000
  N   N3        1.0  0.8894312586682674  0.6787817824200177  0.7872915318079591  1.0000
  N   N4        1.0  0.8860261274403102  0.7170015272103643  0.8189366955083414  1.0000
  N   N5        1.0  0.35376456587274424  0.2017646197752683  0.3260558362027339  1.0000
  N   N6        1.0  0.34141980145918177  0.17029104479803442  0.28824060802803325  1.0000
  N   N7        1.0  0.5486670846076791  0.24715334754608165  0.2149504404819496  1.0000
  N   N8        1.0  0.5516503646015849  0.28019132788807616  0.2512007849913687  1.0000
  O   O1        1.0  0.5907074318392561  0.44230472379523195  0.5761931010564892  1.0000
  O   O2        1.0  0.24248984755333677  0.45654104999022144  0.44299891967840915  1.0000
  O   O3        1.0  0.08020820537664972  0.5728614702650177  0.42307990211902075  1.0000
  O   O4        1.0  0.2537573950099841  0.4311617552312371  0.5678958921084031  1.0000
  O   O5        1.0  0.08838001661705873  0.549758116047464  0.5474032336579454  1.0000
  O   O6        1.0  0.5806736113652277  0.4411330366338931  0.45963734428445946  1.0000
  O   O7        1.0  0.4161109487054945  0.5423009966744561  0.4837471412769501  1.0000
  O   O8        1.0  0.7464611231972783  0.5553243954657037  0.5402772547944109  1.0000
  O   O9        1.0  0.7425486266396745  0.5618402344351596  0.41619183708979063  1.0000
  O   O10       1.0  0.9189389768410833  0.46274485340888566  0.5076765006975277  1.0000
  O   O11       1.0  0.16135933377968567  0.04925268916768032  0.05067615223167369  1.0000
  O   O12       1.0  0.5183915614154416  0.0660461681357418  0.9160673934881839  1.0000
  O   O13       1.0  0.6871208748708426  0.9449348941491849  0.9562308304021839  1.0000
  O   O14       1.0  0.5000856777006321  0.05773884729301672  0.03682819937078109  1.0000
  O   O15       1.0  0.6612927654249462  0.9381366954639818  0.07377320707058031  1.0000
  O   O16       1.0  0.17935254381850999  0.08002384308552021  0.9260920845096121  1.0000
  O   O17       1.0  0.33938210152789594  0.9649683886821522  0.003178845946251902  1.0000
  O   O18       1.0  0.004355937741742399  0.9363731688252488  0.07145381532954088  1.0000
  O   O19       1.0  0.023699971069433393  0.9629103530257342  0.941697934985953  1.0000
  O   O20       1.0  0.8369854845546101  0.042756105963029284  0.9864118335191774  1.0000
  O   O21       1.0  0.16878228765816772  0.8485557582838583  0.9471531874757628  1.0000
  O   O22       1.0  0.6361052040345214  0.7299679800918499  0.6329874861403865  1.0000
  O   O23       1.0  0.6444269994852405  0.6685413031548607  0.5495469191256318  1.0000
  O   O24       1.0  0.14150671151464417  0.24695939438109357  0.4040249202704516  1.0000
  O   O25       1.0  0.17003681977960383  0.3229239435645966  0.4726452800859632  1.0000
  O   O26       1.0  0.18735567100627287  0.08475762733615971  0.7964813387399868  1.0000
  O   O27       1.0  0.11737653176520271  0.19712090745105124  0.6836539686375713  1.0000
  O   O28       1.0  0.5739263833139675  0.8157090937487513  0.3090085889907853  1.0000
  O   O29       1.0  0.7174413862334889  0.6995427223009899  0.3810946593044804  1.0000
  O   O30       1.0  0.5915141401113927  0.8729899495863478  0.7670484241338683  1.0000
