data_image0
_chemical_formula_structural       Zr6H23C50N5O42F2
_chemical_formula_sum              "Zr6 H23 C50 N5 O42 F2"
_cell_length_a       14.756934878470497
_cell_length_b       14.788625060210752
_cell_length_c       14.804288870040965
_cell_angle_alpha    60.148272370765426
_cell_angle_beta     59.98169189818091
_cell_angle_gamma    60.113291124608786

_space_group_name_H-M_alt    "P 1"
_space_group_IT_number       1

loop_
  _space_group_symop_operation_xyz
  'x, y, z'

loop_
  _atom_site_type_symbol
  _atom_site_label
  _atom_site_symmetry_multiplicity
  _atom_site_fract_x
  _atom_site_fract_y
  _atom_site_fract_z
  _atom_site_occupancy
  Zr  Zr1       1.0  0.8770380570856274  0.8828687669171844  0.6168251875765023  1.0000
  Zr  Zr2       1.0  0.1183550432628167  0.12012718232232794  0.37811314777089683  1.0000
  Zr  Zr3       1.0  0.11689331322190108  0.8818731509594926  0.6168432704820789  1.0000
  Zr  Zr4       1.0  0.8781842822172479  0.12132776688555684  0.37802471475471594  1.0000
  Zr  Zr5       1.0  0.11656904422311241  0.8818166503245378  0.37772872078613784  1.0000
  Zr  Zr6       1.0  0.8783403891971487  0.12150105175259551  0.6169064114872145  1.0000
  H   H1        1.0  0.08976869648582629  0.7196935758160663  0.5920850344777692  1.0000
  H   H2        1.0  0.0923982943691684  0.09513413411302452  0.21557312949229868  1.0000
  H   H3        1.0  0.09327489977601292  0.09452295826314841  0.5914529303938281  1.0000
  H   H4        1.0  0.7143671116104146  0.09641362553189478  0.5921705345844118  1.0000
  H   H5        1.0  0.8398593309931356  0.5946857422111478  0.63250018666416  1.0000
  H   H6        1.0  0.1499967872779281  0.5811871342508823  0.3625117691448737  1.0000
  H   H7        1.0  0.8462326379095657  0.42279125647188914  0.6305483891032183  1.0000
  H   H8        1.0  0.5914803005216743  0.8452588757710656  0.9242319662048006  1.0000
  H   H9        1.0  0.5950891664646817  0.1365991642141326  0.9199608332815998  1.0000
  H   H10       1.0  0.42233731174610517  0.8471367361931641  0.09487678515707637  1.0000
  H   H11       1.0  0.1331933443193378  0.8460032223417285  0.09017779004486924  1.0000
  H   H12       1.0  0.8525640043745994  0.14617051529275926  0.08462135714559345  1.0000
  H   H13       1.0  0.13158679392492448  0.8496729699752659  0.9196242729414198  1.0000
  H   H14       1.0  0.590976682837173  0.43066965694661263  0.6324548505071521  1.0000
  H   H15       1.0  0.5859360308499005  0.414457164654003  0.3528465182467998  1.0000
  H   H16       1.0  0.4212212629419198  0.5999818376568911  0.6291290986694307  1.0000
  H   H17       1.0  0.7403477919568433  0.6290506509406483  0.9557659931339517  1.0000
  H   H18       1.0  0.8343680583761566  0.5441818169949212  0.8705088669406252  1.0000
  H   H19       1.0  0.8338194879372551  0.37446944117899505  0.03983767151832757  1.0000
  H   H20       1.0  0.7404462521724255  0.45924782921056817  0.12530120520487031  1.0000
  H   H21       1.0  0.5888184114589876  0.13821262913646848  0.34265473443893774  1.0000
  H   H22       1.0  0.5854617039535982  0.8573403909440176  0.641514383676288  1.0000
  H   H23       1.0  0.4190697644593229  0.13417023150417146  0.34663616091594923  1.0000
  C   C1        1.0  0.9915915996167896  0.7017011724366498  0.4956280120285045  1.0000
  C   C2        1.0  0.3076440894143742  0.9954892538102768  0.1993865571299338  1.0000
  C   C3        1.0  0.9983684209626348  0.30589890408793957  0.4958608879536826  1.0000
  C   C4        1.0  0.6991035470127969  0.9957779670665801  0.8060147343036165  1.0000
  C   C5        1.0  0.9913812893653496  0.705848854659344  0.8051707174305138  1.0000
  C   C6        1.0  0.6968793262231188  0.9999397605593003  0.49256898970192964  1.0000
  C   C7        1.0  0.9931015364651828  0.3081294372872207  0.20062061505436207  1.0000
  C   C8        1.0  0.30572253862698784  0.9952353838101543  0.4946532478805993  1.0000
  C   C9        1.0  0.3045867441839858  0.7011897315299721  0.49325498851416694  1.0000
  C   C10       1.0  0.9940597373949062  0.9986897213837478  0.8044131726177638  1.0000
  C   C11       1.0  0.69846953476123  0.31010720714755996  0.4943897092657822  1.0000
  C   C12       1.0  0.9941449114807668  0.9968131102940914  0.19757881706672017  1.0000
  C   C13       1.0  0.0008079156298350687  0.40523494054009024  0.49698570413244175  1.0000
  C   C14       1.0  0.9933113374719085  0.5993900149750006  0.4964483494415362  1.0000
  C   C15       1.0  0.08660134063588756  0.4504273142068555  0.42365886814189924  1.0000
  C   C16       1.0  0.9083650131519292  0.5540965263960586  0.5731390652037904  1.0000
  C   C17       1.0  0.08291207144442582  0.5472964629836524  0.4209318020816185  1.0000
  C   C18       1.0  0.9118982051296527  0.4587957681555324  0.5722872730527584  1.0000
  C   C19       1.0  0.4124811444240567  0.9931267159936396  0.10207313476050944  1.0000
  C   C20       1.0  0.6020819626470841  0.9917902868345435  0.9108952144242226  1.0000
  C   C21       1.0  0.46382921145491457  0.0728919791988432  0.052017365949247094  1.0000
  C   C22       1.0  0.5546372643191686  0.9091268293882065  0.9609002554691416  1.0000
  C   C23       1.0  0.5570681021064343  0.07356972268416223  0.9575395082955896  1.0000
  C   C24       1.0  0.4608594274941282  0.9102170423791521  0.05522009953854476  1.0000
  C   C25       1.0  0.9916603957695573  0.9986044529256973  0.9066682846704381  1.0000
  C   C26       1.0  0.9931117108006119  0.995801878535737  0.09744843051687718  1.0000
  C   C27       1.0  0.9138241507709778  0.08140226555817523  0.9547175649110645  1.0000
  C   C28       1.0  0.07162663439027026  0.9119015466613832  0.05145625103249785  1.0000
  C   C29       1.0  0.9134612469010507  0.08106924540560106  0.04873542207393215  1.0000
  C   C30       1.0  0.07058681169682761  0.9136641610723971  0.9571439004372664  1.0000
  C   C31       1.0  0.4071911109083928  0.6016442312351629  0.49095655426781803  1.0000
  C   C32       1.0  0.5985484629386165  0.41255106450360296  0.49291357865160296  1.0000
  C   C33       1.0  0.4556698517990301  0.5482096479978011  0.4134335329273995  1.0000
  C   C34       1.0  0.5523436014133054  0.46455658157567836  0.5709210589707825  1.0000
  C   C35       1.0  0.5500099313667377  0.4551545555415899  0.4132256872819441  1.0000
  C   C36       1.0  0.45791902955181746  0.5581172275483295  0.5694851088143977  1.0000
  C   C37       1.0  0.9892077863237674  0.609496187159323  0.9085674915003213  1.0000
  C   C38       1.0  0.9904600122096028  0.41159943083459183  0.10417938972938884  1.0000
  C   C39       1.0  0.9123959953999475  0.5552928008803732  0.9576904038654849  1.0000
  C   C40       1.0  0.06727446648648794  0.4665982896510172  0.056739916003394265  1.0000
  C   C41       1.0  0.9127786811473018  0.4610226993825109  0.0511264806133911  1.0000
  C   C42       1.0  0.0662510349077081  0.5621421224242482  0.962864088334051  1.0000
  C   C43       1.0  0.8153389828783377  0.5565722269940421  0.9461857214343752  1.0000
  C   C44       1.0  0.8153490617728563  0.4498065830226706  0.05255511271185046  1.0000
  C   C45       1.0  0.4073355823873543  0.993928678602792  0.4948974287383265  1.0000
  C   C46       1.0  0.5972149945769657  0.9979328110366197  0.49157282985045503  1.0000
  C   C47       1.0  0.45555825082885076  0.9166108311274145  0.5773543287158418  1.0000
  C   C48       1.0  0.5507903598448394  0.07597326908414452  0.4083060836926934  1.0000
  C   C49       1.0  0.5493241652776888  0.9174705399572359  0.5767115231868445  1.0000
  C   C50       1.0  0.45675489140817405  0.0738045149887725  0.41023727669939813  1.0000
  N   N1        1.0  0.18974756006107907  0.39631930880579336  0.3476630494887871  1.0000
  N   N2        1.0  0.42328597208922497  0.16247045354607798  0.09519116561570234  1.0000
  N   N3        1.0  0.8271998264087798  0.17570053078904369  0.9082299358624795  1.0000
  N   N4        1.0  0.408932147957394  0.5860237859550351  0.32735413272457253  1.0000
  N   N5        1.0  0.4093926875714047  0.8298041291685295  0.6717489574449543  1.0000
  O   O1        1.0  0.9146693533601751  0.7406692614503427  0.5728318326206862  1.0000
  O   O2        1.0  0.265498285341188  0.07420566440420366  0.23692016978721858  1.0000
  O   O3        1.0  0.0733936757252636  0.2673932709989515  0.4181163371592476  1.0000
  O   O4        1.0  0.7353258396586428  0.9214935874909145  0.7643492061761211  1.0000
  O   O5        1.0  0.06945471356156932  0.7448193464452116  0.7620838287148359  1.0000
  O   O6        1.0  0.7352122627767556  0.07777151296325971  0.4169094754141584  1.0000
  O   O7        1.0  0.9170955398717522  0.26820870757130416  0.23614720767767494  1.0000
  O   O8        1.0  0.2650179652505641  0.9194668227515664  0.5719083872735382  1.0000
  O   O9        1.0  0.2643699899674985  0.7400820054624688  0.4173618062573611  1.0000
  O   O10       1.0  0.9183015838462013  0.07605759051151031  0.7639902692668272  1.0000
  O   O11       1.0  0.7367208458183969  0.27019096211974153  0.5720260677631972  1.0000
  O   O12       1.0  0.07188628907228183  0.920860023754102  0.23573136323160782  1.0000
  O   O13       1.0  0.07185151556323892  0.9227759666312778  0.7648380423430085  1.0000
  O   O14       1.0  0.7363010432581376  0.26965872352609216  0.41881273242761113  1.0000
  O   O15       1.0  0.9182155655221322  0.07466743451870873  0.23586362762500812  1.0000
  O   O16       1.0  0.26453321288030923  0.7384369379119632  0.5715046100445138  1.0000
  O   O17       1.0  0.9157530512636569  0.7410143998375175  0.7654492849000578  1.0000
  O   O18       1.0  0.2664787105428842  0.0722797643135351  0.41858931406945754  1.0000
  O   O19       1.0  0.0705474101671584  0.2654769084487683  0.2398136645774542  1.0000
  O   O20       1.0  0.7349982666043929  0.9243390389167985  0.5703466127177919  1.0000
  O   O21       1.0  0.7367039260770554  0.0743689933963052  0.7648473556954798  1.0000
  O   O22       1.0  0.0684727349944794  0.741201199800038  0.4187847825451314  1.0000
  O   O23       1.0  0.26682997338043885  0.9205253010420192  0.23591343530672765  1.0000
  O   O24       1.0  0.9207155508627807  0.2675847285686715  0.572715966140507  1.0000
  O   O25       1.0  0.7947921754717912  0.0699576026100317  0.564889456988226  1.0000
  O   O26       1.0  0.06581561142928652  0.06824847344883972  0.5647969849596423  1.0000
  O   O27       1.0  0.06538165007025042  0.06770105727173358  0.29571398241201763  1.0000
  O   O28       1.0  0.06384437397558426  0.7998109318951379  0.5643887780775999  1.0000
  O   O29       1.0  0.1465556333249365  0.9510834921528399  0.44774327394593183  1.0000
  O   O30       1.0  0.9471156513739913  0.9523169212613851  0.4477002071929447  1.0000
  O   O31       1.0  0.9482822587525207  0.14998470083762785  0.44829985663486843  1.0000
  O   O32       1.0  0.9472422095586382  0.952634506465088  0.6461617118841901  1.0000
  O   O33       1.0  0.25637593086906196  0.31264540009874514  0.39060806351927374  1.0000
  O   O34       1.0  0.2040230259089171  0.4427400012740179  0.24798561865678442  1.0000
  O   O35       1.0  0.3647195975164195  0.2535426796230169  0.05077934928881692  1.0000
  O   O36       1.0  0.4576931885369291  0.13998789467466108  0.16723254754899847  1.0000
  O   O37       1.0  0.8506590354560188  0.26065981668975996  0.8416289274743819  1.0000
  O   O38       1.0  0.7364210485121346  0.16434683165291367  0.9447956017499383  1.0000
  O   O39       1.0  0.3377727022708825  0.5486230890409942  0.352839627493033  1.0000
  O   O40       1.0  0.4497701147647462  0.6464641786158865  0.23500528391832629  1.0000
  O   O41       1.0  0.33992843416832147  0.8539016414372396  0.755767469861276  1.0000
  O   O42       1.0  0.44916883838798344  0.7382238438639559  0.6613694751981499  1.0000
  F   F1        1.0  0.1461940605341212  0.4304486365277  0.09854493596139244  1.0000
  F   F2        1.0  0.14432518396647256  0.6057902608852642  0.9272154161512347  1.0000
