data_image0
_chemical_formula_structural       Tb2MnH40C56N8O24
_chemical_formula_sum              "Tb2 Mn1 H40 C56 N8 O24"
_cell_length_a       10.110320675433655
_cell_length_b       10.803675105446379
_cell_length_c       13.589211170710787
_cell_angle_alpha    79.18969991667477
_cell_angle_beta     78.79116792040875
_cell_angle_gamma    86.17111220941396

_space_group_name_H-M_alt    "P 1"
_space_group_IT_number       1

loop_
  _space_group_symop_operation_xyz
  'x, y, z'

loop_
  _atom_site_type_symbol
  _atom_site_label
  _atom_site_symmetry_multiplicity
  _atom_site_fract_x
  _atom_site_fract_y
  _atom_site_fract_z
  _atom_site_occupancy
  Tb  Tb1       1.0  0.3177485314260622  0.9144520467278664  0.3017129201156408  1.0000
  Tb  Tb2       1.0  0.6822543824413501  0.08555291140297068  0.6982873021276602  1.0000
  Mn  Mn1       1.0  3.3041373513022886e-06  0.4999988459141136  0.5000004723613144  1.0000
  H   H1        1.0  0.8055835688344928  0.8960637659099717  0.3009275547638736  1.0000
  H   H2        1.0  0.19441125417445454  0.1039412096008547  0.6990767436371284  1.0000
  H   H3        1.0  0.10226623605841213  0.8296180961422052  0.04104651102571205  1.0000
  H   H4        1.0  0.8977310571584454  0.1703727423159478  0.9589610545246499  1.0000
  H   H5        1.0  0.6796549008783046  0.8621016841178742  0.02279573194503126  1.0000
  H   H6        1.0  0.3203452053327069  0.1378966763470615  0.9772058838684355  1.0000
  H   H7        1.0  0.037326481334609696  0.8434717658329091  0.7016917412369281  1.0000
  H   H8        1.0  0.9626715468605058  0.1565275540758861  0.29831370024373877  1.0000
  H   H9        1.0  0.0510882731813709  0.7500059668712423  0.5475385783756579  1.0000
  H   H10       1.0  0.9489178337443818  0.24999334180917293  0.45246425950620756  1.0000
  H   H11       1.0  0.9959133345737073  0.3894375613508103  0.719120507493251  1.0000
  H   H12       1.0  0.00408867695929871  0.6105636354593356  0.2808826189285085  1.0000
  H   H13       1.0  0.9982136937932893  0.4664039885383033  0.8793658414061196  1.0000
  H   H14       1.0  0.0017883980227680002  0.5335953134531124  0.120635353157347  1.0000
  H   H15       1.0  0.3302750915624131  0.6807763680150032  0.1590281571912229  1.0000
  H   H16       1.0  0.6697208503744748  0.31922669666349884  0.8409703865742485  1.0000
  H   H17       1.0  0.3363110262298221  0.3145864792177377  0.07464453535452976  1.0000
  H   H18       1.0  0.6636868891842909  0.685417533138832  0.9253550597198339  1.0000
  H   H19       1.0  0.2847680277057237  0.3463439480009853  0.3904550635738245  1.0000
  H   H20       1.0  0.7152308589241726  0.6536610095924473  0.6095449879099775  1.0000
  H   H21       1.0  0.36042053453626727  0.7829934332203834  0.8666320267092543  1.0000
  H   H22       1.0  0.6395785437054045  0.2170067919399088  0.133364299547992  1.0000
  H   H23       1.0  0.3682222896991619  0.9040696342591731  0.6928057155675231  1.0000
  H   H24       1.0  0.6317778589591966  0.09592870467517402  0.3071907462897912  1.0000
  H   H25       1.0  0.3490837398856783  0.5823116820087789  0.5722549063309541  1.0000
  H   H26       1.0  0.650919458730506  0.41768571530189996  0.4277420061558814  1.0000
  H   H27       1.0  0.34831846256644633  0.4427963714869423  0.74436130436451  1.0000
  H   H28       1.0  0.651678648988039  0.5572019755027994  0.2556370541916663  1.0000
  H   H29       1.0  0.8526651658099381  0.8319605667808856  0.8773004649294903  1.0000
  H   H30       1.0  0.1473380713680967  0.16803402982496607  0.12270348954248075  1.0000
  H   H31       1.0  0.3513487870670389  0.6603951513954769  0.992239960053098  1.0000
  H   H32       1.0  0.648653310086786  0.33960507493682  0.007756678343632505  1.0000
  H   H33       1.0  0.02866855499632949  0.25621676861041465  0.6000283021977777  1.0000
  H   H34       1.0  0.9713387094192141  0.7437778285328419  0.3999758230336921  1.0000
  H   H35       1.0  0.15647387889088551  0.29482069091025664  0.5130993295292966  1.0000
  H   H36       1.0  0.8435303416307394  0.7051748447808707  0.4869036087932129  1.0000
  H   H37       1.0  0.3187736816493612  0.8371629185554067  0.533097028173401  1.0000
  H   H38       1.0  0.6812302276894542  0.16284297250911098  0.4669007053615388  1.0000
  H   H39       1.0  0.29396326310686755  0.9865992310534464  0.48889406045006467  1.0000
  H   H40       1.0  0.7060395765413929  0.0134076188203309  0.5111073573720901  1.0000
  C   C1        1.0  0.5850311858585968  0.8994955821822401  0.2129856739767959  1.0000
  C   C2        1.0  0.4149719082189094  0.10050372225037306  0.787016115486132  1.0000
  C   C3        1.0  0.7296047682888442  0.8837725150466295  0.16529407669715823  1.0000
  C   C4        1.0  0.270394168304577  0.11623056310705951  0.8347077243256038  1.0000
  C   C5        1.0  0.8315970817315658  0.8823768271815311  0.22203830904060592  1.0000
  C   C6        1.0  0.16839992528424122  0.1176234269301375  0.7779649264916627  1.0000
  C   C7        1.0  0.9659804038055528  0.8635809037165316  0.17620306291470192  1.0000
  C   C8        1.0  0.034017704672614  0.1364165213735262  0.823800446707665  1.0000
  C   C9        1.0  0.9973551487215533  0.8428363580370615  0.07540689517639977  1.0000
  C   C10       1.0  0.0026410051972404996  0.15715918273085086  0.9245971741860045  1.0000
  C   C11       1.0  0.8948711759535399  0.8386973701720063  0.020486411838696535  1.0000
  C   C12       1.0  0.10512811499616959  0.16129440366102435  0.9795192599027585  1.0000
  C   C13       1.0  0.7610931004886865  0.8632091351520399  0.06450824305475317  1.0000
  C   C14       1.0  0.23890604057045547  0.13678827700022816  0.935492180069829  1.0000
  C   C15       1.0  0.0804282032872123  0.8651105299585634  0.2305064026520469  1.0000
  C   C16       1.0  0.9195706091235393  0.13489631937780902  0.7694948444106017  1.0000
  C   C17       1.0  0.009767645132292608  0.7051184874772218  0.903506423672688  1.0000
  C   C18       1.0  0.9902367313438133  0.29487140681886354  0.09650102698724788  1.0000
  C   C19       1.0  0.012611723694924103  0.6624823933241899  0.8047567746688955  1.0000
  C   C20       1.0  0.9873904741120896  0.3375131467119346  0.19524718269303062  1.0000
  C   C21       1.0  0.027059070886274083  0.7420834835166231  0.7096588526577532  1.0000
  C   C22       1.0  0.972943139048553  0.25791205036789927  0.29034363214527287  1.0000
  C   C23       1.0  0.0325997561536084  0.6905575273418663  0.622571064802969  1.0000
  C   C24       1.0  0.9674044272584439  0.309438954220724  0.377432471308964  1.0000
  C   C25       1.0  0.005077641540388804  0.4892636074337345  0.7180738670617045  1.0000
  C   C26       1.0  0.9949234737221175  0.5107338249799226  0.2819314272590603  1.0000
  C   C27       1.0  0.006307508377773307  0.5325779445782287  0.807370658677847  1.0000
  C   C28       1.0  0.9936935319394564  0.4674223069950544  0.1926320113344815  1.0000
  C   C29       1.0  0.2695595780901244  0.6034832108678997  0.36215280751440554  1.0000
  C   C30       1.0  0.730442556899412  0.39651514217624145  0.6378470529801915  1.0000
  C   C31       1.0  0.3010117703776132  0.52218265510281  0.28282055123005273  1.0000
  C   C32       1.0  0.6989901344383042  0.4778232310793059  0.7171759925059575  1.0000
  C   C33       1.0  0.325354367088444  0.5783649938691511  0.1798103059709247  1.0000
  C   C34       1.0  0.6746405476052288  0.4216390080880145  0.8201867681256019  1.0000
  C   C35       1.0  0.3360220074278288  0.5038157300399958  0.10422362613229548  1.0000
  C   C36       1.0  0.663983003373339  0.49618733200290427  0.8957743814927424  1.0000
  C   C37       1.0  0.32823823048828155  0.37258315232747913  0.13260158407886274  1.0000
  C   C38       1.0  0.6717648257535204  0.6274180253932826  0.8673969832862055  1.0000
  C   C39       1.0  0.31011351931579156  0.3174346311484015  0.23564834856947664  1.0000
  C   C40       1.0  0.6898842847696044  0.6825722188225783  0.7643530398731639  1.0000
  C   C41       1.0  0.2971628019357624  0.3912047027104533  0.31076753401899276  1.0000
  C   C42       1.0  0.7028410331839011  0.6088030800970045  0.6892313950947865  1.0000
  C   C43       1.0  0.2979878090752095  0.17884767933143306  0.26492265371926027  1.0000
  C   C44       1.0  0.7020161562910374  0.8211563292175439  0.735076093075179  1.0000
  C   C45       1.0  0.3459575346166304  0.5119425915712341  0.9195481232542233  1.0000
  C   C46       1.0  0.6540406170350151  0.4880538845715634  0.08045405229927381  1.0000
  C   C47       1.0  0.353128000364471  0.6005359485330785  0.8194144869864672  1.0000
  C   C48       1.0  0.6468710596854805  0.3994642858546058  0.1805840481091252  1.0000
  C   C49       1.0  0.3592454423945739  0.7318599441423359  0.8047741271875708  1.0000
  C   C50       1.0  0.6407525654304109  0.2681421672439015  0.19522206346960053  1.0000
  C   C51       1.0  0.36246366994338075  0.8014543523550729  0.7072221829646209  1.0000
  C   C52       1.0  0.6375354643257225  0.19854399028967146  0.2927751565521318  1.0000
  C   C53       1.0  0.3543975294644994  0.6214707560385122  0.6397580837701966  1.0000
  C   C54       1.0  0.6456036525009736  0.3785266425413667  0.36023911147660914  1.0000
  C   C55       1.0  0.3523115599629705  0.5449417201913391  0.7344112573039681  1.0000
  C   C56       1.0  0.6476835288768968  0.4550566311433996  0.2655881202916389  1.0000
  N   N1        1.0  0.9239552835440676  0.8048661411092509  0.9230326858783184  1.0000
  N   N2        1.0  0.0760449097400482  0.1951293940444642  0.07697008168468499  1.0000
  N   N3        1.0  0.016131971015191496  0.5659497541823626  0.6256693788701282  1.0000
  N   N4        1.0  0.9838703138649124  0.4340429605425414  0.37433573024134137  1.0000
  N   N5        1.0  0.3521189275996335  0.5648983959535983  0.0025896655455710893  1.0000
  N   N6        1.0  0.6478820809457915  0.43510372583202894  0.9974090460894444  1.0000
  N   N7        1.0  0.3592536794249667  0.7474693828647218  0.6264525787629722  1.0000
  N   N8        1.0  0.6407484987380485  0.25252802123215196  0.3735459476627412  1.0000
  O   O1        1.0  0.5531902534152024  0.9147446361321486  0.3066932263345591  1.0000
  O   O2        1.0  0.4468095794487112  0.0852622064180366  0.6933064067892044  1.0000
  O   O3        1.0  0.4932208546363129  0.896908436538055  0.16088544877797514  1.0000
  O   O4        1.0  0.5067792212551724  0.10308993930587458  0.8391198484327518  1.0000
  O   O5        1.0  0.060513632635753795  0.8635908366624038  0.327881356421038  1.0000
  O   O6        1.0  0.9394833932979055  0.1364084808051942  0.6721234901601603  1.0000
  O   O7        1.0  0.19972088252671227  0.8692089374788594  0.17854963236227658  1.0000
  O   O8        1.0  0.8002766603393923  0.13080638842576056  0.8214483008317544  1.0000
  O   O9        1.0  0.0802185429422195  0.6477028630833601  0.9638489746910393  1.0000
  O   O10       1.0  0.9197814141043635  0.35230020828413433  0.036151212392830756  1.0000
  O   O11       1.0  0.3350729454910635  0.7038324856339527  0.34858079169060113  1.0000
  O   O12       1.0  0.6649209548133469  0.2961715200336171  0.6514171600653709  1.0000
  O   O13       1.0  0.17779179185193067  0.5724228406552854  0.4405070088603863  1.0000
  O   O14       1.0  0.8222122855691725  0.4275774028626032  0.5594937644530801  1.0000
  O   O15       1.0  0.30798493580631714  0.12283074232257007  0.35459011638621246  1.0000
  O   O16       1.0  0.6919958009671989  0.87717422669364  0.6454124799373631  1.0000
  O   O17       1.0  0.2773783261748619  0.11508483368515242  0.19846885544611576  1.0000
  O   O18       1.0  0.7226237156776705  0.8849163477459998  0.8015305895783909  1.0000
  O   O19       1.0  0.337734587704638  0.3974862257445082  0.9231298772384305  1.0000
  O   O20       1.0  0.6622634329742924  0.6025149520734487  0.0768686607471238  1.0000
  O   O21       1.0  0.08579605883691241  0.3296542844855281  0.5608094242374122  1.0000
  O   O22       1.0  0.9142091639461611  0.6703412536467894  0.43919410898455874  1.0000
  O   O23       1.0  0.2790116774566798  0.9023192900443391  0.4783590632949596  1.0000
  O   O24       1.0  0.7209921455351704  0.09768849891471379  0.5216413383777192  1.0000
