data_image0
_chemical_formula_structural       Ag12H16C28S12N12
_chemical_formula_sum              "Ag12 H16 C28 S12 N12"
_cell_length_a       6.858094937066504
_cell_length_b       11.123831332840446
_cell_length_c       14.916436698128543
_cell_angle_alpha    89.99958629140717
_cell_angle_beta     94.58405467961163
_cell_angle_gamma    89.99975745190181

_space_group_name_H-M_alt    "P 1"
_space_group_IT_number       1

loop_
  _space_group_symop_operation_xyz
  'x, y, z'

loop_
  _atom_site_type_symbol
  _atom_site_label
  _atom_site_symmetry_multiplicity
  _atom_site_fract_x
  _atom_site_fract_y
  _atom_site_fract_z
  _atom_site_occupancy
  Ag  Ag1       1.0  0.11274320558894858  0.5762983813468735  0.24259028811910355  1.0000
  Ag  Ag2       1.0  0.38727692788870643  0.0762846639810491  0.7574130554048821  1.0000
  Ag  Ag3       1.0  0.8872270330880098  0.4237057058017869  0.7574071391863131  1.0000
  Ag  Ag4       1.0  0.6127436177536792  0.923710433031083  0.2425949428853187  1.0000
  Ag  Ag5       1.0  0.6872974707912151  0.5890608132267658  0.11610380391213232  1.0000
  Ag  Ag6       1.0  0.8127092792186089  0.08905625255231799  0.8838916825961718  1.0000
  Ag  Ag7       1.0  0.31270669455368955  0.41093698087987446  0.8838991149181725  1.0000
  Ag  Ag8       1.0  0.1873021548246712  0.9109451374285628  0.1161107362991913  1.0000
  Ag  Ag9       1.0  0.6530453742257974  0.5958742053597064  0.3930629968140877  1.0000
  Ag  Ag10      1.0  0.8469368941968511  0.09588114698442501  0.6069374045106599  1.0000
  Ag  Ag11      1.0  0.3469103270420888  0.40411819518627834  0.606935430319922  1.0000
  Ag  Ag12      1.0  0.15307019554969506  0.9041184450532143  0.3930655830191513  1.0000
  H   H1        1.0  0.4551749537191085  0.12814519691470852  0.37681943981834826  1.0000
  H   H2        1.0  0.04481219557766279  0.628140428188459  0.623166636764047  1.0000
  H   H3        1.0  0.5448276225151646  0.8718516982792438  0.6231814296358422  1.0000
  H   H4        1.0  0.955184066527181  0.3718564672204678  0.3768267068941853  1.0000
  H   H5        1.0  0.4406541535405282  0.3512516276048316  0.384380397494219  1.0000
  H   H6        1.0  0.059338900781881414  0.8512525573703656  0.615614580744527  1.0000
  H   H7        1.0  0.5593438668905008  0.6487470656172363  0.6156176822501749  1.0000
  H   H8        1.0  0.9406649684524381  0.14874973171367858  0.38438363639888  1.0000
  H   H9        1.0  0.5615884274086865  0.35775091583106194  0.1041500559992343  1.0000
  H   H10       1.0  0.9384196677051689  0.8577430501095621  0.8958483493460963  1.0000
  H   H11       1.0  0.4384225412789108  0.6422432825766933  0.8958449744001415  1.0000
  H   H12       1.0  0.06157831043489641  0.1422601379843016  0.1041490587641221  1.0000
  H   H13       1.0  0.5816431205954656  0.1360186599084088  0.10946069591817323  1.0000
  H   H14       1.0  0.9183579532607881  0.6360093947370871  0.8905341721060225  1.0000
  H   H15       1.0  0.41836973331090394  0.8639710434638131  0.8905410855359437  1.0000
  H   H16       1.0  0.0816311247842307  0.36399559138332893  0.1094610149453388  1.0000
  C   C1        1.0  0.4792662769681256  0.18221705943650338  0.3177386512474456  1.0000
  C   C2        1.0  0.020728944913962304  0.6822210503048467  0.6822559784618463  1.0000
  C   C3        1.0  0.5207404743399451  0.8177780378877345  0.6822589628374871  1.0000
  C   C4        1.0  0.9792692870383489  0.3177794407708987  0.31774545967630985  1.0000
  C   C5        1.0  0.4702638544060492  0.30684220974154647  0.3217241406733821  1.0000
  C   C6        1.0  0.029734847729109514  0.8068481510481433  0.6782708311730516  1.0000
  C   C7        1.0  0.5297339544963151  0.6931519887143127  0.6782705806524945  1.0000
  C   C8        1.0  0.9702706529314256  0.19315953178519868  0.3217301070631891  1.0000
  C   C9        1.0  0.5027724375297565  0.3743370469068879  0.2447025718330167  1.0000
  C   C10       1.0  0.9972300266238392  0.8743496193308927  0.755298015927572  1.0000
  C   C11       1.0  0.49722829578163896  0.62566164639248  0.7552922182171217  1.0000
  C   C12       1.0  0.0027753894178417053  0.1256535686834468  0.2447015789164979  1.0000
  C   C13       1.0  0.53807567342065  0.3106999310457184  0.16641279831220152  1.0000
  C   C14       1.0  0.9619390096076614  0.8107023531130932  0.8335775264188499  1.0000
  C   C15       1.0  0.4619253136906707  0.6892915703813358  0.8335860217246136  1.0000
  C   C16       1.0  0.038060599931540706  0.1892963400508236  0.16642260269340173  1.0000
  C   C17       1.0  0.5479477508295573  0.18632002550127422  0.16902578417126796  1.0000
  C   C18       1.0  0.9520551031105952  0.6863127548063944  0.8309707135604469  1.0000
  C   C19       1.0  0.4520681120776048  0.813668778854215  0.8309774093084954  1.0000
  C   C20       1.0  0.04794312884664009  0.3136895342110364  0.1690307245942222  1.0000
  C   C21       1.0  0.16698958495791066  0.5989710497602303  0.039450080843686  1.0000
  C   C22       1.0  0.33301295718719354  0.09897496326392742  0.9605505803752978  1.0000
  C   C23       1.0  0.8330070155755677  0.4010267444787415  0.960548636226406  1.0000
  C   C24       1.0  0.6669896613799012  0.9010327195625082  0.0394509608533937  1.0000
  C   C25       1.0  0.16348212608286164  0.5930028804131312  0.4508289878686683  1.0000
  C   C26       1.0  0.3365190903674105  0.09300210287707962  0.5491742160754426  1.0000
  C   C27       1.0  0.8365205347801136  0.4070021054831868  0.549173225010712  1.0000
  C   C28       1.0  0.6634896731086356  0.9070028828922503  0.4508321642226463  1.0000
  S   S1        1.0  0.4975683431323644  0.532744710057223  0.24487420889220604  1.0000
  S   S2        1.0  0.0024365913155577007  0.0327271620895573  0.7551226180120806  1.0000
  S   S3        1.0  0.5024163059749042  0.46724589256338334  0.7551202033271451  1.0000
  S   S4        1.0  0.9975659849211738  0.9672706320752343  0.2448782514503662  1.0000
  S   S5        1.0  0.042611854857142396  0.693120913495875  0.0982325130200863  1.0000
  S   S6        1.0  0.45738480433762874  0.1931190370891542  0.9017610078508727  1.0000
  S   S7        1.0  0.957381821296856  0.30688317354966443  0.9017661354247863  1.0000
  S   S8        1.0  0.542621862393453  0.8068868479203601  0.0982352629822074  1.0000
  S   S9        1.0  0.0293906732703704  0.6840725658921302  0.384195780559601  1.0000
  S   S10       1.0  0.4706035618875076  0.184066606609612  0.6158062372190329  1.0000
  S   S11       1.0  0.9706001630959094  0.3159324200997419  0.6158041425614229  1.0000
  S   S12       1.0  0.5293993527803166  0.8159329853560636  0.3842000056635372  1.0000
  N   N1        1.0  0.51971873959166  0.12143945599038368  0.2432223732959216  1.0000
  N   N2        1.0  0.9802795415027744  0.62142688349617  0.7567755166776494  1.0000
  N   N3        1.0  0.48028809632049263  0.8785547423278078  0.7567765841316643  1.0000
  N   N4        1.0  0.01971292625278661  0.3785700116823918  0.24322712741239633  1.0000
  N   N5        1.0  0.2546861070803459  0.530691505008207  0.9973897875794933  1.0000
  N   N6        1.0  0.24531665325238808  0.0306999381893007  0.0026190233359386986  1.0000
  N   N7        1.0  0.7453046023588781  0.46930718824057743  0.0026081204574026962  1.0000
  N   N8        1.0  0.7546878505753297  0.9693185321058736  0.9973892690878117  1.0000
  N   N9        1.0  0.25744347584440413  0.5254050687996143  0.49739272774723287  1.0000
  N   N10       1.0  0.242554234355481  0.025403689948404896  0.5026058078482407  1.0000
  N   N11       1.0  0.7425649069145094  0.47460441198231257  0.5026076075130632  1.0000
  N   N12       1.0  0.757435012895236  0.9745985991890933  0.49739206588016327  1.0000
