data_image0
_chemical_formula_structural       H16Pb2C20N4Cl4O2
_chemical_formula_sum              "H16 Pb2 C20 N4 Cl4 O2"
_cell_length_a       4.077333491582021
_cell_length_b       8.313886343920306
_cell_length_c       18.15231821199358
_cell_angle_alpha    94.44209970186667
_cell_angle_beta     89.78889883841492
_cell_angle_gamma    103.90089137261671

_space_group_name_H-M_alt    "P 1"
_space_group_IT_number       1

loop_
  _space_group_symop_operation_xyz
  'x, y, z'

loop_
  _atom_site_type_symbol
  _atom_site_label
  _atom_site_symmetry_multiplicity
  _atom_site_fract_x
  _atom_site_fract_y
  _atom_site_fract_z
  _atom_site_occupancy
  H   H1        1.0  0.33592275869580834  0.5324433875826313  0.46266369233472904  1.0000
  H   H2        1.0  0.8051181006672435  0.4687793059820321  0.5377846625859987  1.0000
  H   H3        1.0  0.18923144042467746  0.4210822369828262  0.12322491915291779  1.0000
  H   H4        1.0  0.7656602948427816  0.5777771970528744  0.8775006755863684  1.0000
  H   H5        1.0  0.00926088721929825  0.28198316272718654  0.21076497492468596  1.0000
  H   H6        1.0  0.7155789261323022  0.7162202779707342  0.7902512594161948  1.0000
  H   H7        1.0  0.44901063358960863  0.5926378684405049  0.02271473848834659  1.0000
  H   H8        1.0  0.853501192953189  0.4041835363176744  0.977170544924533  1.0000
  H   H9        1.0  0.6425798570747929  0.6681295923880625  0.35806365771509246  1.0000
  H   H10       1.0  0.9835396751211504  0.3343511240097428  0.6415311487957991  1.0000
  H   H11       1.0  0.10896212961021226  0.9229482121664813  0.16857171781798994  1.0000
  H   H12       1.0  0.1962689488416132  0.07649152400173878  0.8303476751271077  1.0000
  H   H13       1.0  0.8805621120867428  0.7711603264077379  0.2752348782821699  1.0000
  H   H14       1.0  0.11759899437674898  0.22963915553442144  0.7240493511805254  1.0000
  H   H15       1.0  0.7269110892813085  0.1607481514886827  0.32320446938055614  1.0000
  H   H16       1.0  0.550517418956808  0.8374302800579084  0.6782091840340527  1.0000
  Pb  Pb1       1.0  0.0268097264175609  0.0012892446857648997  0.0012008280212114995  1.0000
  Pb  Pb2       1.0  0.7455916753928377  0.9985184756927404  0.49770972264307994  1.0000
  C   C1        1.0  0.5090017323906154  0.5796011680456985  0.20980272257816068  1.0000
  C   C2        1.0  0.931250389991767  0.42016574758235226  0.7901900135394584  1.0000
  C   C3        1.0  0.35208912855975427  0.4907324465716484  0.2731139811629006  1.0000
  C   C4        1.0  0.8604576963850191  0.5093991491866914  0.7272198093747518  1.0000
  C   C5        1.0  0.27903748243132037  0.4822048536470758  0.40563634596485787  1.0000
  C   C6        1.0  0.7961507946023475  0.5187698699769497  0.5948459097147207  1.0000
  C   C7        1.0  0.3945530214332749  0.5303234646111435  0.13662318676012566  1.0000
  C   C8        1.0  0.8639539091252145  0.4685687826262208  0.8635743943160463  1.0000
  C   C9        1.0  0.0951556860768221  0.34301893675188205  0.2649853434630812  1.0000
  C   C10       1.0  0.7444958302392378  0.6561496247797506  0.7358626007469127  1.0000
  C   C11       1.0  0.5395636220725067  0.625489491263316  0.07978898255935007  1.0000
  C   C12       1.0  0.9141027186051713  0.3724275238897689  0.9199985333662183  1.0000
  C   C13       1.0  0.44391023905667026  0.5556655011105247  0.3460043787194919  1.0000
  C   C14       1.0  0.8907988793881145  0.44554048820251774  0.6541566339534979  1.0000
  C   C15       1.0  0.9041586817266418  0.8105815106128701  0.16085540336011658  1.0000
  C   C16       1.0  0.10033726656906337  0.18857080994881403  0.8383417050890499  1.0000
  C   C17       1.0  0.7733594279497494  0.7235754288852685  0.22074782338469123  1.0000
  C   C18       1.0  0.05570893216449948  0.2763732788038381  0.7787488365544845  1.0000
  C   C19       1.0  0.9338191451052467  0.2718336122199928  0.32586325285411977  1.0000
  C   C20       1.0  0.6517317956713028  0.7272526853297234  0.675273193558297  1.0000
  N   N1        1.0  0.020287068717145536  0.3441896922499835  0.3953560711154225  1.0000
  N   N2        1.0  0.668994918461095  0.6556868267405349  0.6055521547840356  1.0000
  N   N3        1.0  0.7896913580848234  0.7638713986062129  0.09119378628184899  1.0000
  N   N4        1.0  0.0291994849920911  0.234187997790606  0.9081376772514672  1.0000
  Cl  Cl1       1.0  0.20421240172218788  0.925789840321016  0.3862714165842575  1.0000
  Cl  Cl2       1.0  0.2773267738921987  0.08234424215450527  0.6069666536258181  1.0000
  Cl  Cl3       1.0  0.6310820885833762  0.16736223450350704  0.09378045198499757  1.0000
  Cl  Cl4       1.0  0.46892967880344816  0.8348495787746869  0.909504351224193  1.0000
  O   O1        1.0  0.8479473259989303  0.2862631873930041  0.4531718912644038  1.0000
  O   O2        1.0  0.5516176098766222  0.7133959668139621  0.5482309644546816  1.0000
