data_image0
_chemical_formula_structural       Cu4H24C24N8O24
_chemical_formula_sum              "Cu4 H24 C24 N8 O24"
_cell_length_a       6.669006898087453
_cell_length_b       6.767446081840914
_cell_length_c       18.563975064005866
_cell_angle_alpha    90.00004789034314
_cell_angle_beta     89.9999082107381
_cell_angle_gamma    110.58861360746992

_space_group_name_H-M_alt    "P 1"
_space_group_IT_number       1

loop_
  _space_group_symop_operation_xyz
  'x, y, z'

loop_
  _atom_site_type_symbol
  _atom_site_label
  _atom_site_symmetry_multiplicity
  _atom_site_fract_x
  _atom_site_fract_y
  _atom_site_fract_z
  _atom_site_occupancy
  Cu  Cu1       1.0  0.15837470225779532  0.9911194141019879  0.3731567221503481  1.0000
  Cu  Cu2       1.0  0.3416296084241993  0.008890523269570802  0.873158798568781  1.0000
  Cu  Cu3       1.0  0.8416235090504715  0.0088797770505948  0.6268428715793064  1.0000
  Cu  Cu4       1.0  0.6583753296880985  0.9911150087469808  0.1268429498708414  1.0000
  H   H1        1.0  0.24515901012164681  0.33525769891800655  0.4822016636888762  1.0000
  H   H2        1.0  0.2548360695469113  0.6647443923242233  0.9822040013053478  1.0000
  H   H3        1.0  0.754838646483961  0.664739913779556  0.5177979300406859  1.0000
  H   H4        1.0  0.7451611937947932  0.33525636826963273  0.017797208458034692  1.0000
  H   H5        1.0  0.0683800505996714  0.2773192823085466  0.26414065065501546  1.0000
  H   H6        1.0  0.43162470680064047  0.7226905728815326  0.7641423643077443  1.0000
  H   H7        1.0  0.9316140459703136  0.7226767339054805  0.7358594817530673  1.0000
  H   H8        1.0  0.5683791219085279  0.277311802224567  0.23585830677623673  1.0000
  H   H9        1.0  0.74831723023091  0.7664287650140695  0.3738810344025651  1.0000
  H   H10       1.0  0.7516862136148673  0.2335693909657621  0.8738821583198372  1.0000
  H   H11       1.0  0.2516798716731259  0.23356726922826712  0.6261180206491729  1.0000
  H   H12       1.0  0.24831444832258137  0.7664282397605149  0.1261174354088368  1.0000
  H   H13       1.0  0.7972089789162096  0.9489028989258229  0.43912569628549375  1.0000
  H   H14       1.0  0.7027941975740221  0.0510953062386434  0.9391273291182284  1.0000
  H   H15       1.0  0.20279073506019074  0.0510963012407117  0.5608728200882496  1.0000
  H   H16       1.0  0.2972070190627747  0.9489039029432647  0.060873880643732996  1.0000
  H   H17       1.0  0.5638351316272647  0.1924671380158998  0.37855725801015433  1.0000
  H   H18       1.0  0.9361667903883629  0.8075310124751668  0.8785595348657508  1.0000
  H   H19       1.0  0.4361621317177579  0.8075336225773526  0.6214423357200258  1.0000
  H   H20       1.0  0.06383537420948218  0.19246662726647656  0.12144275225115561  1.0000
  H   H21       1.0  0.5155451026401963  0.009913132155347198  0.3136772807628105  1.0000
  H   H22       1.0  0.9844600905695416  0.9900849874545232  0.8136785104034343  1.0000
  H   H23       1.0  0.4844555592961441  0.9900844985711288  0.6863228516436023  1.0000
  H   H24       1.0  0.015542074029411901  0.0099126522869213  0.18632323803574014  1.0000
  C   C1        1.0  0.26843837338402204  0.7492195553357561  0.5005485480937465  1.0000
  C   C2        1.0  0.2315607373345685  0.2507837602833832  0.0005505008138513  1.0000
  C   C3        1.0  0.7315598379264544  0.2507796358164213  0.4994499682804374  1.0000
  C   C4        1.0  0.7684415887075743  0.7492186058085651  0.999450708948302  1.0000
  C   C5        1.0  0.21599791487517447  0.6136708046325837  0.4331157858225224  1.0000
  C   C6        1.0  0.2840009259706093  0.38633284608973634  0.9331169397159655  1.0000
  C   C7        1.0  0.7840017991001247  0.3863283955341501  0.5668832692289597  1.0000
  C   C8        1.0  0.7159993427062474  0.6136679325322234  0.06688265401333378  1.0000
  C   C9        1.0  0.2095582770939615  0.4050742789135029  0.4332035587555793  1.0000
  C   C10       1.0  0.2904394539855844  0.5949262149651702  0.9332053144013628  1.0000
  C   C11       1.0  0.7904393795105379  0.5949233337842659  0.5667965736517075  1.0000
  C   C12       1.0  0.709563265318245  0.4050730032308891  0.0667953566824337  1.0000
  C   C13       1.0  0.11118913240255775  0.3726003955276693  0.3130488207475324  1.0000
  C   C14       1.0  0.3888132057749942  0.6274031827115608  0.8130505290106669  1.0000
  C   C15       1.0  0.8888094721673951  0.6273956477290241  0.6869502343037651  1.0000
  C   C16       1.0  0.6111889588272703  0.37259445702927246  0.18694960339530547  1.0000
  C   C17       1.0  0.1233379575724385  0.5831827527638752  0.31233995102972756  1.0000
  C   C18       1.0  0.37666493821044605  0.416822403396381  0.8123426762911947  1.0000
  C   C19       1.0  0.8766596990375747  0.4168148599328704  0.6876574879889005  1.0000
  C   C20       1.0  0.6233368331290238  0.5831783842405471  0.18765853347086647  1.0000
  C   C21       1.0  0.09882871150542631  0.694754759086088  0.2436758028594213  1.0000
  C   C22       1.0  0.40117201501720956  0.3052519057378476  0.7436774006072538  1.0000
  C   C23       1.0  0.9011719504331239  0.30524287163999025  0.756323252191528  1.0000
  C   C24       1.0  0.5988299177632472  0.6947536082499826  0.2563243478332494  1.0000
  N   N1        1.0  0.17037489948073403  0.6975010208661985  0.3728022216228908  1.0000
  N   N2        1.0  0.32962569117710677  0.30250259340371594  0.8728043991998928  1.0000
  N   N3        1.0  0.8296222024266128  0.30249501337552687  0.6271952173956449  1.0000
  N   N4        1.0  0.6703755254608054  0.697496615777986  0.12719627188434396  1.0000
  N   N5        1.0  0.1526376551964077  0.2855318771012065  0.37368666964959363  1.0000
  N   N6        1.0  0.3473644345039801  0.7144717468496468  0.873688430169679  1.0000
  N   N7        1.0  0.8473620587777829  0.7144673230657331  0.6263129240796201  1.0000
  N   N8        1.0  0.652638839504725  0.2855290498010277  0.12631116355874636  1.0000
  O   O1        1.0  0.31166404618988947  0.6650788318636244  0.5561233649320058  1.0000
  O   O2        1.0  0.18833088350554314  0.3349260770619439  0.056124292660641076  1.0000
  O   O3        1.0  0.6883317144903102  0.3349219197150645  0.4438756901208832  1.0000
  O   O4        1.0  0.8116674892437105  0.6650778404415548  0.9438758397474487  1.0000
  O   O5        1.0  0.25863181133743746  0.9325197308990241  0.4943656373318531  1.0000
  O   O6        1.0  0.2413667785214244  0.06748396599663661  0.9943677914321821  1.0000
  O   O7        1.0  0.741363949347182  0.067481020678855  0.5056312630101019  1.0000
  O   O8        1.0  0.7586364954839696  0.9325168306546487  0.0056334183294382  1.0000
  O   O9        1.0  0.07648314520896791  0.8724604733037394  0.25149366783847427  1.0000
  O   O10       1.0  0.42351699457901054  0.12754461895800523  0.7514935794683806  1.0000
  O   O11       1.0  0.9235195740959624  0.12753874489211373  0.7485064645675903  1.0000
  O   O12       1.0  0.5764808234686783  0.8724577200902599  0.24850601426189198  1.0000
  O   O13       1.0  0.10802673335540186  0.603181602812974  0.18537792652335125  1.0000
  O   O14       1.0  0.3919690079153426  0.3968186862141465  0.6853784816702414  1.0000
  O   O15       1.0  0.8919733738804752  0.39681444945807703  0.8146211285275058  1.0000
  O   O16       1.0  0.6080310993183247  0.6031773660573094  0.314621650736079  1.0000
  O   O17       1.0  0.8580821883205375  0.8608230805806868  0.408222261433785  1.0000
  O   O18       1.0  0.6419222242096937  0.1391782581972052  0.9082234195815885  1.0000
  O   O19       1.0  0.14191602298883768  0.13917611057169674  0.5917767936181306  1.0000
  O   O20       1.0  0.35808010183355066  0.8608241078945369  0.0917772515028261  1.0000
  O   O21       1.0  0.4621728861251313  0.11346631898946671  0.3387559935656624  1.0000
  O   O22       1.0  0.03783330000386085  0.8865357272175771  0.8387590684354078  1.0000
  O   O23       1.0  0.5378273825528339  0.886534459632287  0.6612430614859048  1.0000
  O   O24       1.0  0.9621694192966571  0.11346349097909329  0.1612432186815838  1.0000
