data_image0
_chemical_formula_structural       Cd4H16C16N12Cl4O8
_chemical_formula_sum              "Cd4 H16 C16 N12 Cl4 O8"
_cell_length_a       6.92344448736522
_cell_length_b       7.966481016924951
_cell_length_c       12.754248548019502
_cell_angle_alpha    90.00000761779938
_cell_angle_beta     90.00019032052612
_cell_angle_gamma    108.6494575603346

_space_group_name_H-M_alt    "P 1"
_space_group_IT_number       1

loop_
  _space_group_symop_operation_xyz
  'x, y, z'

loop_
  _atom_site_type_symbol
  _atom_site_label
  _atom_site_symmetry_multiplicity
  _atom_site_fract_x
  _atom_site_fract_y
  _atom_site_fract_z
  _atom_site_occupancy
  Cd  Cd1       1.0  0.9579099204390786  0.7410661750769735  0.5156502538980092  1.0000
  Cd  Cd2       1.0  0.04209197655900005  0.7589365811261715  0.0156497465701335  1.0000
  Cd  Cd3       1.0  0.04209401892015312  0.2589356411458965  0.4843500235034244  1.0000
  Cd  Cd4       1.0  0.9579066546306831  0.2410625857692068  0.9843481786689525  1.0000
  H   H1        1.0  0.5845143817188329  0.7909795002175314  0.1425742276576045  1.0000
  H   H2        1.0  0.4154811556113103  0.7090235324013892  0.6425760869031835  1.0000
  H   H3        1.0  0.4154784537133906  0.2090156925281832  0.8574213454186506  1.0000
  H   H4        1.0  0.5845265922754663  0.2909690095340097  0.3574241905015043  1.0000
  H   H5        1.0  0.0722185399493398  0.6506500101138073  0.2707145827176518  1.0000
  H   H6        1.0  0.927780737828371  0.8493493262433489  0.7707158245307753  1.0000
  H   H7        1.0  0.927780109678146  0.349353131355386  0.7292841265740293  1.0000
  H   H8        1.0  0.07222220793055098  0.15064586576563946  0.2292875890794193  1.0000
  H   H9        1.0  0.40778772308425454  0.8209583507581897  0.3110120566463834  1.0000
  H   H10       1.0  0.5922098964459719  0.6790397484736842  0.8110134555281833  1.0000
  H   H11       1.0  0.5922113956906685  0.17904214095850082  0.6889850845407254  1.0000
  H   H12       1.0  0.4077926170118289  0.32096604242606475  0.1889844697146614  1.0000
  H   H13       1.0  0.546988711071947  0.832895788750811  0.4290450111208984  1.0000
  H   H14       1.0  0.4530053770578633  0.6671025673556059  0.9290461531089421  1.0000
  H   H15       1.0  0.45301331479262064  0.16710867732506066  0.5709513460165354  1.0000
  H   H16       1.0  0.546998543863559  0.33289527429345617  0.0709533402399032  1.0000
  C   C1        1.0  0.6871466868496087  0.7530995980682108  0.19488316527517216  1.0000
  C   C2        1.0  0.3128516252144635  0.7469061977832254  0.6948817014493117  1.0000
  C   C3        1.0  0.3128533886686569  0.2468995687206998  0.8051147599652423  1.0000
  C   C4        1.0  0.6871244212293632  0.2531022448007008  0.3051319048185164  1.0000
  C   C5        1.0  0.9325753792768054  0.6829064968937074  0.2628889637717364  1.0000
  C   C6        1.0  0.06741999995495718  0.8170941475944316  0.7628894041351304  1.0000
  C   C7        1.0  0.0674222951775292  0.3170939949320086  0.7371105295714315  1.0000
  C   C8        1.0  0.9325829457906494  0.18290104441030053  0.23711008921274873  1.0000
  C   C9        1.0  0.4875705605802167  0.7503455348952386  0.359740988792332  1.0000
  C   C10       1.0  0.5124336547879906  0.7496539946521423  0.8597445968157871  1.0000
  C   C11       1.0  0.5124309592613016  0.24965363178550606  0.6402553683444838  1.0000
  C   C12       1.0  0.48757270408894016  0.25035047111285985  0.1402596008502712  1.0000
  C   C13       1.0  0.34101998418687174  0.5708963953802596  0.39439361577467485  1.0000
  C   C14       1.0  0.6589825346016198  0.9291018847732319  0.8943982873834743  1.0000
  C   C15       1.0  0.6589815541004426  0.429106745876858  0.6056058775721243  1.0000
  C   C16       1.0  0.34102866329475745  0.07090788007091219  0.1056090464970367  1.0000
  N   N1        1.0  0.8604957388164748  0.7217088540770077  0.1702499636588115  1.0000
  N   N2        1.0  0.13950480703459792  0.7782955631990304  0.6702505345997808  1.0000
  N   N3        1.0  0.13950096046470864  0.27828898810522423  0.8297503137358505  1.0000
  N   N4        1.0  0.8605082490217271  0.22169962806386678  0.32975209496725455  1.0000
  N   N5        1.0  0.8133408636136608  0.6890030963110901  0.3433459658882967  1.0000
  N   N6        1.0  0.1866574815260265  0.8110003725966733  0.8433474094619272  1.0000
  N   N7        1.0  0.18666213742672264  0.3110040194091185  0.6566503912501033  1.0000
  N   N8        1.0  0.8133469270046019  0.1889987938813746  0.1566583563071191  1.0000
  N   N9        1.0  0.6579620433012606  0.7347446284092456  0.2988508467925755  1.0000
  N   N10       1.0  0.3420393759142399  0.7652600683955483  0.7988541420061283  1.0000
  N   N11       1.0  0.3420385382373894  0.2652598377739395  0.701146294395983  1.0000
  N   N12       1.0  0.6579549222763887  0.2347390988149627  0.20113986296664882  1.0000
  Cl  Cl1       1.0  0.7797912766141337  0.9772393002554693  0.5742987887922625  1.0000
  Cl  Cl2       1.0  0.2202032910160412  0.5227582845640271  0.0742993805395287  1.0000
  Cl  Cl3       1.0  0.22020493507115188  0.022757217102046902  0.42569913644452845  1.0000
  Cl  Cl4       1.0  0.7797953401736422  0.4772408823313512  0.9256985446995573  1.0000
  O   O1        1.0  0.19235694110082596  0.5746554414976687  0.45359492844372806  1.0000
  O   O2        1.0  0.8076401839661784  0.9253389931816686  0.9535936010818844  1.0000
  O   O3        1.0  0.8076493993329804  0.4253450496918205  0.5464069170648145  1.0000
  O   O4        1.0  0.1923512255726081  0.0746601742434692  0.046401971993162816  1.0000
  O   O5        1.0  0.36885623874830736  0.4301029658405325  0.36533743730278456  1.0000
  O   O6        1.0  0.6311455400799986  0.06989235254382459  0.8653459583866125  1.0000
  O   O7        1.0  0.631149163358664  0.5699028248437229  0.6346581357853225  1.0000
  O   O8        1.0  0.3688511223655127  0.9300975405035672  0.13466451168983443  1.0000
