data_image0
_chemical_formula_structural       Cu2H16C22N4Cl4O2
_chemical_formula_sum              "Cu2 H16 C22 N4 Cl4 O2"
_cell_length_a       7.358614741579757
_cell_length_b       8.546675570711038
_cell_length_c       9.833078520104651
_cell_angle_alpha    84.76697256497391
_cell_angle_beta     70.58151435237463
_cell_angle_gamma    73.39155942620235

_space_group_name_H-M_alt    "P 1"
_space_group_IT_number       1

loop_
  _space_group_symop_operation_xyz
  'x, y, z'

loop_
  _atom_site_type_symbol
  _atom_site_label
  _atom_site_symmetry_multiplicity
  _atom_site_fract_x
  _atom_site_fract_y
  _atom_site_fract_z
  _atom_site_occupancy
  Cu  Cu1       1.0  0.22737389158164947  0.5349484419150697  0.055935279402731894  1.0000
  Cu  Cu2       1.0  0.7726330799589507  0.4650567531148723  0.9440608404495449  1.0000
  H   H1        1.0  0.2284196620446153  0.231859043215799  0.21680069434473384  1.0000
  H   H2        1.0  0.7715837371067027  0.768140040286099  0.7831876020437178  1.0000
  H   H3        1.0  0.2901666676830744  0.1130294416584832  0.4429603412051931  1.0000
  H   H4        1.0  0.70982746049463  0.8869671772391428  0.5570313998381664  1.0000
  H   H5        1.0  0.33354605548897365  0.2979063905747594  0.6127192995428387  1.0000
  H   H6        1.0  0.6664381110865707  0.7020853152797741  0.38728132517849895  1.0000
  H   H7        1.0  0.2952375545101732  0.5917190283665476  0.5475123033220868  1.0000
  H   H8        1.0  0.7047432484166835  0.4082738888858514  0.4524941264588733  1.0000
  H   H9        1.0  0.9719607157600766  0.0421077357575044  0.3750260123576651  1.0000
  H   H10       1.0  0.02804634351014816  0.9578925668595062  0.6249785963185984  1.0000
  H   H11       1.0  0.6908381701648453  0.18074708179129573  0.27783694692062266  1.0000
  H   H12       1.0  0.30917178328346767  0.8192532277633475  0.7221659451302999  1.0000
  H   H13       1.0  0.6317605230923818  0.0301699922403529  0.09506273702633915  1.0000
  H   H14       1.0  0.36823938306635284  0.9698388498961067  0.9049398959226096  1.0000
  H   H15       1.0  0.8688710926662256  0.7571359194475136  0.00818992161428878  1.0000
  H   H16       1.0  0.13112982760709715  0.2428741461530564  0.9918133899404752  1.0000
  C   C1        1.0  0.24379848179165728  0.3072098481855078  0.2935123598967806  1.0000
  C   C2        1.0  0.7562056957178456  0.6927867913422716  0.7064789862925948  1.0000
  C   C3        1.0  0.27942153567222056  0.2418904442498118  0.4203139945642533  1.0000
  C   C4        1.0  0.7205750464098843  0.7581074012487861  0.5796780770753996  1.0000
  C   C5        1.0  0.30213026627317424  0.34332104011457437  0.5133174940139044  1.0000
  C   C6        1.0  0.6978559139330829  0.6566731120042704  0.4866855085253689  1.0000
  C   C7        1.0  0.28379800562900215  0.5070157662126106  0.47672686121340047  1.0000
  C   C8        1.0  0.7161926984639778  0.49297350821522906  0.5232754212707887  1.0000
  C   C9        1.0  0.24717190173154083  0.5645439748612305  0.3479628681241493  1.0000
  C   C10       1.0  0.7528263706341322  0.43545264547991985  0.6520400761664433  1.0000
  C   C11       1.0  0.21154277725038648  0.7449958845077732  0.3201127469122723  1.0000
  C   C12       1.0  0.7884536150517861  0.2550019523598621  0.6798925926094768  1.0000
  C   C13       1.0  0.06439966615902663  0.8285943975917291  0.24325500507677586  1.0000
  C   C14       1.0  0.9356061744793395  0.17140956866273876  0.756748601020206  1.0000
  C   C15       1.0  0.944068380765458  0.984472048001308  0.2925790543070336  1.0000
  C   C16       1.0  0.055940412444812224  0.015531927846474503  0.7074187527393434  1.0000
  C   C17       1.0  0.7857818652149507  0.059486194932283395  0.24053562686614782  1.0000
  C   C18       1.0  0.21422585548691603  0.9405165547956998  0.7594655839996776  1.0000
  C   C19       1.0  0.7536907608362431  0.9768418336911394  0.13894091296035777  1.0000
  C   C20       1.0  0.24630789545150125  0.023162117542959503  0.8610634125778986  1.0000
  C   C21       1.0  0.8841366995600023  0.824442274294988  0.09031644547449258  1.0000
  C   C22       1.0  0.11586624690026788  0.17556168502184727  0.909688877247838  1.0000
  N   N1        1.0  0.22980859669066692  0.4646280450373227  0.2573246655605672  1.0000
  N   N2        1.0  0.7701914242135075  0.5353722491985167  0.7426704564938192  1.0000
  N   N3        1.0  0.03560121149644157  0.7514739276425076  0.14117259380059008  1.0000
  N   N4        1.0  0.9643998840972475  0.2485312495286464  0.8588330829402722  1.0000
  Cl  Cl1       1.0  0.4827465791956272  0.3032211848451141  0.9682249709864125  1.0000
  Cl  Cl2       1.0  0.5172546603404129  0.6967754457532749  0.03177115364725581  1.0000
  Cl  Cl3       1.0  0.17280938176683236  0.5694631365341822  0.8403885880320915  1.0000
  Cl  Cl4       1.0  0.8271988104478469  0.4305469480702725  0.15960788044350946  1.0000
  O   O1        1.0  0.2707880557709502  0.8273883453391235  0.3842751304345313  1.0000
  O   O2        1.0  0.7292117607548293  0.17261193960184326  0.6157342801082635  1.0000
