data_image0
_chemical_formula_structural       Cu2H48C52I4N4O10
_chemical_formula_sum              "Cu2 H48 C52 I4 N4 O10"
_cell_length_a       9.611512542588722
_cell_length_b       10.81795292046337
_cell_length_c       13.509258016921281
_cell_angle_alpha    100.60355577535627
_cell_angle_beta     102.1481436041549
_cell_angle_gamma    90.5408797541302

_space_group_name_H-M_alt    "P 1"
_space_group_IT_number       1

loop_
  _space_group_symop_operation_xyz
  'x, y, z'

loop_
  _atom_site_type_symbol
  _atom_site_label
  _atom_site_symmetry_multiplicity
  _atom_site_fract_x
  _atom_site_fract_y
  _atom_site_fract_z
  _atom_site_occupancy
  Cu  Cu1       1.0  3.748581890000001e-08  9.420542852000001e-07  1.6246861563e-06  1.0000
  Cu  Cu2       1.0  0.5000029773331889  2.762701712001205e-07  0.999998559582636  1.0000
  H   H1        1.0  0.7836995947675973  0.9528984557288638  0.80547970115434  1.0000
  H   H2        1.0  0.21629791802914158  0.047109040808791705  0.19451976630485746  1.0000
  H   H3        1.0  0.749908272896164  0.8091120312139142  0.6348963449959016  1.0000
  H   H4        1.0  0.2500859950660228  0.19089451977580293  0.3651024823794912  1.0000
  H   H5        1.0  0.15114667866409096  0.6531771657156327  0.7474543376745045  1.0000
  H   H6        1.0  0.8488453351510472  0.34682750003540974  0.2525460853338828  1.0000
  H   H7        1.0  0.1696755187874714  0.8041317513853272  0.9132364789389056  1.0000
  H   H8        1.0  0.8303185644650456  0.1958719755574165  0.08676486603167895  1.0000
  H   H9        1.0  0.9985338091024121  0.5489735395196433  0.5834971449987804  1.0000
  H   H10       1.0  0.0014645760588649977  0.45103113448822546  0.4165057437971029  1.0000
  H   H11       1.0  0.9841044504132275  0.6807685588631501  0.5211703667389642  1.0000
  H   H12       1.0  0.0158938900370131  0.31923517330201895  0.47883163653613536  1.0000
  H   H13       1.0  0.8276256174900567  0.6041731713339757  0.5365251928595427  1.0000
  H   H14       1.0  0.1723725888270664  0.3958277353031079  0.46347415385318397  1.0000
  H   H15       1.0  0.21557562127785704  0.6221792397980366  0.41276743980322544  1.0000
  H   H16       1.0  0.7844222070349999  0.37781507584445967  0.5872323607522745  1.0000
  H   H17       1.0  0.282685417696797  0.43942857280998043  0.2938448401388243  1.0000
  H   H18       1.0  0.7173179615339222  0.5605695152502362  0.7061541512229111  1.0000
  H   H19       1.0  0.22308887401251815  0.42927315927074977  0.10608981893858531  1.0000
  H   H20       1.0  0.7769146754774214  0.5707277532596181  0.8939081331586889  1.0000
  H   H21       1.0  0.0966964612107972  0.607062329517632  0.03438987179714564  1.0000
  H   H22       1.0  0.9033093726867849  0.3929414105172809  0.9656088485186558  1.0000
  H   H23       1.0  0.3342957261593825  0.8392932836967404  0.09061272127139827  1.0000
  H   H24       1.0  0.665711111516437  0.16070857311204634  0.9093814359174883  1.0000
  H   H25       1.0  0.3558953675517529  0.7670696245888988  0.2574891067740879  1.0000
  H   H26       1.0  0.6441081733532528  0.2329303450408418  0.7425042639755615  1.0000
  H   H27       1.0  0.7379125708525436  0.008056432780918504  0.3744446187266632  1.0000
  H   H28       1.0  0.2620907045056455  0.9919397720170833  0.6255540799242212  1.0000
  H   H29       1.0  0.7047167776460554  0.06585920196780391  0.20136384339009789  1.0000
  H   H30       1.0  0.2952920788905971  0.934141717513775  0.7986364099185437  1.0000
  H   H31       1.0  0.5414479197753723  0.741249422327634  0.42360813000340863  1.0000
  H   H32       1.0  0.45854925114320383  0.2587514821575  0.5763880954717351  1.0000
  H   H33       1.0  0.4815457635260145  0.8883026874009874  0.4747463387007826  1.0000
  H   H34       1.0  0.5184557382022064  0.11169916330293014  0.5252484739381983  1.0000
  H   H35       1.0  0.6673385555132401  0.870187522009978  0.4836008659016785  1.0000
  H   H36       1.0  0.3326647934568784  0.12980962378436803  0.5163957616085355  1.0000
  H   H37       1.0  0.2825646970569835  0.39508467597584485  0.623490418860264  1.0000
  H   H38       1.0  0.7174357345063029  0.6049181167462621  0.3765102888809366  1.0000
  H   H39       1.0  0.21457709063591324  0.28305992885962894  0.7536768873152012  1.0000
  H   H40       1.0  0.7854260953002026  0.7169343922529734  0.24632004029410837  1.0000
  H   H41       1.0  0.2686112732363739  0.3837363382667291  0.9376610977696485  1.0000
  H   H42       1.0  0.7313905525929061  0.6162532744426629  0.06233862931324556  1.0000
  H   H43       1.0  0.3937226883780626  0.5970406435974523  0.9937768220968692  1.0000
  H   H44       1.0  0.6062749854857258  0.40295179026393413  0.0062278599053370905  1.0000
  H   H45       1.0  0.2905345789014718  0.1230019406897398  0.05274927660536122  1.0000
  H   H46       1.0  0.7094687714283624  0.8769961482168257  0.9472526714178358  1.0000
  H   H47       1.0  0.20890830571503471  0.08409257025461873  0.9364761617529282  1.0000
  H   H48       1.0  0.7910963902711928  0.9159102274783353  0.06352446512741497  1.0000
  C   C1        1.0  0.862933030118171  0.8855002919016428  0.7886962557935034  1.0000
  C   C2        1.0  0.13706325534513303  0.11450437864866103  0.21130334718866103  1.0000
  C   C3        1.0  0.8459224789556644  0.805457940146724  0.6936020108623708  1.0000
  C   C4        1.0  0.15407162597251303  0.19454578616125673  0.3063971166121178  1.0000
  C   C5        1.0  0.9501585072425345  0.7200463736393915  0.6752869005291017  1.0000
  C   C6        1.0  0.04983679611819981  0.2799601795022824  0.3247150480838812  1.0000
  C   C7        1.0  0.06777126604804098  0.719063505230139  0.7562621371039171  1.0000
  C   C8        1.0  0.9322227941690998  0.28093927923514167  0.2437361048497806  1.0000
  C   C9        1.0  0.07839162641356982  0.8016314006040093  0.8494805155676274  1.0000
  C   C10       1.0  0.9216035947503015  0.1983732686406867  0.15051892283841534  1.0000
  C   C11       1.0  0.9389442835122209  0.6333071562869749  0.5737260929984416  1.0000
  C   C12       1.0  0.0610529998638114  0.36669657436100783  0.4262750065351568  1.0000
  C   C13       1.0  0.0035706704223627964  0.8135114172858094  0.1338467840051862  1.0000
  C   C14       1.0  0.9964316372836992  0.1864866696803844  0.8661527819457858  1.0000
  C   C15       1.0  0.0795284648729506  0.7110975125181441  0.18251876933265984  1.0000
  C   C16       1.0  0.9204705979985592  0.28889962890011134  0.8174801565345079  1.0000
  C   C17       1.0  0.1132283200853266  0.713599078203103  0.2889615160784516  1.0000
  C   C18       1.0  0.8867674387901519  0.28639617624769903  0.7110373625148441  1.0000
  C   C19       1.0  0.1867976869996113  0.6170579087157009  0.32959819348241126  1.0000
  C   C20       1.0  0.8132013469710133  0.3829392335489033  0.6704036890462177  1.0000
  C   C21       1.0  0.22504217430236656  0.5149492567178839  0.2628790130028449  1.0000
  C   C22       1.0  0.7749559958886536  0.485051650977134  0.7371240295367157  1.0000
  C   C23       1.0  0.1914878388947798  0.5097541640459298  0.15646203483872512  1.0000
  C   C24       1.0  0.8085134419976683  0.49024486366893444  0.8435389912222745  1.0000
  C   C25       1.0  0.12073182065915233  0.6077715890561494  0.11712448138946031  1.0000
  C   C26       1.0  0.8792726228709925  0.3922265003096754  0.8828746745484038  1.0000
  C   C27       1.0  0.4229197262983036  0.8729957501492931  0.1552187319099616  1.0000
  C   C28       1.0  0.5770860326276408  0.1270061057770562  0.8447767390335271  1.0000
  C   C29       1.0  0.43496456724219007  0.8348091437757291  0.2491133421050691  1.0000
  C   C30       1.0  0.5650399268645002  0.16518894410899068  0.7508806396752306  1.0000
  C   C31       1.0  0.5481934932251845  0.88271221485558  0.331687474378107  1.0000
  C   C32       1.0  0.45181097920584545  0.11728587366390292  0.6683087248982957  1.0000
  C   C33       1.0  0.6464000559623316  0.9678916964005424  0.314074947022263  1.0000
  C   C34       1.0  0.3536044539545103  0.032107334173218816  0.685922876940289  1.0000
  C   C35       1.0  0.6290585297884164  0.0009336875739976003  0.2176189473173622  1.0000
  C   C36       1.0  0.37094926967402125  0.9990672303903949  0.7823804022497923  1.0000
  C   C37       1.0  0.5614208790110667  0.8435381057728791  0.43407183685635425  1.0000
  C   C38       1.0  0.4385761952602111  0.15646091523844774  0.5659233567425659  1.0000
  C   C39       1.0  0.4975085481843565  0.7383749771773083  0.8824867375628641  1.0000
  C   C40       1.0  0.5024915586706342  0.26162310929353083  0.11751989088950407  1.0000
  C   C41       1.0  0.41654149121821155  0.6128681967624628  0.8417421878088334  1.0000
  C   C42       1.0  0.5834596799362188  0.3871298910139913  0.15826460521967087  1.0000
  C   C43       1.0  0.38376339355336603  0.5547514655189474  0.7374506442761726  1.0000
  C   C44       1.0  0.6162347694124294  0.44524944238765596  0.26255313742875336  1.0000
  C   C45       1.0  0.309991510983899  0.437398932882985  0.7050757691905929  1.0000
  C   C46       1.0  0.6900067111433756  0.5626029164431472  0.29492741970438624  1.0000
  C   C47       1.0  0.2703087927134504  0.3753750883523281  0.7774996898812319  1.0000
  C   C48       1.0  0.7296933375081667  0.6246201743553002  0.22250165449956677  1.0000
  C   C49       1.0  0.3006103022368904  0.43243056092219956  0.8815925835862187  1.0000
  C   C50       1.0  0.6993885831501743  0.5675637562374974  0.11840812071077522  1.0000
  C   C51       1.0  0.37116608534814327  0.5506941319928416  0.9128665321037417  1.0000
  C   C52       1.0  0.6288317587748722  0.44930112633869623  0.0871371106340035  1.0000
  I   I1        1.0  0.07170220870651893  0.8715041012730398  0.3959551414219149  1.0000
  I   I2        1.0  0.9282711867901839  0.12849206929537624  0.6040470799164126  1.0000
  I   I3        1.0  0.4268206193828732  0.648563625872491  0.6217366947165816  1.0000
  I   I4        1.0  0.5731799923842831  0.35144387733261345  0.3782728756207518  1.0000
  N   N1        1.0  0.97737252006268  0.8839069497648352  0.8651926549444723  1.0000
  N   N2        1.0  0.022622663615372605  0.11609677742558233  0.1348051587754071  1.0000
  N   N3        1.0  0.5192052624933226  0.9546343199728681  0.1394645700725903  1.0000
  N   N4        1.0  0.48080360849377274  0.04536659908553991  0.8605342049053277  1.0000
  O   O1        1.0  0.0677014492662593  0.8551538567819321  0.07136015279951381  1.0000
  O   O2        1.0  0.9323033433672736  0.1448508244248217  0.9286415059570458  1.0000
  O   O3        1.0  0.8871942391965393  0.8474298776016628  0.155681418099853  1.0000
  O   O4        1.0  0.11280821709308236  0.152571034469446  0.8443193260827542  1.0000
  O   O5        1.0  0.43069516705613614  0.8201046119068852  0.9339121452561514  1.0000
  O   O6        1.0  0.5693020716088528  0.1798981768983978  0.06608806875666319  1.0000
  O   O7        1.0  0.6202561239340413  0.7513922542543341  0.8660233075868717  1.0000
  O   O8        1.0  0.37974574796599114  0.24859924340996295  0.13398262552978932  1.0000
  O   O9        1.0  0.2516097647759707  0.04766125110183592  0.9982993182812834  1.0000
  O   O10       1.0  0.7483927131893184  0.9523396603345162  0.001699208405227578  1.0000
