data_image0
_chemical_formula_structural       Cd4H52C60N12O16
_chemical_formula_sum              "Cd4 H52 C60 N12 O16"
_cell_length_a       9.599653099600337
_cell_length_b       9.599718115245436
_cell_length_c       17.623666087138023
_cell_angle_alpha    94.5981646827014
_cell_angle_beta     94.59854914205188
_cell_angle_gamma    102.9278374991376

_space_group_name_H-M_alt    "P 1"
_space_group_IT_number       1

loop_
  _space_group_symop_operation_xyz
  'x, y, z'

loop_
  _atom_site_type_symbol
  _atom_site_label
  _atom_site_symmetry_multiplicity
  _atom_site_fract_x
  _atom_site_fract_y
  _atom_site_fract_z
  _atom_site_occupancy
  Cd  Cd1       1.0  0.8463601756553345  0.15364221905196732  0.25000043317876214  1.0000
  Cd  Cd2       1.0  0.1536454671677348  0.8463585398151281  0.749998075899455  1.0000
  Cd  Cd3       1.0  0.5214060685511582  0.47859186382698476  0.7499990863526165  1.0000
  Cd  Cd4       1.0  0.4785943844349561  0.5214089040274744  0.2500003756581606  1.0000
  H   H1        1.0  0.6344054368614137  0.3887061169558664  0.4485424830169931  1.0000
  H   H2        1.0  0.6113018318601532  0.36560529151486787  0.051458641458161494  1.0000
  H   H3        1.0  0.36559789233211154  0.6112935757095741  0.5514564747575149  1.0000
  H   H4        1.0  0.3886987061688529  0.6343955613717115  0.9485430969331712  1.0000
  H   H5        1.0  0.7486106711621687  0.0061366580845784975  0.5180078722515802  1.0000
  H   H6        1.0  0.9938576279909555  0.25137229095926017  0.9819897594192708  1.0000
  H   H7        1.0  0.25138770378248404  0.9938597430972395  0.4819896602392005  1.0000
  H   H8        1.0  0.006132695811238907  0.7486208411377717  0.018007374823440593  1.0000
  H   H9        1.0  0.2688259420722687  0.37633337703377384  0.9054843220212374  1.0000
  H   H10       1.0  0.6236689117926275  0.731167190645266  0.5945124315366143  1.0000
  H   H11       1.0  0.7311666311131901  0.6236703254810864  0.0945087224179346  1.0000
  H   H12       1.0  0.37633623859355236  0.26884014790579164  0.40549026487903456  1.0000
  H   H13       1.0  0.12109368973718658  0.08800294451973657  0.8921485918964078  1.0000
  H   H14       1.0  0.9119967350936306  0.8789017909062976  0.6078489710700621  1.0000
  H   H15       1.0  0.8789029124309735  0.9119997958019821  0.10784683083374347  1.0000
  H   H16       1.0  0.0880085301392342  0.12109692615452869  0.39215229089233355  1.0000
  H   H17       1.0  0.4098740281733413  0.034686174210193585  0.6819668896245118  1.0000
  H   H18       1.0  0.9653172660815416  0.5901196626311677  0.8180324886151736  1.0000
  H   H19       1.0  0.5901271868161049  0.9653134837857426  0.3180314249517693  1.0000
  H   H20       1.0  0.03468075889246343  0.40987909252160654  0.18197079036697514  1.0000
  H   H21       1.0  0.5290255520464554  0.4211636326228215  0.5711490765019746  1.0000
  H   H22       1.0  0.5788458729110602  0.4709889267969558  0.9288513367690708  1.0000
  H   H23       1.0  0.47098069587592306  0.5788350273696494  0.4288505152265499  1.0000
  H   H24       1.0  0.4211499379140733  0.5290140619153689  0.07115087805119907  1.0000
  H   H25       1.0  0.6412800009735306  0.037237765723041584  0.6409862540926452  1.0000
  H   H26       1.0  0.962753370395795  0.35869935805202857  0.8590091900711554  1.0000
  H   H27       1.0  0.35871577587323594  0.9627564526928508  0.3590105426083952  1.0000
  H   H28       1.0  0.03723204167896912  0.6412905250774372  0.14098765707810654  1.0000
  H   H29       1.0  0.259463037107416  0.43214815727220207  0.6463411621532058  1.0000
  H   H30       1.0  0.5678579151528567  0.7405374739844462  0.8536598409134654  1.0000
  H   H31       1.0  0.7405379422939475  0.5678548011947272  0.35365953063936917  1.0000
  H   H32       1.0  0.43214622492426713  0.25946552585772764  0.14634153212887205  1.0000
  H   H33       1.0  0.31205897219865625  0.6040442629393896  0.6589412107501926  1.0000
  H   H34       1.0  0.39596183993590733  0.6879365952650575  0.841059406493052  1.0000
  H   H35       1.0  0.6879398504771855  0.3959586183419788  0.3410577006538702  1.0000
  H   H36       1.0  0.6040412536695355  0.3120663978713766  0.15894192949774313  1.0000
  H   H37       1.0  0.9293149528868909  0.6183513167047966  0.4958405565058114  1.0000
  H   H38       1.0  0.38164744662810784  0.07070651223973098  0.004174929022738601  1.0000
  H   H39       1.0  0.07068749356190548  0.38164416479993685  0.5041604924662264  1.0000
  H   H40       1.0  0.6183612126843486  0.9293020480249153  0.9958313394141313  1.0000
  H   H41       1.0  0.06837541662213201  0.49366424682906285  0.3864145809843292  1.0000
  H   H42       1.0  0.5063390117047106  0.931635234586743  0.1135914214661327  1.0000
  H   H43       1.0  0.9316361482374235  0.5063440997144825  0.6135855385606418  1.0000
  H   H44       1.0  0.49366593289719424  0.06836669791296399  0.886409942331994  1.0000
  H   H45       1.0  0.8570910729735105  0.8468298998133366  0.428697076080894  1.0000
  H   H46       1.0  0.15316283287091179  0.14290851545987954  0.07131972884744898  1.0000
  H   H47       1.0  0.1428981324958727  0.15316232159397455  0.5713045275756199  1.0000
  H   H48       1.0  0.8468450644382132  0.8571011546632905  0.9286876870239168  1.0000
  H   H49       1.0  0.955380943151866  0.8322366592398751  0.2869883526941948  1.0000
  H   H50       1.0  0.1677618677968553  0.04459279893367811  0.21302454276719368  1.0000
  H   H51       1.0  0.0446072791638912  0.1677651872260526  0.7130129873743767  1.0000
  H   H52       1.0  0.8322503515063885  0.955408297780245  0.7869821559522305  1.0000
  C   C1        1.0  0.7554200514481124  0.1675535242292625  0.4004242379385232  1.0000
  C   C2        1.0  0.8324412576579121  0.24457987704759893  0.09957551904818727  1.0000
  C   C3        1.0  0.24457631559607043  0.8324429485731882  0.5995754968297291  1.0000
  C   C4        1.0  0.16755814885652848  0.7554208841011273  0.9004239059110473  1.0000
  C   C5        1.0  0.6957137720033657  0.1927515679120546  0.47456125010996425  1.0000
  C   C6        1.0  0.807247191298572  0.30428369774007546  0.025438408728426506  1.0000
  C   C7        1.0  0.304285649412968  0.8072448399754961  0.5254363194323657  1.0000
  C   C8        1.0  0.19274861316774414  0.6957149164530492  0.9745613815797962  1.0000
  C   C9        1.0  0.6350505272994268  0.3108070948036996  0.4900901414110377  1.0000
  C   C10       1.0  0.6891968186215252  0.3649548314087525  0.009910224819947208  1.0000
  C   C11       1.0  0.3649497411631231  0.6891882882574406  0.5099085570773523  1.0000
  C   C12       1.0  0.3107992915738579  0.6350449206066672  0.9900913190694564  1.0000
  C   C13       1.0  0.6983981248171887  0.09563360623682367  0.5298580011560288  1.0000
  C   C14       1.0  0.9043597044115473  0.30158989104374007  0.9701389569652931  1.0000
  C   C15       1.0  0.30160213728654384  0.9043574023051164  0.4701382728203212  1.0000
  C   C16       1.0  0.09563086133754692  0.6984043151014988  0.02985822357317149  1.0000
  C   C17       1.0  0.35048176236760736  0.1729299560804876  0.7714267380991939  1.0000
  C   C18       1.0  0.8270722629079045  0.649512774496138  0.7285734093025411  1.0000
  C   C19       1.0  0.6495176016253835  0.8270707625521823  0.22857154866975546  1.0000
  C   C20       1.0  0.17292831764254402  0.3504881209064976  0.2714294672790699  1.0000
  C   C21       1.0  0.2770769391896053  0.2876866965065261  0.8650242650750996  1.0000
  C   C22       1.0  0.7123169329159393  0.7229179518159299  0.6349733380885068  1.0000
  C   C23       1.0  0.7229182746151822  0.7123192312903087  0.13497065334409086  1.0000
  C   C24       1.0  0.2876874703688159  0.2770861433324754  0.36502865034472615  1.0000
  C   C25       1.0  0.2024902036250253  0.1437370242263682  0.8588222256894864  1.0000
  C   C26       1.0  0.856262557621868  0.797506491081336  0.6411776927587168  1.0000
  C   C27       1.0  0.7975091178465233  0.856263651890245  0.14117492288919206  1.0000
  C   C28       1.0  0.14374168240004073  0.2024922405317824  0.3588241012472792  1.0000
  C   C29       1.0  0.4262790528468655  0.1459050211870263  0.7070275278032053  1.0000
  C   C30       1.0  0.8540964053901873  0.5737165470664464  0.7929705422860066  1.0000
  C   C31       1.0  0.5737221408818556  0.8540946155508776  0.29297021767794007  1.0000
  C   C32       1.0  0.14590125643140084  0.42628538100915153  0.20703170034159504  1.0000
  C   C33       1.0  0.5741723364442494  0.2293269936161195  0.6123394914681412  1.0000
  C   C34       1.0  0.7706741652005887  0.4258205110799338  0.8876585874736092  1.0000
  C   C35       1.0  0.425825775292779  0.7706683122594596  0.3876574256317439  1.0000
  C   C36       1.0  0.2293174746397284  0.5741780975482699  0.11234162372358718  1.0000
  C   C37       1.0  0.5767554265306174  0.3301164861465865  0.5585928772880919  1.0000
  C   C38       1.0  0.6698864841086873  0.4232517077766289  0.9414055926504542  1.0000
  C   C39       1.0  0.42324684983240957  0.669878825293914  0.44140361892282687  1.0000
  C   C40       1.0  0.33010773256879833  0.5767490623594611  0.05859478524133979  1.0000
  C   C41       1.0  0.6379515007641532  0.1126201251829357  0.5980881059864201  1.0000
  C   C42       1.0  0.8873725776772687  0.3620337786826795  0.9019080286498774  1.0000
  C   C43       1.0  0.3620440553964316  0.8873730404427893  0.4019092135140027  1.0000
  C   C44       1.0  0.11261543249538163  0.6379582872127046  0.09808955428912469  1.0000
  C   C45       1.0  0.9510280409370465  0.6503585782091504  0.43953900161624654  1.0000
  C   C46       1.0  0.3496369952176863  0.04898267964018291  0.060470866935190784  1.0000
  C   C47       1.0  0.04897061847595547  0.34963893953693054  0.5604597153605723  1.0000
  C   C48       1.0  0.6503679344823112  0.9510236061206926  0.9395323522798403  1.0000
  C   C49       1.0  0.020197184457053693  0.5854628842323777  0.38734849491557094  1.0000
  C   C50       1.0  0.4145411676455026  0.9798048668844291  0.1126609562098366  1.0000
  C   C51       1.0  0.9798050195807236  0.4145410912144101  0.612650573938886  1.0000
  C   C52       1.0  0.5854686317245948  0.02019505733769479  0.8873433457301869  1.0000
  C   C53       1.0  0.9118737525113332  0.7685632805150889  0.40489120683073293  1.0000
  C   C54       1.0  0.2314275696633601  0.0881251857822463  0.09512347613004117  1.0000
  C   C55       1.0  0.088118549851643  0.23142891849338554  0.5951093697901368  1.0000
  C   C56       1.0  0.768582862425596  0.9118770353424921  0.9048849020674721  1.0000
  C   C57       1.0  0.9602048253495781  0.7667810537712042  0.3340004218741511  1.0000
  C   C58       1.0  0.23321341510219898  0.0397835607696564  0.16601240384833454  1.0000
  C   C59       1.0  0.03978685701218857  0.23321759737305567  0.6660009275133232  1.0000
  C   C60       1.0  0.7667971101086122  0.9602195855970874  0.8339920369789622  1.0000
  N   N1        1.0  0.3692604995503785  0.3048078007186774  0.8099017579224677  1.0000
  N   N2        1.0  0.6951925981059331  0.6307353455963565  0.6900953315594476  1.0000
  N   N3        1.0  0.6307384736706537  0.6951916950595773  0.19009249888475205  1.0000
  N   N4        1.0  0.304808950232129  0.36926984599909934  0.3099077302051966  1.0000
  N   N5        1.0  0.5057380625979419  0.25194066726724884  0.6779646984506796  1.0000
  N   N6        1.0  0.7480596286510702  0.4942554701925772  0.8220332116954336  1.0000
  N   N7        1.0  0.4942636724479286  0.748056806821957  0.32203242239535956  1.0000
  N   N8        1.0  0.2519369441773947  0.5057464086612242  0.1779678556903406  1.0000
  N   N9        1.0  0.24945712530562494  0.07213176600079407  0.799490556731399  1.0000
  N   N10       1.0  0.9278699732490381  0.7505422213465067  0.7005091749924829  1.0000
  N   N11       1.0  0.7505443528914455  0.9278689873013732  0.20050837323577747  1.0000
  N   N12       1.0  0.072133440987372  0.24945755635104663  0.29949205916258836  1.0000
  O   O1        1.0  0.8247155789176047  0.07155617453528862  0.3911492557414177  1.0000
  O   O2        1.0  0.9284428840445927  0.17528782481102206  0.10885333944732166  1.0000
  O   O3        1.0  0.17528325866013722  0.928442353484904  0.6088478002457405  1.0000
  O   O4        1.0  0.07155883609938478  0.824714002539352  0.8911456368156221  1.0000
  O   O5        1.0  0.7288151422046099  0.24296854630484427  0.344935779864464  1.0000
  O   O6        1.0  0.7570214339545769  0.27118125992203085  0.1550623668116842  1.0000
  O   O7        1.0  0.27117775843474595  0.7570267473000741  0.6550615210728521  1.0000
  O   O8        1.0  0.24297982355631123  0.7288184405899614  0.8449370859548819  1.0000
  O   O9        1.0  0.3438381226552352  0.511039259341061  0.6606493521613571  1.0000
  O   O10       1.0  0.48896809966080923  0.6561593778145466  0.8393555732432529  1.0000
  O   O11       1.0  0.6561616533704323  0.4889627034040415  0.3393535336644716  1.0000
  O   O12       1.0  0.5110360404163218  0.3438436220276273  0.16064579979908433  1.0000
  O   O13       1.0  0.026765449774039527  0.6553531404435091  0.3222407668330262  1.0000
  O   O14       1.0  0.3446472077317609  0.9732248037025077  0.177766890711375  1.0000
  O   O15       1.0  0.9732310805329902  0.34464869589423586  0.6777591623624699  1.0000
  O   O16       1.0  0.6553624704328271  0.026779367490647087  0.8222364211698616  1.0000
