data_image0
_chemical_formula_structural       Cd2P4H38C14N2Cl4O16
_chemical_formula_sum              "Cd2 P4 H38 C14 N2 Cl4 O16"
_cell_length_a       5.7464985130201205
_cell_length_b       8.871929401420559
_cell_length_c       16.17063593115065
_cell_angle_alpha    104.15397358708324
_cell_angle_beta     89.99969566209532
_cell_angle_gamma    90.00003356055744

_space_group_name_H-M_alt    "P 1"
_space_group_IT_number       1

loop_
  _space_group_symop_operation_xyz
  'x, y, z'

loop_
  _atom_site_type_symbol
  _atom_site_label
  _atom_site_symmetry_multiplicity
  _atom_site_fract_x
  _atom_site_fract_y
  _atom_site_fract_z
  _atom_site_occupancy
  Cd  Cd1       1.0  0.8315942685213216  0.8057549894597357  0.611764299713059  1.0000
  Cd  Cd2       1.0  0.3315851510619936  0.19425204287901474  0.388236342055727  1.0000
  P   P1        1.0  0.482894253530027  0.14887832581543134  0.67315115763018  1.0000
  P   P2        1.0  0.9828746465973027  0.8511181895855628  0.3268490484082065  1.0000
  P   P3        1.0  0.3277368915910657  0.8642489942468573  0.7453068738019654  1.0000
  P   P4        1.0  0.8277508876179454  0.1357580353409134  0.2546931563788278  1.0000
  H   H1        1.0  0.19655227017761942  0.9753594952993155  0.5720089554990297  1.0000
  H   H2        1.0  0.6965461607288006  0.024639430727297903  0.4279871567845461  1.0000
  H   H3        1.0  0.1476936535173223  0.8980893518427707  0.47518273157098184  1.0000
  H   H4        1.0  0.6476948417112283  0.1019154156886017  0.5248154808044563  1.0000
  H   H5        1.0  0.21149830151165366  0.611100775382127  0.6145694515006428  1.0000
  H   H6        1.0  0.7114948556234424  0.3889039827354069  0.38543111407123126  1.0000
  H   H7        1.0  0.06193629631648891  0.470918082317894  0.5576747379810174  1.0000
  H   H8        1.0  0.5619442801692074  0.5290913711011314  0.4423242538789297  1.0000
  H   H9        1.0  0.6480054645299375  0.7681295427660756  0.4437248689872178  1.0000
  H   H10       1.0  0.147997317829585  0.23187404908607323  0.5562713322112174  1.0000
  H   H11       1.0  0.43382933189383266  0.7735309354713209  0.5091443026136134  1.0000
  H   H12       1.0  0.9338189477235305  0.22646906167619107  0.4908527447652703  1.0000
  H   H13       1.0  0.8273136123749794  0.3998692899773602  0.7934483700250824  1.0000
  H   H14       1.0  0.3273058119899588  0.600140034047577  0.2065476353304519  1.0000
  H   H15       1.0  0.8375901826329653  0.46974596073011554  0.6980458064894821  1.0000
  H   H16       1.0  0.33759306852065407  0.5302610253505265  0.30194863386061144  1.0000
  H   H17       1.0  0.9207207513597525  0.27338624847153886  0.6951909440574157  1.0000
  H   H18       1.0  0.42071156394793974  0.7266218737334357  0.3048047279646867  1.0000
  H   H19       1.0  0.6573659530221221  0.8143992040213419  0.9060730434851083  1.0000
  H   H20       1.0  0.1573647554825115  0.18560094031465718  0.0939288686949027  1.0000
  H   H21       1.0  0.6689267921869089  0.6967776318343086  0.7999784409265092  1.0000
  H   H22       1.0  0.1689258226068873  0.3032224901357027  0.20002097306233685  1.0000
  H   H23       1.0  0.40362573532611634  0.5044305062767762  0.8392181033054628  1.0000
  H   H24       1.0  0.9036188046425622  0.495566029430016  0.1607803982675051  1.0000
  H   H25       1.0  0.6478469935501253  0.5353447567286196  0.9076668577190292  1.0000
  H   H26       1.0  0.1478425545638729  0.4646565321900625  0.09233213146704604  1.0000
  H   H27       1.0  0.4228959097702045  0.7178792754635738  0.020072814858799908  1.0000
  H   H28       1.0  0.9228868808102247  0.2821114705689283  0.9799292144280117  1.0000
  H   H29       1.0  0.27485924070442275  0.5381805569101489  0.9899892441614642  1.0000
  H   H30       1.0  0.7748476010166883  0.46181138774349506  0.010009509643971577  1.0000
  H   H31       1.0  0.005422136307622299  0.7684699396373205  0.9998762054815417  1.0000
  H   H32       1.0  0.5054156892375872  0.2315221404973258  0.0001261616364231933  1.0000
  H   H33       1.0  0.011381281915433299  0.6418694787652016  0.8961737101182694  1.0000
  H   H34       1.0  0.5113768460277797  0.35812143642456823  0.10382849190802551  1.0000
  H   H35       1.0  0.0350532906537993  0.9109353233061271  0.8830919236946289  1.0000
  H   H36       1.0  0.53505715095028  0.08906022288044821  0.11690960930449992  1.0000
  H   H37       1.0  0.27195527933363195  0.950827738561046  0.9559503705974991  1.0000
  H   H38       1.0  0.771946288074922  0.0491688876518239  0.044053336201088214  1.0000
  C   C1        1.0  0.4355203026918204  0.07252242450190488  0.769198971048745  1.0000
  C   C2        1.0  0.935514386876953  0.9274799361491546  0.23080395120607736  1.0000
  C   C3        1.0  0.8037275868220134  0.36912332338825143  0.7241682448225222  1.0000
  C   C4        1.0  0.3037274644302244  0.6308813564821064  0.2758265724179765  1.0000
  C   C5        1.0  0.5584625876429995  0.7307145675351875  0.8567024671637997  1.0000
  C   C6        1.0  0.05844504693704519  0.2692786701576749  0.1433024274912  1.0000
  C   C7        1.0  0.49020332169219927  0.5906999753755998  0.890350783588886  1.0000
  C   C8        1.0  0.990205797982675  0.4092907510171458  0.10965235416544773  1.0000
  C   C9        1.0  0.3287862047398988  0.6396621005239638  0.9670859496827974  1.0000
  C   C10       1.0  0.8287828418268788  0.36033218560511676  0.032918578495781496  1.0000
  C   C11       1.0  0.1162047872680105  0.7240489460606697  0.9437269837051616  1.0000
  C   C12       1.0  0.616204486934869  0.27594769772866107  0.0562702138817883  1.0000
  C   C13       1.0  0.18756684085133912  0.8591910337275694  0.9060402753909431  1.0000
  C   C14       1.0  0.6875606465762302  0.14079395128224098  0.09395462967119533  1.0000
  N   N1        1.0  0.3494468070628045  0.8071191797368654  0.8346162739345858  1.0000
  N   N2        1.0  0.8494413139903543  0.19287159726752628  0.1653858966607729  1.0000
  Cl  Cl1       1.0  0.7061351231985711  0.0823281351224594  0.8235232144971649  1.0000
  Cl  Cl2       1.0  0.2061315019536494  0.917678963237954  0.17647952560408703  1.0000
  Cl  Cl3       1.0  0.23271633729737573  0.19746250757527414  0.8374353647014987  1.0000
  Cl  Cl4       1.0  0.7327148365549617  0.8025387630452344  0.1625659371464323  1.0000
  O   O1        1.0  0.16072375942802347  0.8718085480022638  0.5318009445683887  1.0000
  O   O2        1.0  0.6607223428306028  0.1281973677211212  0.468196158390768  1.0000
  O   O3        1.0  0.054529817580686285  0.5794813129155189  0.5935948368346545  1.0000
  O   O4        1.0  0.5545365203259963  0.4205258143911834  0.4064032430396836  1.0000
  O   O5        1.0  0.5884662219464545  0.7235769889759284  0.4914227258454674  1.0000
  O   O6        1.0  0.08846231050454628  0.2764277947866063  0.5085743625108634  1.0000
  O   O7        1.0  0.6736246819614776  0.05289381425482992  0.6193422581248529  1.0000
  O   O8        1.0  0.17361973892831634  0.9471121528744602  0.3806628668497965  1.0000
  O   O9        1.0  0.24922010960154484  0.1496574886976987  0.629893965948952  1.0000
  O   O10       1.0  0.7492259514241723  0.8503379584313465  0.370105917029072  1.0000
  O   O11       1.0  0.5617873378754297  0.3253413651498888  0.7053685288586637  1.0000
  O   O12       1.0  0.0617834847705225  0.67466227617669  0.2946296951758782  1.0000
  O   O13       1.0  0.4904399129883218  0.767172806368194  0.6788371235623034  1.0000
  O   O14       1.0  0.9904251365152917  0.2328248770268502  0.3211644595529607  1.0000
  O   O15       1.0  0.07491006684785619  0.8732085754954255  0.7220906171062539  1.0000
  O   O16       1.0  0.5749063033532877  0.1267880900808507  0.2779072789198836  1.0000
