data_image0
_chemical_formula_structural       Zn2P2H30C28N8O8
_chemical_formula_sum              "Zn2 P2 H30 C28 N8 O8"
_cell_length_a       8.529096233879619
_cell_length_b       9.76647295981321
_cell_length_c       10.531502274669538
_cell_angle_alpha    82.47031899715408
_cell_angle_beta     74.783517709239
_cell_angle_gamma    69.0140520160132

_space_group_name_H-M_alt    "P 1"
_space_group_IT_number       1

loop_
  _space_group_symop_operation_xyz
  'x, y, z'

loop_
  _atom_site_type_symbol
  _atom_site_label
  _atom_site_symmetry_multiplicity
  _atom_site_fract_x
  _atom_site_fract_y
  _atom_site_fract_z
  _atom_site_occupancy
  Zn  Zn1       1.0  0.8825226111611  0.5661141822365111  0.17303972581893134  1.0000
  Zn  Zn2       1.0  0.11748112893076264  0.4338833963984357  0.8269632818558108  1.0000
  P   P1        1.0  0.7235231616106929  0.5284425428829567  0.9549711277906495  1.0000
  P   P2        1.0  0.27647649624385895  0.47155613680170216  0.045032604135357694  1.0000
  H   H1        1.0  0.5855232922976299  0.36828747010891044  0.9607241497886605  1.0000
  H   H2        1.0  0.4144780167462585  0.6317101108817338  0.039279374799043844  1.0000
  H   H3        1.0  0.7654409338726962  0.21649181766503736  0.43745151546495725  1.0000
  H   H4        1.0  0.23456012307055127  0.7835155776007808  0.5625460288393072  1.0000
  H   H5        1.0  0.6525701517288384  0.0188998103388087  0.4261714019461847  1.0000
  H   H6        1.0  0.3474288406752989  0.981109721300477  0.5738215537277682  1.0000
  H   H7        1.0  0.6474400184852057  0.8302365369158622  0.6118152297689291  1.0000
  H   H8        1.0  0.3525599635004113  0.16976743651642318  0.38817254613184105  1.0000
  H   H9        1.0  0.7554566355738285  0.8410917726600005  0.8034620054931879  1.0000
  H   H10       1.0  0.2445446489447391  0.158908920191152  0.19652687273217853  1.0000
  H   H11       1.0  0.0352990510719167  0.0016831367654077996  0.820295437371165  1.0000
  H   H12       1.0  0.9646969825262628  0.9983154866160932  0.1797043250738353  1.0000
  H   H13       1.0  0.8518554763514459  0.15666267831768008  0.8755740128127343  1.0000
  H   H14       1.0  0.14813977292499203  0.8433348606928488  0.12442700817700818  1.0000
  H   H15       1.0  0.04345600630767874  0.7465167743538715  0.9354746557591724  1.0000
  H   H16       1.0  0.9565456737081915  0.25348292868719113  0.06452281431516835  1.0000
  H   H17       1.0  0.5907612217671813  0.8868451347659413  0.23839111012847522  1.0000
  H   H18       1.0  0.4092467879692662  0.11314474811069891  0.7616110479469141  1.0000
  H   H19       1.0  0.5965449928110615  0.12114301985074863  0.05729443737175897  1.0000
  H   H20       1.0  0.4034516504703944  0.8788479472080155  0.942708097753588  1.0000
  H   H21       1.0  0.037947742932971124  0.22151987406131468  0.6061592792921999  1.0000
  H   H22       1.0  0.962050172260163  0.7784831956879826  0.393844248161116  1.0000
  H   H23       1.0  0.8556264533765017  0.30207059266110287  0.73497569412811  1.0000
  H   H24       1.0  0.14437242908253717  0.697926978717902  0.26502739840245937  1.0000
  H   H25       1.0  0.03363371822725721  0.3363908657743124  0.3695235217833144  1.0000
  H   H26       1.0  0.9663633211720534  0.6636144109746382  0.6304808524037427  1.0000
  H   H27       1.0  0.568686932554442  0.6951509372846374  0.4517305801660498  1.0000
  H   H28       1.0  0.4313094184583192  0.3048499517553793  0.5482745154066607  1.0000
  H   H29       1.0  0.6009921629200791  0.5164335949284578  0.6808356440171791  1.0000
  H   H30       1.0  0.3990061790121827  0.48356840123936007  0.31916983249448083  1.0000
  C   C1        1.0  0.8224752063117649  0.035965820903072696  0.7309605241263808  1.0000
  C   C2        1.0  0.17752318471477202  0.9640360436239849  0.2690345137143097  1.0000
  C   C3        1.0  0.8248425366074555  0.142971352615298  0.6271326812907887  1.0000
  C   C4        1.0  0.1751602540709739  0.8570316765205704  0.37286696542634706  1.0000
  C   C5        1.0  0.7637789381095528  0.13453897735145404  0.5183506050158115  1.0000
  C   C6        1.0  0.2362242190777338  0.8654661858021768  0.48164393615805773  1.0000
  C   C7        1.0  0.6998741014678272  0.0231437610178418  0.5117909396502967  1.0000
  C   C8        1.0  0.3001253176754233  0.9768646970399644  0.48820396508200764  1.0000
  C   C9        1.0  0.6969553146742842  0.918035983681065  0.6150161186620408  1.0000
  C   C10       1.0  0.3030405806109113  0.08196910276826937  0.3849733304600775  1.0000
  C   C11       1.0  0.7583910130402105  0.9244748347646876  0.7238264087521243  1.0000
  C   C12       1.0  0.24161026255212184  0.0755258820211466  0.276164367413422  1.0000
  C   C13       1.0  0.8929390831254408  0.0426710280596723  0.8469378061694071  1.0000
  C   C14       1.0  0.10705738613809503  0.9573264978056599  0.15306200739376408  1.0000
  C   C15       1.0  0.9221107650158799  0.8165092963331021  0.994013088576679  1.0000
  C   C16       1.0  0.0778917863306958  0.18348821167564464  0.005984483734010803  1.0000
  C   C17       1.0  0.6872907243403574  0.8933213348179053  0.14962907017411445  1.0000
  C   C18       1.0  0.3127152030045153  0.1066707323015592  0.8503722951513168  1.0000
  C   C19       1.0  0.6877455539988802  0.009710931558231602  0.06105443383023604  1.0000
  C   C20       1.0  0.31225386452382503  0.9902822269992981  0.9389472236893326  1.0000
  C   C21       1.0  0.895999377893368  0.26286498506078004  0.6344933288306008  1.0000
  C   C22       1.0  0.10400019741533849  0.7371369620598215  0.36550809334423207  1.0000
  C   C23       1.0  0.9113414897565872  0.4102214746515713  0.4218018546041407  1.0000
  C   C24       1.0  0.08865806769965451  0.5897805203383938  0.5782033634510526  1.0000
  C   C25       1.0  0.670376990017985  0.5945248005355879  0.4687266353357487  1.0000
  C   C26       1.0  0.3296225674382569  0.40547719445437735  0.5312785827194375  1.0000
  C   C27       1.0  0.6825769684787699  0.5072890415692015  0.5818425903986225  1.0000
  C   C28       1.0  0.31742249750539037  0.4927162447913957  0.4181622158455696  1.0000
  N   N1        1.0  0.8378147458620402  0.9586098061511379  0.9638072137760573  1.0000
  N   N2        1.0  0.16218094800598234  0.041386611408547894  0.0361919603916832  1.0000
  N   N3        1.0  0.8338150400852201  0.7742899661989354  0.10718231235151175  1.0000
  N   N4        1.0  0.16619246482937908  0.22570424572779055  0.8928146379442623  1.0000
  N   N5        1.0  0.8357603747627992  0.39120084792980947  0.5496617408270267  1.0000
  N   N6        1.0  0.16423753150410647  0.6088022457541697  0.4503436845664694  1.0000
  N   N7        1.0  0.8138042978288665  0.5329487805208685  0.36983801778861647  1.0000
  N   N8        1.0  0.18619560828377496  0.4670553963562297  0.6301658906036565  1.0000
  O   O1        1.0  0.55979370361878  0.6639246041672281  0.9645762192194525  1.0000
  O   O2        1.0  0.4402059631620078  0.3360740515827416  0.035425614766381744  1.0000
  O   O3        1.0  0.7685523729746392  0.47400997657231153  0.09087410598204562  1.0000
  O   O4        1.0  0.2314485004039  0.5259887019344945  0.9091293674874804  1.0000
  O   O5        1.0  0.6972680977006076  0.39361870603411114  0.9031591670663345  1.0000
  O   O6        1.0  0.30273199135618273  0.6063788881017301  0.09684556494793378  1.0000
  O   O7        1.0  0.8751633568383494  0.5590290571457855  0.8523873072923465  1.0000
  O   O8        1.0  0.12483969040384577  0.44096414574756426  0.14761737073813913  1.0000
