data_image0
_chemical_formula_structural       MnH28C22S2N6O2
_chemical_formula_sum              "Mn1 H28 C22 S2 N6 O2"
_cell_length_a       6.952410090074433
_cell_length_b       9.160153111354992
_cell_length_c       10.260438950984597
_cell_angle_alpha    72.01393343438507
_cell_angle_beta     75.8009164120435
_cell_angle_gamma    75.89597658130181

_space_group_name_H-M_alt    "P 1"
_space_group_IT_number       1

loop_
  _space_group_symop_operation_xyz
  'x, y, z'

loop_
  _atom_site_type_symbol
  _atom_site_label
  _atom_site_symmetry_multiplicity
  _atom_site_fract_x
  _atom_site_fract_y
  _atom_site_fract_z
  _atom_site_occupancy
  Mn  Mn1       1.0  0.9999976443983271  0.9999997242227394  0.9999997983447809  1.0000
  H   H1        1.0  0.6139111057362711  0.8752372923475065  0.1474546546075076  1.0000
  H   H2        1.0  0.3860924479110678  0.12476697181786284  0.8525394725905143  1.0000
  H   H3        1.0  0.5190051471744611  0.8685223849833504  0.3877964251486148  1.0000
  H   H4        1.0  0.4809937358270844  0.1314829867580869  0.6122059861048328  1.0000
  H   H5        1.0  0.4465573574351608  0.6919768909276343  0.4939027033590193  1.0000
  H   H6        1.0  0.5534465677987656  0.308026185192979  0.5061014338270553  1.0000
  H   H7        1.0  0.23841452534353638  0.020154684459207303  0.5275103110936286  1.0000
  H   H8        1.0  0.761572730650009  0.9798494263346385  0.47248467098940955  1.0000
  H   H9        1.0  0.3984132435828654  0.8791727906428619  0.6366958830031065  1.0000
  H   H10       1.0  0.6015726181801779  0.1208371374462445  0.36330650756891464  1.0000
  H   H11       1.0  0.1603628056172113  0.8436335174755882  0.6354528420686307  1.0000
  H   H12       1.0  0.8396277194398534  0.1563694505851529  0.3645438494602118  1.0000
  H   H13       1.0  0.13491931815742214  0.2650681206742434  0.20278385571656088  1.0000
  H   H14       1.0  0.8650747458856143  0.7349266891587618  0.7972154537981809  1.0000
  H   H15       1.0  0.39572866424455094  0.4359847925700039  0.10032584669308868  1.0000
  H   H16       1.0  0.6042580298487648  0.5640157918562422  0.8996750733464582  1.0000
  H   H17       1.0  0.751923013986527  0.31886052297711126  0.023566676308675566  1.0000
  H   H18       1.0  0.24806786643080866  0.6811471157417656  0.9764345185809304  1.0000
  H   H19       1.0  0.980635578398207  0.7517501018140038  0.37548496227792333  1.0000
  H   H20       1.0  0.01937449867261172  0.24824017198058348  0.6245177538361729  1.0000
  H   H21       1.0  0.09630440548439623  0.6696040557170166  0.5261154771871333  1.0000
  H   H22       1.0  0.9037080302336091  0.33038858530683524  0.4738842390723406  1.0000
  H   H23       1.0  0.2595685824101964  0.5989537275293414  0.24049922771101254  1.0000
  H   H24       1.0  0.7404388346535242  0.40104120286473943  0.7595016842308764  1.0000
  H   H25       1.0  0.1465775152603683  0.4705436602087048  0.3924632317430862  1.0000
  H   H26       1.0  0.8534313741198998  0.5294512865906001  0.607536451542721  1.0000
  H   H27       1.0  0.3836732728262218  0.51847574930774  0.3853682046720478  1.0000
  H   H28       1.0  0.6163370888706012  0.48151921389678176  0.6146302499576777  1.0000
  C   C1        1.0  0.8850827938917758  0.6697600920813044  0.12279431546728163  1.0000
  C   C2        1.0  0.1149255718698967  0.3302430270043785  0.8772090573655971  1.0000
  C   C3        1.0  0.3892878578222109  0.8166487703451821  0.4520542682952851  1.0000
  C   C4        1.0  0.610711880580112  0.1833531060186218  0.5479460351568051  1.0000
  C   C5        1.0  0.29035377095284093  0.8945582572862917  0.5694222404889331  1.0000
  C   C6        1.0  0.7096364689706292  0.10544587590032961  0.43057515364035476  1.0000
  C   C7        1.0  0.5613088532325039  0.9990008578382682  0.13933691436009363  1.0000
  C   C8        1.0  0.4386905607394098  0.0010021940690805005  0.8606592223340428  1.0000
  C   C9        1.0  0.35944904402012406  0.054761794516395  0.1881987955351079  1.0000
  C   C10       1.0  0.6405542328605803  0.9452377781554948  0.8118005670189701  1.0000
  C   C11       1.0  0.2929402224889869  0.21525466404310117  0.17161101776781607  1.0000
  C   C12       1.0  0.7070553369410957  0.7847460104803473  0.8283864258219751  1.0000
  C   C13       1.0  0.43698736366945207  0.3108941658186311  0.11199398609885243  1.0000
  C   C14       1.0  0.5630067313034458  0.6891064902160622  0.888005660018699  1.0000
  C   C15       1.0  0.6362222900267155  0.24690024674514882  0.06739271958422685  1.0000
  C   C16       1.0  0.3637721052909058  0.7531050945324296  0.9326046127923177  1.0000
  C   C17       1.0  0.21637289042652688  0.943096255896542  0.24878530947065516  1.0000
  C   C18       1.0  0.7836309645807232  0.05690098444005539  0.7512136217541964  1.0000
  C   C19       1.0  0.12478704265320316  0.7033550534268045  0.41148035387995213  1.0000
  C   C20       1.0  0.8752203744105173  0.29663987696726923  0.588520558061937  1.0000
  C   C21       1.0  0.23538667179934689  0.5640638387709203  0.35468647934381897  1.0000
  C   C22       1.0  0.7646222018621954  0.4359311121954478  0.6453112561986245  1.0000
  S   S1        1.0  0.8039969068361896  0.5081796015170993  0.20378169912347502  1.0000
  S   S2        1.0  0.19602065756720324  0.4918107209670596  0.7962304556571381  1.0000
  N   N1        1.0  0.9376959937231674  0.7914939042570309  0.06299826726447576  1.0000
  N   N2        1.0  0.062299304659006786  0.2085020746058746  0.9370063594247283  1.0000
  N   N3        1.0  0.700386676415576  0.0920964657889982  0.07717827712774294  1.0000
  N   N4        1.0  0.2996092147966891  0.9079088856431953  0.9228207482077692  1.0000
  N   N5        1.0  0.24701151202392424  0.8266515278182283  0.3637960500670729  1.0000
  N   N6        1.0  0.7529923429833189  0.17334571251836908  0.6362028811577857  1.0000
  O   O1        1.0  0.06676337925083704  0.9563074916607375  0.19371811233522615  1.0000
  O   O2        1.0  0.9332393042921792  0.043688562977685294  0.8062832926886185  1.0000
