data_image0
_chemical_formula_structural       Ca2H20C8N16O12
_chemical_formula_sum              "Ca2 H20 C8 N16 O12"
_cell_length_a       7.52203899200719
_cell_length_b       7.622862981687806
_cell_length_c       11.059154270081466
_cell_angle_alpha    75.67005003784435
_cell_angle_beta     87.52262798376616
_cell_angle_gamma    61.973099155041076

_space_group_name_H-M_alt    "P 1"
_space_group_IT_number       1

loop_
  _space_group_symop_operation_xyz
  'x, y, z'

loop_
  _atom_site_type_symbol
  _atom_site_label
  _atom_site_symmetry_multiplicity
  _atom_site_fract_x
  _atom_site_fract_y
  _atom_site_fract_z
  _atom_site_occupancy
  Ca  Ca1       1.0  0.7024736738887754  0.2373859152325012  0.45475436954252046  1.0000
  Ca  Ca2       1.0  0.297526698745358  0.7626132690877654  0.545245509114842  1.0000
  H   H1        1.0  0.7059120062393589  0.6295578373495802  0.4353356546926008  1.0000
  H   H2        1.0  0.29408836877396277  0.3704413493284592  0.5646651277167009  1.0000
  H   H3        1.0  0.7485480001186033  0.5396681209293065  0.58124199140628  1.0000
  H   H4        1.0  0.25145165463618463  0.4603326037819215  0.418758548408448  1.0000
  H   H5        1.0  0.4676771747137777  0.29102681650702084  0.043779265554924486  1.0000
  H   H6        1.0  0.5323244176565325  0.7089754536375352  0.9562209475273133  1.0000
  H   H7        1.0  0.12691137942607608  0.6162039545958892  0.9903082116464218  1.0000
  H   H8        1.0  0.8730888816280216  0.3837983094908354  0.009691139752831578  1.0000
  H   H9        1.0  0.11095038750999459  0.19001694083637227  0.5584203750346006  1.0000
  H   H10       1.0  0.889049264865612  0.8099837815170902  0.4415792610281881  1.0000
  H   H11       1.0  0.09509976143104382  0.24670699653572112  0.4120065275849852  1.0000
  H   H12       1.0  0.90490061120309  0.7532921877845451  0.5879933510723772  1.0000
  H   H13       1.0  0.6022910549077664  0.009836023764322  0.31771701406336916  1.0000
  H   H14       1.0  0.3977087114270644  0.9901616211804553  0.6822840530094609  1.0000
  H   H15       1.0  0.41316078325122146  0.229797555060273  0.2759434783439403  1.0000
  H   H16       1.0  0.5868395917621001  0.7702016316177733  0.7240573040653614  1.0000
  H   H17       1.0  0.0328195687461417  0.0536774147859873  0.2700304827822889  1.0000
  H   H18       1.0  0.9671821304458273  0.9463217708765798  0.7299684500541801  1.0000
  H   H19       1.0  0.826715519676938  0.25940341215794405  0.20371705354054367  1.0000
  H   H20       1.0  0.17328690215275322  0.7405942378291999  0.796283025642431  1.0000
  C   C1        1.0  0.6107728896052577  0.25584139224610425  0.760385291044308  1.0000
  C   C2        1.0  0.3892280940865545  0.7441593361651969  0.23961520670146533  1.0000
  C   C3        1.0  0.4870132375754039  0.3129663038653447  0.9444725836983493  1.0000
  C   C4        1.0  0.51298774373722  0.6870344221881837  0.055527010295485  1.0000
  C   C5        1.0  0.9222848759195581  0.6675503913355456  0.25661246047990716  1.0000
  C   C6        1.0  0.07771682565159921  0.33244879668478683  0.7433873761084939  1.0000
  C   C7        1.0  0.08692246183362316  0.600140658472725  0.08625583103209776  1.0000
  C   C8        1.0  0.9130771905419832  0.39986006388073764  0.9137438050306912  1.0000
  N   N1        1.0  0.4529652976087987  0.4467863915666329  0.7403685572231565  1.0000
  N   N2        1.0  0.5470350750253345  0.5532127927536337  0.2596313214342061  1.0000
  N   N3        1.0  0.37916619298711396  0.4773022673591856  0.8549372381161361  1.0000
  N   N4        1.0  0.62083478832551  0.5226984586943432  0.14506235587769814  1.0000
  N   N5        1.0  0.6356445565280423  0.1678445580673369  0.892440353869567  1.0000
  N   N6        1.0  0.36435642478458874  0.8321561679861915  0.10755924012426725  1.0000
  N   N7        1.0  0.7859283792968411  0.9775009154244715  0.9490242928866974  1.0000
  N   N8        1.0  0.21407260201578276  0.02249981062905701  0.050975301107136786  1.0000
  N   N9        1.0  0.7680049849880817  0.9330242228056634  0.0653571954844878  1.0000
  N   N10       1.0  0.2319946697667064  0.0669765019055717  0.9346433443302401  1.0000
  N   N11       1.0  0.9183598261561341  0.7460425856955412  0.12639589173305407  1.0000
  N   N12       1.0  0.08164115753567805  0.2539581427157601  0.8736046060127193  1.0000
  N   N13       1.0  0.08818221982376431  0.48338179302847106  0.2894582647955346  1.0000
  N   N14       1.0  0.9118187638680485  0.5166189353828301  0.7105422329502317  1.0000
  N   N15       1.0  0.1882026251729272  0.4447406322752557  0.18232370212498947  1.0000
  N   N16       1.0  0.8117963069441385  0.5552616281114029  0.8176756913432256  1.0000
  O   O1        1.0  0.7201719255565421  0.16221291809506516  0.683691912142038  1.0000
  O   O2        1.0  0.279828447077591  0.8377862662252015  0.31630796651532467  1.0000
  O   O3        1.0  0.7905341366283806  0.7600788970216001  0.32540400534883657  1.0000
  O   O4        1.0  0.20946817837964452  0.23992183744753254  0.6745973540799141  1.0000
  O   O5        1.0  0.6650986955844971  0.5536590671520899  0.5083859602674677  1.0000
  O   O6        1.0  0.33490167704963614  0.44634011716818384  0.4916139183898949  1.0000
  O   O7        1.0  0.07365662651051247  0.1555612701043216  0.4856635217197791  1.0000
  O   O8        1.0  0.9263443524229228  0.8444394535914412  0.5143351685221161  1.0000
  O   O9        1.0  0.5096573806642083  0.129976570110415  0.34838608705942414  1.0000
  O   O10       1.0  0.4903437146076468  0.8700210785344284  0.6516149379444514  1.0000
  O   O11       1.0  0.8868231614696143  0.13775033360953162  0.2759972833770945  1.0000
  O   O12       1.0  0.1131787561240569  0.8622426878045887  0.7240008964717076  1.0000
