data_image0
_chemical_formula_structural       Ga4P8H44C48N8O32
_chemical_formula_sum              "Ga4 P8 H44 C48 N8 O32"
_cell_length_a       6.4499649010027404
_cell_length_b       13.830488848078579
_cell_length_c       18.02018294116972
_cell_angle_alpha    78.05905603168847
_cell_angle_beta     79.70096490670689
_cell_angle_gamma    76.4957031840842

_space_group_name_H-M_alt    "P 1"
_space_group_IT_number       1

loop_
  _space_group_symop_operation_xyz
  'x, y, z'

loop_
  _atom_site_type_symbol
  _atom_site_label
  _atom_site_symmetry_multiplicity
  _atom_site_fract_x
  _atom_site_fract_y
  _atom_site_fract_z
  _atom_site_occupancy
  Ga  Ga1       1.0  0.9432670712446767  0.8798761578727721  0.7874109206879611  1.0000
  Ga  Ga2       1.0  0.6107133556190332  0.6201060866928073  0.7125372999028913  1.0000
  Ga  Ga3       1.0  0.05673676133766036  0.12012218435421568  0.21258719133341236  1.0000
  Ga  Ga4       1.0  0.3892871794911132  0.3798898576308575  0.28746553139846753  1.0000
  P   P1        1.0  0.460349691377779  0.8227459556173076  0.8009783789846595  1.0000
  P   P2        1.0  0.08412592733148458  0.6772954330331515  0.6989383867095429  1.0000
  P   P3        1.0  0.5396534089111782  0.1772545611355127  0.19902245806586197  1.0000
  P   P4        1.0  0.915876292279059  0.3227028590647123  0.3010613981419184  1.0000
  P   P5        1.0  0.8590881422295236  0.9926198503661895  0.6191481541501747  1.0000
  P   P6        1.0  0.4711295993023794  0.5073881379259718  0.8807946756429532  1.0000
  P   P7        1.0  0.14092288673803915  0.007377705031025494  0.380851090061448  1.0000
  P   P8        1.0  0.5288677844907997  0.49261316258099436  0.11920512690672076  1.0000
  H   H1        1.0  0.4519944082980275  0.6951753729362835  0.8992025902118004  1.0000
  H   H2        1.0  0.04635422639147866  0.8048824033797572  0.6007138256489599  1.0000
  H   H3        1.0  0.5480101718803638  0.30482514074090256  0.10079834452812263  1.0000
  H   H4        1.0  0.9536517552709184  0.19511442628783027  0.3992845563283184  1.0000
  H   H5        1.0  0.5831580564567533  0.9710146954688027  0.701277082533416  1.0000
  H   H6        1.0  0.2557754937697539  0.52893270057357  0.7986173372588186  1.0000
  H   H7        1.0  0.41685210025823244  0.028983597960589705  0.2987226331549736  1.0000
  H   H8        1.0  0.7442203401543922  0.4710678847622062  0.20138124082527756  1.0000
  H   H9        1.0  0.9715388230417473  0.0902642628721395  0.5149063516969364  1.0000
  H   H10       1.0  0.576937368637665  0.4097404668977091  0.9851000909871535  1.0000
  H   H11       1.0  0.02847159828895221  0.9097325575685318  0.4850923233485178  1.0000
  H   H12       1.0  0.4230542971107171  0.5902600379651517  0.014901177457680622  1.0000
  H   H13       1.0  0.824462302074984  0.1200363503727715  0.7594857516187832  1.0000
  H   H14       1.0  0.7046109327194825  0.3799491789022724  0.7405446502706713  1.0000
  H   H15       1.0  0.17554153205637124  0.8799635712524605  0.2405098600065828  1.0000
  H   H16       1.0  0.29540903713844097  0.6200461136008145  0.2594547831776525  1.0000
  H   H17       1.0  0.7003901025629485  0.25324948553411286  0.8456644415165047  1.0000
  H   H18       1.0  0.8001499961068747  0.24666292083964694  0.6544358802589372  1.0000
  H   H19       1.0  0.2996099710655639  0.7467534779196401  0.1543300725870225  1.0000
  H   H20       1.0  0.19986371959800647  0.7533331387078732  0.3455630762985679  1.0000
  H   H21       1.0  0.650559795583575  0.19749418798561894  0.9870920561118556  1.0000
  H   H22       1.0  0.835416580777107  0.3022927248533875  0.51300015779114  1.0000
  H   H23       1.0  0.34943302010596256  0.8025118067382166  0.012901722701073516  1.0000
  H   H24       1.0  0.16457790479095982  0.6977063373645436  0.48699905248010117  1.0000
  H   H25       1.0  0.6760292457014996  0.050908182830248415  0.0997970915801929  1.0000
  H   H26       1.0  0.8265881241002261  0.44879824155009373  0.4002572945559067  1.0000
  H   H27       1.0  0.3239593402585186  0.9490999758609817  0.9001997744931317  1.0000
  H   H28       1.0  0.17339002113029506  0.5512030989401425  0.5997412380316691  1.0000
  H   H29       1.0  0.7403136505072467  0.8679809598085269  0.14680067155821774  1.0000
  H   H30       1.0  0.7553850236215638  0.6316901137654511  0.3531619862185026  1.0000
  H   H31       1.0  0.2596728548033056  0.1320278502906973  0.8531995517314004  1.0000
  H   H32       1.0  0.24460240552046722  0.3683111717759147  0.6468383454148708  1.0000
  H   H33       1.0  0.8393587375431725  0.6863412285635988  0.11666817412571366  1.0000
  H   H34       1.0  0.6432988205122141  0.8134047477701073  0.3832205151959089  1.0000
  H   H35       1.0  0.16061713395077246  0.3136645339684208  0.8833333827012668  1.0000
  H   H36       1.0  0.35670629577442997  0.18659420321854722  0.6167823623299995  1.0000
  H   H37       1.0  0.945215866262693  0.5776252796115813  0.01771520578554944  1.0000
  H   H38       1.0  0.5411987508893719  0.9222135051602721  0.48210177084414607  1.0000
  H   H39       1.0  0.05476255888620331  0.42237893386597153  0.9822878339067813  1.0000
  H   H40       1.0  0.4588229787763679  0.0777846572544973  0.5179022673983271  1.0000
  H   H41       1.0  0.9831216772317575  0.6573309992343892  0.8782171784016273  1.0000
  H   H42       1.0  0.5186488141476532  0.8425943596860251  0.6216351979126601  1.0000
  H   H43       1.0  0.01686938930560445  0.3426717333590688  0.12178504455287965  1.0000
  H   H44       1.0  0.48136914504039646  0.15740230247187983  0.3783687195281545  1.0000
  C   C1        1.0  0.7979846670114482  0.1002661472961037  0.8217733441203523  1.0000
  C   C2        1.0  0.7205392703259297  0.399661633105751  0.6782596094900982  1.0000
  C   C3        1.0  0.20201486741078872  0.8997352200496991  0.17822422798921173  1.0000
  C   C4        1.0  0.2794715555796756  0.600335150839868  0.3217402784648088  1.0000
  C   C5        1.0  0.730612807606121  0.1730909494935275  0.8698065440752176  1.0000
  C   C6        1.0  0.7740848009280513  0.3267962884522504  0.6302673229570248  1.0000
  C   C7        1.0  0.2693832309289946  0.8269119866920746  0.13018888986957225  1.0000
  C   C8        1.0  0.22592044156413502  0.6732013324522726  0.36972975997755253  1.0000
  C   C9        1.0  0.7031211418070241  0.14253065125247127  0.9485676732236359  1.0000
  C   C10       1.0  0.7944983620339271  0.35728351315387386  0.5515072616475294  1.0000
  C   C11       1.0  0.2968729491609778  0.8574729895458975  0.05142934741798652  1.0000
  C   C12       1.0  0.20549847567614424  0.6427148079562456  0.4484915748363323  1.0000
  C   C13       1.0  0.7422751915705629  0.03848689339514519  0.9791410545726154  1.0000
  C   C14       1.0  0.7600073939661413  0.4613162291367204  0.5208862670340438  1.0000
  C   C15       1.0  0.2577182302068267  0.9615182568869897  0.02085579380248964  1.0000
  C   C16       1.0  0.2399829865289291  0.5386820875662366  0.47911273630227685  1.0000
  C   C17       1.0  0.7204176960839209  0.9986322579021375  0.05947394293766459  1.0000
  C   C18       1.0  0.7784933978875871  0.5011407080150505  0.44054187773019055  1.0000
  C   C19       1.0  0.2795762017969779  0.0013751535300130916  0.940522744727062  1.0000
  C   C20       1.0  0.22149005771481  0.49885830581786195  0.5594589768448018  1.0000
  C   C21       1.0  0.7578182993106071  0.8968614639030507  0.08544686278064975  1.0000
  C   C22       1.0  0.7402667572241345  0.6028834187479222  0.41452997613461673  1.0000
  C   C23       1.0  0.24217365100318486  0.10314665214185945  0.9145514115809023  1.0000
  C   C24       1.0  0.2597217456834214  0.39711632081461795  0.585471740674713  1.0000
  C   C25       1.0  0.8204343117717771  0.8263064856393213  0.03350259507424627  1.0000
  C   C26       1.0  0.680535643260491  0.6734892992767456  0.4664232120395868  1.0000
  C   C27       1.0  0.17955924996479644  0.1737001011364683  0.9664965068532327  1.0000
  C   C28       1.0  0.31946335040645824  0.32650889256286325  0.5335799184720288  1.0000
  C   C29       1.0  0.8582756259276253  0.7202737628752303  0.056234768620562633  1.0000
  C   C30       1.0  0.635319019415583  0.7795041249336591  0.44365897960278045  1.0000
  C   C31       1.0  0.14170979564255493  0.2797320511174419  0.9437650462132723  1.0000
  C   C32       1.0  0.3646866345283256  0.22049484276470113  0.5563433403130916  1.0000
  C   C33       1.0  0.916717573319019  0.65922919207803  0.0011562953570844984  1.0000
  C   C34       1.0  0.5775770286598814  0.8405974556703697  0.4986894715643828  1.0000
  C   C35       1.0  0.0832667713876201  0.3407750090969727  0.9988471350928169  1.0000
  C   C36       1.0  0.42243837687320984  0.1594007555420021  0.5013129630110811  1.0000
  C   C37       1.0  0.9392291828945504  0.7028342714260346  0.9232981010219209  1.0000
  C   C38       1.0  0.5654907106383079  0.7970578462680818  0.5765749788446473  1.0000
  C   C39       1.0  0.06076114447260048  0.29716925240435893  0.07670282288988524  1.0000
  C   C40       1.0  0.43452401572932325  0.20293733234267813  0.4234282601844798  1.0000
  C   C41       1.0  0.8467744608933215  0.8637044552515932  0.953850849744683  1.0000
  C   C42       1.0  0.6643554731641427  0.6361494896529865  0.5460960729836801  1.0000
  C   C43       1.0  0.15322071226604086  0.1363006022550763  0.04614907974873012  1.0000
  C   C44       1.0  0.33564519502836265  0.36384650787544365  0.45390498779821103  1.0000
  C   C45       1.0  0.8075082152864395  0.9704928065185927  0.9263522206014019  1.0000
  C   C46       1.0  0.704442539018899  0.5293734331727791  0.573633498253365  1.0000
  C   C47       1.0  0.19249051686281862  0.029510017106211702  0.0736469497611267  1.0000
  C   C48       1.0  0.2955541656088058  0.4706248347325753  0.4263671087499717  1.0000
  N   N1        1.0  0.8348779287296606  0.0017779859727510938  0.849637118478505  1.0000
  N   N2        1.0  0.6865320458338928  0.49813791236991284  0.6503567184496506  1.0000
  N   N3        1.0  0.16512025733649688  0.9982218582552065  0.15036108581821145  1.0000
  N   N4        1.0  0.31347346815083194  0.5018596188347929  0.3496433479138475  1.0000
  N   N5        1.0  0.9065725174783448  0.8023559077331371  0.9008740244991459  1.0000
  N   N6        1.0  0.6098296410499915  0.6975360133780554  0.5990440682661032  1.0000
  N   N7        1.0  0.0934252708897318  0.1976453562787768  0.09912699095997372  1.0000
  N   N8        1.0  0.39017459455824605  0.3024607129556359  0.4009577570607307  1.0000
  O   O1        1.0  0.6188597960624166  0.8964233827586057  0.7816776131130043  1.0000
  O   O2        1.0  0.29712029998596984  0.6036055300603635  0.718266154689303  1.0000
  O   O3        1.0  0.38114141976220145  0.10357717356490778  0.21832191333868425  1.0000
  O   O4        1.0  0.702881038946167  0.3963905373825369  0.2817325779630907  1.0000
  O   O5        1.0  0.2343856233135356  0.8886887735207765  0.7982641272166975  1.0000
  O   O6        1.0  0.9214962040452335  0.611351495512004  0.701626290384418  1.0000
  O   O7        1.0  0.7656179431040826  0.11130946229668841  0.20173752584362603  1.0000
  O   O8        1.0  0.07850406799820313  0.38864750119861213  0.2983750811638616  1.0000
  O   O9        1.0  0.5100076816926842  0.7471468293171099  0.7463862711188443  1.0000
  O   O10       1.0  0.0034509705895187192  0.752890084473272  0.75352630692165  1.0000
  O   O11       1.0  0.48999144350761975  0.2528498363290197  0.2536175892693181  1.0000
  O   O12       1.0  0.9965580408313387  0.2471074572898715  0.24647339721060754  1.0000
  O   O13       1.0  0.4835637044973212  0.7664871491864815  0.8859372254505121  1.0000
  O   O14       1.0  0.13603256311083095  0.7335424492524537  0.6139863372474965  1.0000
  O   O15       1.0  0.5164438354599384  0.2335133583394295  0.11406390466818551  1.0000
  O   O16       1.0  0.863966758274607  0.2664536045563821  0.38601285532552526  1.0000
  O   O17       1.0  0.9744756663955129  0.9709150607574486  0.6898287209867464  1.0000
  O   O18       1.0  0.635503869820809  0.5290923346864388  0.8101332518365967  1.0000
  O   O19       1.0  0.02553912462389721  0.02908103220948989  0.3101691203507002  1.0000
  O   O20       1.0  0.36449761061952296  0.4709067486483676  0.18986523397215654  1.0000
  O   O21       1.0  0.6069089143918021  0.01136427935941239  0.647399534335179  1.0000
  O   O22       1.0  0.2660782325204491  0.4885525322741202  0.8524932449775096  1.0000
  O   O23       1.0  0.3931072318605119  0.9886347200142609  0.35260169888696435  1.0000
  O   O24       1.0  0.7339135663102923  0.5114480257935058  0.1475062529478565  1.0000
  O   O25       1.0  0.8970654127021973  0.09642116549130719  0.5695129700847164  1.0000
  O   O26       1.0  0.5634234295943016  0.4035925594779071  0.9304698338988546  1.0000
  O   O27       1.0  0.10295213503412277  0.9035741498727601  0.4304857103747965  1.0000
  O   O28       1.0  0.43656977759727067  0.5964056978690093  0.06953113533572262  1.0000
  O   O29       1.0  0.927463405135285  0.9103979343731228  0.5694388966626251  1.0000
  O   O30       1.0  0.40733211236957323  0.5896404354469738  0.930479722720293  1.0000
  O   O31       1.0  0.07254325414356794  0.08960034849782518  0.4305611812570121  1.0000
  O   O32       1.0  0.5926712625099455  0.4103631504025175  0.06951909696712731  1.0000
