data_image0
_chemical_formula_structural       Na2H6C2N8O2
_chemical_formula_sum              "Na2 H6 C2 N8 O2"
_cell_length_a       5.624865113642595
_cell_length_b       5.802228829796033
_cell_length_c       6.370968896427022
_cell_angle_alpha    89.99925429297268
_cell_angle_beta     89.9969351202964
_cell_angle_gamma    90.00173873541104

_space_group_name_H-M_alt    "P 1"
_space_group_IT_number       1

loop_
  _space_group_symop_operation_xyz
  'x, y, z'

loop_
  _atom_site_type_symbol
  _atom_site_label
  _atom_site_symmetry_multiplicity
  _atom_site_fract_x
  _atom_site_fract_y
  _atom_site_fract_z
  _atom_site_occupancy
  Na  Na1       1.0  0.999972949880551  0.9999561243896763  0.49995256933569715  1.0000
  Na  Na2       1.0  0.9999685823834883  0.9999838282855223  3.1748282950199995e-05  1.0000
  H   H1        1.0  0.17562936334078222  0.5000155354472541  0.24999883315667398  1.0000
  H   H2        1.0  0.8244066197245418  0.5000007822764586  0.7499985553075063  1.0000
  H   H3        1.0  0.5778695157881445  0.8625095881504379  0.7499959351264137  1.0000
  H   H4        1.0  0.5778154551591754  0.13756920253776173  0.7499986596626513  1.0000
  H   H5        1.0  0.4221878002088389  0.1374395143698166  0.24999674437358269  1.0000
  H   H6        1.0  0.4222471941971905  0.8623764530981363  0.24999558935214589  1.0000
  C   C1        1.0  0.9825322707864004  0.5001273180227201  0.24998611161767306  1.0000
  C   C2        1.0  0.017409489443977605  0.4999786191096547  0.750003430434532  1.0000
  N   N1        1.0  0.6218960674267677  0.6132165060121864  0.2499562626070357  1.0000
  N   N2        1.0  0.6219813965632499  0.3867483615617929  0.2500486396336967  1.0000
  N   N3        1.0  0.3780403599531681  0.3867705118071569  0.7499516600365439  1.0000
  N   N4        1.0  0.37803680429570363  0.6132317621049027  0.7500617621013104  1.0000
  N   N5        1.0  0.8484111680057964  0.6912588005061054  0.2500289479315612  1.0000
  N   N6        1.0  0.8485580532906669  0.3088953931927422  0.24996999353759014  1.0000
  N   N7        1.0  0.15149325460178184  0.30879198426409  0.7500437851847721  1.0000
  N   N8        1.0  0.15149393242214876  0.6911709059067378  0.7499787360347695  1.0000
  O   O1        1.0  0.6836184977686699  4.9461369791000006e-05  0.7500016916327324  1.0000
  O   O2        1.0  0.31644237353533816  0.9998996411239673  0.25000197512333944  1.0000
