data_image0
_chemical_formula_structural       Al2H14C18N4O10
_chemical_formula_sum              "Al2 H14 C18 N4 O10"
_cell_length_a       6.672157941025545
_cell_length_b       8.77693140934682
_cell_length_c       17.002346844872044
_cell_angle_alpha    102.50019181369147
_cell_angle_beta     82.29994513302032
_cell_angle_gamma    75.82375574030057

_space_group_name_H-M_alt    "P 1"
_space_group_IT_number       1

loop_
  _space_group_symop_operation_xyz
  'x, y, z'

loop_
  _atom_site_type_symbol
  _atom_site_label
  _atom_site_symmetry_multiplicity
  _atom_site_fract_x
  _atom_site_fract_y
  _atom_site_fract_z
  _atom_site_occupancy
  Al  Al1       1.0  0.00043463797921114406  0.49916659550908793  0.499889612263999  1.0000
  Al  Al2       1.0  0.5004310373012828  0.4992226926415597  0.4998674769534331  1.0000
  H   H1        1.0  0.17412230728449885  0.6310740168049379  0.5990158385460871  1.0000
  H   H2        1.0  0.8268926619009636  0.3672637432486923  0.4007042435982128  1.0000
  H   H3        1.0  0.6103685899801404  0.5808606487089066  0.2708728123218477  1.0000
  H   H4        1.0  0.6667034897110895  0.5815756220294618  0.12190651353247965  1.0000
  H   H5        1.0  0.11619102803695823  0.4171960402607198  0.09676638714130086  1.0000
  H   H6        1.0  0.05631630098186954  0.4206619422601605  0.2466653047334403  1.0000
  H   H7        1.0  0.8817461466749352  0.5863623509203321  0.9034779560967362  1.0000
  H   H8        1.0  0.33310557998987644  0.41942787544229515  0.8782907867334369  1.0000
  H   H9        1.0  0.3901885748261976  0.41860862236920576  0.7291433356751893  1.0000
  H   H10       1.0  0.9426164463122576  0.5810249215767058  0.7533560627625202  1.0000
  H   H11       1.0  0.7341747465043513  0.1477933783026869  0.5126077565670213  1.0000
  H   H12       1.0  0.8787395549667356  0.9762223469287717  0.5374567236846771  1.0000
  H   H13       1.0  0.2661164078386805  0.8509246256807825  0.4873968487469395  1.0000
  H   H14       1.0  0.12192263839952497  0.02253726939914453  0.46257058176900034  1.0000
  C   C1        1.0  0.6531619784004192  0.7896362931952368  0.5111542395998041  1.0000
  C   C2        1.0  0.6983826649712128  0.504656680375433  0.6448326101520292  1.0000
  C   C3        1.0  0.34763941907523593  0.20884844763713764  0.48874480538294296  1.0000
  C   C4        1.0  0.30196834869038025  0.49475357742389287  0.3550403380605259  1.0000
  C   C5        1.0  0.3319367086825694  0.4979937610319568  0.267020319528818  1.0000
  C   C6        1.0  0.5039654766182481  0.5441717150506591  0.23202201616353332  1.0000
  C   C7        1.0  0.5357491737247457  0.5447090070921305  0.14984610402994036  1.0000
  C   C8        1.0  0.39601533650053256  0.4965905680796254  0.10092756968519717  1.0000
  C   C9        1.0  0.222246234682288  0.4531349747717144  0.13602788896009335  1.0000
  C   C10       1.0  0.19002360462091156  0.45449531731054554  0.21870905244550434  1.0000
  C   C11       1.0  0.7762662966171946  0.5495165700979711  0.8641770042921589  1.0000
  C   C12       1.0  0.6027413367265879  0.5058276436275475  0.8993240108032476  1.0000
  C   C13       1.0  0.4637928729850673  0.4565369996662766  0.850337018124591  1.0000
  C   C14       1.0  0.49595682368804006  0.45624450158246777  0.7680477063172189  1.0000
  C   C15       1.0  0.6677975280149226  0.5025610863173354  0.7329984040390085  1.0000
  C   C16       1.0  0.8090326842917792  0.5471329557510315  0.7813661336355862  1.0000
  C   C17       1.0  0.6000145533125691  0.959809729506233  0.5055851515051228  1.0000
  C   C18       1.0  0.4005892139265725  0.03877242743561026  0.494450929366941  1.0000
  N   N1        1.0  0.4155938706572543  0.4886618025383458  0.016286439174123802  1.0000
  N   N2        1.0  0.5829012198611637  0.5142409690064226  0.9840164939645033  1.0000
  N   N3        1.0  0.7660561845055015  0.02692237953039713  0.5087477138904288  1.0000
  N   N4        1.0  0.2343181152972066  0.971843154965583  0.49139893345517266  1.0000
  O   O1        1.0  0.8453880176272294  0.7223356701353012  0.5128114620964935  1.0000
  O   O2        1.0  0.5416954214026007  0.5006463448359213  0.6097135088583199  1.0000
  O   O3        1.0  0.49523816939202453  0.27896557045201575  0.48480333523922053  1.0000
  O   O4        1.0  0.12320103301559736  0.48771303864980103  0.3888842632132138  1.0000
  O   O5        1.0  0.1554788967609397  0.27610894869367536  0.48698246061018563  1.0000
  O   O6        1.0  0.4588817793820894  0.4983110493953049  0.3900736746266275  1.0000
  O   O7        1.0  0.5055784868791309  0.7195315982194401  0.5150546450445431  1.0000
  O   O8        1.0  0.8773998464752853  0.5111601018099065  0.6109411724475888  1.0000
  O   O9        1.0  0.21155785046911996  0.5762661815596176  0.5409589186497781  1.0000
  O   O10       1.0  0.7893132722746404  0.4220634421022567  0.45876425071248395  1.0000
