data_image0
_chemical_formula_structural       Sm4H44C36S18N12O34
_chemical_formula_sum              "Sm4 H44 C36 S18 N12 O34"
_cell_length_a       9.660152585759546
_cell_length_b       13.11972466976165
_cell_length_c       14.975832453106525
_cell_angle_alpha    66.06607971419719
_cell_angle_beta     82.9188709214208
_cell_angle_gamma    80.63638197343683

_space_group_name_H-M_alt    "P 1"
_space_group_IT_number       1

loop_
  _space_group_symop_operation_xyz
  'x, y, z'

loop_
  _atom_site_type_symbol
  _atom_site_label
  _atom_site_symmetry_multiplicity
  _atom_site_fract_x
  _atom_site_fract_y
  _atom_site_fract_z
  _atom_site_occupancy
  Sm  Sm1       1.0  0.28958307008976897  0.0439861783592335  0.9467654614929513  1.0000
  Sm  Sm2       1.0  0.7104142874749823  0.9560150891064011  0.05323379105291792  1.0000
  Sm  Sm3       1.0  0.16951463737804312  0.5489400242885552  0.04031764621539222  1.0000
  Sm  Sm4       1.0  0.8304840317298315  0.45105956543473974  0.9596821024181706  1.0000
  H   H1        1.0  0.3327175103841853  0.3546246779379203  0.19715527614813763  1.0000
  H   H2        1.0  0.6672812741471147  0.6453740548324164  0.8028427690995911  1.0000
  H   H3        1.0  0.4389077752152843  0.40965286278918  0.10270919942804116  1.0000
  H   H4        1.0  0.5610906313225285  0.5903484132581838  0.8972906297413696  1.0000
  H   H5        1.0  0.0890499727552907  0.9825619862101436  0.7523839453676259  1.0000
  H   H6        1.0  0.9109495221306361  0.0174325776391981  0.24761955314141196  1.0000
  H   H7        1.0  0.980875708013663  0.1003598360656781  0.7656796016418635  1.0000
  H   H8        1.0  0.019124407094686515  0.8996372355114416  0.2343209354350578  1.0000
  H   H9        1.0  0.25004167270093103  0.7217212426691969  0.10357378322118667  1.0000
  H   H10       1.0  0.7499576293186435  0.2782808658146223  0.8964243344746021  1.0000
  H   H11       1.0  0.3312314444449669  0.7465717422819013  0.0025978449902552985  1.0000
  H   H12       1.0  0.6687681264893185  0.2534286853942334  0.9974008574168564  1.0000
  H   H13       1.0  0.05850911212807121  0.5820224932960798  0.22708745448110795  1.0000
  H   H14       1.0  0.9414913542879899  0.4179787668165177  0.7729095364523743  1.0000
  H   H15       1.0  0.16359386499743075  0.46646885235894336  0.27047890817493675  1.0000
  H   H16       1.0  0.8364046633084494  0.5335315722518317  0.7295198828557969  1.0000
  H   H17       1.0  0.8799157041494539  0.6396650626642284  0.08417371284082265  1.0000
  H   H18       1.0  0.12008490941325078  0.3603353680772656  0.9158249009426523  1.0000
  H   H19       1.0  0.9421576944928984  0.7557001650625494  0.023757925835610667  1.0000
  H   H20       1.0  0.05783967576114428  0.24430111343583152  0.976242657204601  1.0000
  H   H21       1.0  0.44887218500995363  0.18737240545946326  0.006636292690380694  1.0000
  H   H22       1.0  0.5511262088385678  0.8126288595551543  0.9933622059846953  1.0000
  H   H23       1.0  0.3290499325477611  0.2836061383816215  0.951315345228934  1.0000
  H   H24       1.0  0.6709485957581194  0.7163942862291535  0.04868344580179957  1.0000
  H   H25       1.0  0.9718465318369738  0.3488917870698173  0.28883938229700584  1.0000
  H   H26       1.0  0.028153032752669612  0.6511086350899404  0.7111586548629345  1.0000
  H   H27       1.0  0.0699505399263742  0.2279923789768077  0.2751123695130814  1.0000
  H   H28       1.0  0.9300469267171746  0.772008026019499  0.7248845143997826  1.0000
  H   H29       1.0  0.20913757311111414  0.1527974916553489  0.6651633404734978  1.0000
  H   H30       1.0  0.7908621195912459  0.8472020845841969  0.3348343237949365  1.0000
  H   H31       1.0  0.3285944305032514  0.252470389520397  0.6445255136085277  1.0000
  H   H32       1.0  0.6714051277417566  0.7475300271229913  0.3554718583042416  1.0000
  H   H33       1.0  0.41582590464653174  0.2023260286272972  0.18513535151507196  1.0000
  H   H34       1.0  0.5841844946366948  0.7976786623688524  0.8148642404896407  1.0000
  H   H35       1.0  0.5812494691798944  0.24038904197179528  0.19340584238274525  1.0000
  H   H36       1.0  0.4187657932448873  0.7596047219376841  0.8065959538803468  1.0000
  H   H37       1.0  0.5189939990683499  0.7477113118203391  0.2384525163378726  1.0000
  H   H38       1.0  0.48100388998118854  0.2522865885135345  0.7615472403834784  1.0000
  H   H39       1.0  0.44134233915182336  0.8489201125304223  0.2867009355646032  1.0000
  H   H40       1.0  0.5586563363006929  0.1510794827092496  0.7132994783161306  1.0000
  H   H41       1.0  0.5364593605247023  0.4592143827069108  0.7947289863931886  1.0000
  H   H42       1.0  0.4635414445971263  0.5407852572780811  0.2052759069704564  1.0000
  H   H43       1.0  0.4526047192960405  0.5991628851222047  0.7398901355272541  1.0000
  H   H44       1.0  0.5473960731365038  0.40083674383004103  0.2601134273420556  1.0000
  C   C1        1.0  0.9945364713526955  0.9519766384734324  0.897326235427805  1.0000
  C   C2        1.0  0.0054663809581044  0.04802297454403969  0.1026744892055831  1.0000
  C   C3        1.0  0.9908612360678218  0.008988303115351896  0.7868080899452108  1.0000
  C   C4        1.0  0.00913771464404784  0.9910096168330045  0.2131935738940102  1.0000
  C   C5        1.0  0.8769850666457087  0.054168767434795505  0.6180023002517385  1.0000
  C   C6        1.0  0.12301257252303803  0.9458308302558933  0.3819988674997888  1.0000
  C   C7        1.0  0.8707049881563049  0.1477187141215808  0.4441104839682807  1.0000
  C   C8        1.0  0.12929343107078486  0.8522825729585295  0.5558906756954655  1.0000
  C   C9        1.0  0.9688948166013701  0.2825165584317446  0.2625464601320218  1.0000
  C   C10       1.0  0.03110371170451031  0.7174838661790305  0.7374523308987193  1.0000
  C   C11       1.0  0.9428928548232843  0.33297511215167924  0.15494511811727563  1.0000
  C   C12       1.0  0.057105660793311565  0.6670253014263494  0.845052342419123  1.0000
  C   C13       1.0  0.14328342906009078  0.2648582331019966  0.7390819684571637  1.0000
  C   C14       1.0  0.8567186178137971  0.7351396684605618  0.2609161032753349  1.0000
  C   C15       1.0  0.21693530566695074  0.24019998271737114  0.6527854534259062  1.0000
  C   C16       1.0  0.7830642398887732  0.7598004228932711  0.34721058799252796  1.0000
  C   C17       1.0  0.2364557844100759  0.28855834906722316  0.46092869696368405  1.0000
  C   C18       1.0  0.7635436520668577  0.711442919012754  0.5390697130877625  1.0000
  C   C19       1.0  0.389153676136587  0.18878767117308828  0.3761435562562524  1.0000
  C   C20       1.0  0.6108470782281117  0.8112119246809257  0.6238560151300517  1.0000
  C   C21       1.0  0.5207335413575719  0.1692550001761717  0.21302532441941927  1.0000
  C   C22       1.0  0.47927988438395636  0.8307438141237709  0.7869761368276612  1.0000
  C   C23       1.0  0.5926893012822418  0.09341784969132053  0.16370206025146664  1.0000
  C   C24       1.0  0.4073145873123209  0.9065817608751346  0.8362979105111137  1.0000
  C   C25       1.0  0.37397543323396576  0.8789764895340396  0.1458674051429938  1.0000
  C   C26       1.0  0.6260201143333218  0.12102309650956043  0.854133274608628  1.0000
  C   C27       1.0  0.42065169393502083  0.8001803979695412  0.24610224925309135  1.0000
  C   C28       1.0  0.5793467252920691  0.19982088911056908  0.7538989104106546  1.0000
  C   C29       1.0  0.3377335691531511  0.6572768612162535  0.4276930041901039  1.0000
  C   C30       1.0  0.662265131677934  0.3427227560889037  0.5723100706792934  1.0000
  C   C31       1.0  0.354336537201064  0.557078372141156  0.5995966496904614  1.0000
  C   C32       1.0  0.645664236197554  0.4429212402619739  0.4004049174373491  1.0000
  C   C33       1.0  0.43399823283805716  0.5120624171776527  0.7845216034060769  1.0000
  C   C34       1.0  0.566004535772521  0.4879380803746472  0.21548415084898662  1.0000
  C   C35       1.0  0.3619180915347116  0.5023702797240972  0.8833068224363456  1.0000
  C   C36       1.0  0.6380813766654326  0.49763101593774184  0.11669491385093525  1.0000
  S   S1        1.0  0.8427062951488296  0.9781215379767404  0.7426552747639119  1.0000
  S   S2        1.0  0.1572925147610391  0.021877216859081703  0.2573454314724798  1.0000
  S   S3        1.0  0.7484979935923235  0.0803349148756141  0.5363912368978845  1.0000
  S   S4        1.0  0.25149936397243516  0.9196663525900207  0.46360801564799176  1.0000
  S   S5        1.0  0.8253920172005422  0.20062490093658167  0.3236224945067078  1.0000
  S   S6        1.0  0.17460651744998046  0.79937552919057  0.6763769617711971  1.0000
  S   S7        1.0  0.13325928697202727  0.3353409160487928  0.5421963139014423  1.0000
  S   S8        1.0  0.8667413139013929  0.6646595036599479  0.4578009693876977  1.0000
  S   S9        1.0  0.34831850696948397  0.16269057752910504  0.49820907741569437  1.0000
  S   S10       1.0  0.6516821065932135  0.8373098532123819  0.5017895363677879  1.0000
  S   S11       1.0  0.5055553176054629  0.0922948200949492  0.3437103896933137  1.0000
  S   S12       1.0  0.49444937008136935  0.9077064964100432  0.6562915687229917  1.0000
  S   S13       1.0  0.2822863915133169  0.7141278192378238  0.3094009849653645  1.0000
  S   S14       1.0  0.7177102304055936  0.2858717974529981  0.6906029323984695  1.0000
  S   S15       1.0  0.2218459723986541  0.5844192332276207  0.5213836437385524  1.0000
  S   S16       1.0  0.7781527284324312  0.41558038407754333  0.47861943113085204  1.0000
  S   S17       1.0  0.3194137531198677  0.4702315531545763  0.7214605129716956  1.0000
  S   S18       1.0  0.6805871483914673  0.529767213328334  0.2785406812646086  1.0000
  N   N1        1.0  0.9940314011414983  0.09632399445204949  0.5756688403661769  1.0000
  N   N2        1.0  0.005966231682606248  0.9036755977222699  0.42433166213818646  1.0000
  N   N3        1.0  0.9907555873182401  0.14967351304908047  0.47582713678208666  1.0000
  N   N4        1.0  0.009242819219572602  0.8503277629982834  0.5241726923873243  1.0000
  N   N5        1.0  0.23657963309942434  0.3414606903102211  0.3648710063657886  1.0000
  N   N6        1.0  0.763420065947578  0.6585388914456943  0.6351273231498168  1.0000
  N   N7        1.0  0.3225823653791339  0.2840035949793247  0.31682761048162417  1.0000
  N   N8        1.0  0.6774185170982746  0.71599515495447  0.6831715880131737  1.0000
  N   N9        1.0  0.45893617061597775  0.6617037999416694  0.45731660422243436  1.0000
  N   N10       1.0  0.5410647435846414  0.3382949775739803  0.5426859205082051  1.0000
  N   N11       1.0  0.46834119502940996  0.6038534287820951  0.5565852220946182  1.0000
  N   N12       1.0  0.5316574994570259  0.3961461830066924  0.44341718752762194  1.0000
  O   O1        1.0  0.10136478984211546  0.95861171975659  0.9339063368811152  1.0000
  O   O2        1.0  0.8986285189770767  0.0413886840110251  0.06609223202060119  1.0000
  O   O3        1.0  0.3380111304788755  0.39910736794370655  0.12362603464283947  1.0000
  O   O4        1.0  0.6619881791925621  0.6008879921784995  0.8763718495331999  1.0000
  O   O5        1.0  0.8907533268110511  0.9004593004680714  0.9473259234308955  1.0000
  O   O6        1.0  0.10924250870487377  0.0995386213169525  0.05267733677355581  1.0000
  O   O7        1.0  0.2894531757285677  0.6851139890878031  0.05880811377354433  1.0000
  O   O8        1.0  0.7105452181199539  0.3148872759268215  0.9411903849015316  1.0000
  O   O9        1.0  0.007930255420397688  0.4150839638885415  0.0960158646940812  1.0000
  O   O10       1.0  0.9920661939733009  0.5849164601078911  0.9039837688310824  1.0000
  O   O11       1.0  0.12786795076852533  0.5267005977097058  0.20864164699398907  1.0000
  O   O12       1.0  0.8721317482784768  0.4732989840462026  0.7913566825216163  1.0000
  O   O13       1.0  0.853606696900556  0.2957821588588772  0.12460667062955366  1.0000
  O   O14       1.0  0.14639208763075115  0.7042165739114596  0.875391374618168  1.0000
  O   O15       1.0  0.9669913054330406  0.6735337640632082  0.05748735370529811  1.0000
  O   O16       1.0  0.03300799658654088  0.3264683444206113  0.9425107639904834  1.0000
  O   O17       1.0  0.37022470932307516  0.20588739926862584  0.9635468250221277  1.0000
  O   O18       1.0  0.6297747271538654  0.7941138688113512  0.036451585029318834  1.0000
  O   O19       1.0  0.19059680812191704  0.2032536464777408  0.8230841203150089  1.0000
  O   O20       1.0  0.8093994750912257  0.7967475903406793  0.17691189461865525  1.0000
  O   O21       1.0  0.043629441840025214  0.34324766726192724  0.720913224609255  1.0000
  O   O22       1.0  0.9563673461721078  0.6567569342372366  0.2790815322781341  1.0000
  O   O23       1.0  0.6431419492045264  0.9938479314123113  0.2108116280283029  1.0000
  O   O24       1.0  0.3568624581855317  0.006148300989643497  0.7891875164154241  1.0000
  O   O25       1.0  0.5981299962811378  0.1366168707631701  0.06894903124082666  1.0000
  O   O26       1.0  0.4018714100291874  0.863385260400484  0.9310509049492025  1.0000
  O   O27       1.0  0.45058769646989555  0.9564085944170698  0.09293146358033523  1.0000
  O   O28       1.0  0.5494098145861415  0.04359184919383809  0.9070700770626983  1.0000
  O   O29       1.0  0.2635874236196258  0.8691122503298702  0.114273557594899  1.0000
  O   O30       1.0  0.7364122944612956  0.13088734797516108  0.8857267676622057  1.0000
  O   O31       1.0  0.396331613929874  0.561559376557028  0.9247925269107568  1.0000
  O   O32       1.0  0.6036681295296233  0.43844024381348845  0.07521045933501821  1.0000
  O   O33       1.0  0.26557494226927497  0.4385599871704003  0.9226648959153106  1.0000
  O   O34       1.0  0.7344230735857521  0.5614438211212516  0.07733538668144758  1.0000
