data_image0
_chemical_formula_structural       Cu2H48C50N8O10
_chemical_formula_sum              "Cu2 H48 C50 N8 O10"
_cell_length_a       10.193959664680637
_cell_length_b       10.44956552067264
_cell_length_c       14.598224768294143
_cell_angle_alpha    86.87725506203104
_cell_angle_beta     73.07017936587181
_cell_angle_gamma    86.86959359635439

_space_group_name_H-M_alt    "P 1"
_space_group_IT_number       1

loop_
  _space_group_symop_operation_xyz
  'x, y, z'

loop_
  _atom_site_type_symbol
  _atom_site_label
  _atom_site_symmetry_multiplicity
  _atom_site_fract_x
  _atom_site_fract_y
  _atom_site_fract_z
  _atom_site_occupancy
  Cu  Cu1       1.0  0.9463551541123179  0.10046827571081712  0.9687882708370665  1.0000
  Cu  Cu2       1.0  0.05364618522869341  0.8995319055957224  0.03121367335407398  1.0000
  H   H1        1.0  0.8880838246854948  0.33303155807112717  0.8868147853724299  1.0000
  H   H2        1.0  0.11191865050572149  0.6669666636123494  0.11319041395820763  1.0000
  H   H3        1.0  0.7844987364966656  0.3190625140572365  0.9911817311314266  1.0000
  H   H4        1.0  0.21550165325558615  0.6809366806789613  0.00882387007120401  1.0000
  H   H5        1.0  0.592846317377834  0.17712289030310296  0.10643249323458552  1.0000
  H   H6        1.0  0.4071520893234037  0.8228744000653164  0.8935735866058181  1.0000
  H   H7        1.0  0.9674294767424526  0.387591429563379  0.08015535038732217  1.0000
  H   H8        1.0  0.032575667021248506  0.612416417671234  0.9198434835583245  1.0000
  H   H9        1.0  0.9471768563862215  0.46236630133684276  0.1900983417610148  1.0000
  H   H10       1.0  0.05282926212829149  0.537642511836239  0.8098988857887052  1.0000
  H   H11       1.0  0.9672280518069913  0.5588712495050457  0.08291820513850466  1.0000
  H   H12       1.0  0.032769921340204206  0.44113570791521534  0.917080099892239  1.0000
  H   H13       1.0  0.4203284499031952  0.05007311202710699  0.06203101773371603  1.0000
  H   H14       1.0  0.5796718727502679  0.9499261377274169  0.9379691151607547  1.0000
  H   H15       1.0  0.17307974694588782  0.10167690795457669  0.6566675227025984  1.0000
  H   H16       1.0  0.8269279751021942  0.8983193194034412  0.34334076038486927  1.0000
  H   H17       1.0  0.3513474331522772  0.5230542042669839  0.0841339000492241  1.0000
  H   H18       1.0  0.6486579584839447  0.4769459904781855  0.915863087989621  1.0000
  H   H19       1.0  0.27793100866595916  0.7405887208075796  0.7765315650415162  1.0000
  H   H20       1.0  0.7220800399588896  0.25939703829915567  0.2234661052518092  1.0000
  H   H21       1.0  0.31268908206662616  0.03541422658709339  0.49329941186869064  1.0000
  H   H22       1.0  0.6873064183167373  0.9645782889493401  0.5067074371055754  1.0000
  H   H23       1.0  0.1843515863557883  0.3954978541598138  0.03727077132162291  1.0000
  H   H24       1.0  0.8156518216494888  0.6045013678485843  0.9627294039204843  1.0000
  H   H25       1.0  0.40690953053051976  0.6700109012304692  0.616033245864962  1.0000
  H   H26       1.0  0.5930921344888489  0.32997783916699314  0.3839621700041107  1.0000
  H   H27       1.0  0.7828291992276419  0.61571700946498  0.2958494533051664  1.0000
  H   H28       1.0  0.21717374890170055  0.3842937634891328  0.7041463136426813  1.0000
  H   H29       1.0  0.7781653916108057  0.7274769583132538  0.20294578650002396  1.0000
  H   H30       1.0  0.22183254798699883  0.27253002661617387  0.7970497843766396  1.0000
  H   H31       1.0  0.43193919164548317  0.9546567679710803  0.2038468471631419  1.0000
  H   H32       1.0  0.5680537035516763  0.045350182966821306  0.7961566277501932  1.0000
  H   H33       1.0  0.5071431535780491  0.8070817255442863  0.15303150317087952  1.0000
  H   H34       1.0  0.492848478218896  0.19293008306904363  0.8469665892216156  1.0000
  H   H35       1.0  0.6136993803234746  0.9299772414620621  0.16316092114093553  1.0000
  H   H36       1.0  0.38629131923933363  0.0700326351953393  0.8368394867746076  1.0000
  H   H37       1.0  0.6388168383597943  0.7073722311969206  0.5442654702462734  1.0000
  H   H38       1.0  0.36118245979869107  0.2926251622518734  0.45572945924751457  1.0000
  H   H39       1.0  0.7258292487113849  0.6132084093737119  0.4451951034043802  1.0000
  H   H40       1.0  0.27417193069006623  0.38679283423234523  0.5547965621203589  1.0000
  H   H41       1.0  0.5663332181659727  0.5659415869653514  0.5224981809344486  1.0000
  H   H42       1.0  0.4336691485696421  0.4340557924918968  0.4774954238299429  1.0000
  H   H43       1.0  0.3558106941884134  0.6374687906949177  0.21586855467742794  1.0000
  H   H44       1.0  0.6441926551054281  0.362530479454513  0.7841268357950355  1.0000
  H   H45       1.0  0.40061851893668177  0.5956468487040993  0.3221935638764534  1.0000
  H   H46       1.0  0.5993775651601184  0.4043553338051851  0.6778046130193333  1.0000
  H   H47       1.0  0.3355149976460652  0.4781278646097746  0.2645995134798866  1.0000
  H   H48       1.0  0.6644852231993568  0.521873330934234  0.7353978340833154  1.0000
  C   C1        1.0  0.21926827530801765  0.9260565568097332  0.7273896889868754  1.0000
  C   C2        1.0  0.7807405076840581  0.07393684118984112  0.2726129888279303  1.0000
  C   C3        1.0  0.13977021588405586  0.9622258878682003  0.8261508614180073  1.0000
  C   C4        1.0  0.8602387629166729  0.0377626937986761  0.17385399495532988  1.0000
  C   C5        1.0  0.1854924757501024  0.1376912811501043  0.026183282399671312  1.0000
  C   C6        1.0  0.8145077187734201  0.8623117982877843  0.9738174316789455  1.0000
  C   C7        1.0  0.5019973739268053  0.22392020427168544  0.09247599514560537  1.0000
  C   C8        1.0  0.4980008627077622  0.7760809501665588  0.9075272481863481  1.0000
  C   C9        1.0  0.7703521877352985  0.47796502420010956  0.1391460394266986  1.0000
  C   C10       1.0  0.2296511436239896  0.5220361229659076  0.8608534010997035  1.0000
  C   C11       1.0  0.4788883336128436  0.3567298809074799  0.10158927432517122  1.0000
  C   C12       1.0  0.5211140996416362  0.6432683751624495  0.8984125073128696  1.0000
  C   C13       1.0  0.29051431256204546  0.2147683122264965  0.0488629518182364  1.0000
  C   C14       1.0  0.7094890014426269  0.7852337803251073  0.9511378301966077  1.0000
  C   C15       1.0  0.9215597108787466  0.47134390946671073  0.12173213102582985  1.0000
  C   C16       1.0  0.0784434330592418  0.528662047154711  0.8782658144805566  1.0000
  C   C17       1.0  0.40692136000148343  0.1537455029147949  0.0669606539392191  1.0000
  C   C18       1.0  0.5930821414244889  0.8462517801813974  0.9330416230956333  1.0000
  C   C19       1.0  0.22711334865586252  0.008359172140089296  0.6469814114540355  1.0000
  C   C20       1.0  0.7728904503867966  0.99163134883392  0.35302582947062433  1.0000
  C   C21       1.0  0.36505351616875004  0.4191997635236576  0.08124162166119926  1.0000
  C   C22       1.0  0.6349477471061958  0.5808014113094943  0.9187568792487468  1.0000
  C   C23       1.0  0.28671445395337974  0.8051587870131983  0.7143080919109864  1.0000
  C   C24       1.0  0.7132934746103957  0.1948288906108289  0.2856922190116009  1.0000
  C   C25       1.0  0.6003311095041822  0.735596821818433  0.32317522125401155  1.0000
  C   C26       1.0  0.3996648638173069  0.26440824498863685  0.6768221953374649  1.0000
  C   C27       1.0  0.672534123023901  0.5583975427313135  0.2024272318785805  1.0000
  C   C28       1.0  0.3274681060345799  0.44160553654860024  0.7975716876624049  1.0000
  C   C29       1.0  0.30432718752696536  0.9721911578879344  0.5562625270609303  1.0000
  C   C30       1.0  0.6956722705710661  0.027805173261334897  0.4437426810992592  1.0000
  C   C31       1.0  0.3731361790754875  0.8511463523688008  0.5439319610558685  1.0000
  C   C32       1.0  0.6268633143117199  0.1488471563783023  0.4560678555619405  1.0000
  C   C33       1.0  0.2719155081513378  0.34797120372991946  0.0546173778396906  1.0000
  C   C34       1.0  0.7280879597252365  0.6520261068754395  0.9453821650410889  1.0000
  C   C35       1.0  0.5588603298648991  0.7271925691751521  0.4226211983071124  1.0000
  C   C36       1.0  0.4411368654999849  0.2728067427119427  0.5773754745471251  1.0000
  C   C37       1.0  0.5450159466894249  0.5227848382385857  0.1970839382068804  1.0000
  C   C38       1.0  0.45498643566103425  0.47721439072608973  0.8029164507655225  1.0000
  C   C39       1.0  0.5140051425129856  0.833782428261962  0.2970470586404589  1.0000
  C   C40       1.0  0.485991873238028  0.1662226178342507  0.7029515112977693  1.0000
  C   C41       1.0  0.3611125691722066  0.7665627746425018  0.6236996458649529  1.0000
  C   C42       1.0  0.6388919590684382  0.23343263823541346  0.3762970003086323  1.0000
  C   C43       1.0  0.7137141973121502  0.6605844462569621  0.2564141324553475  1.0000
  C   C44       1.0  0.2862847673605557  0.33942346334718815  0.7435839332565024  1.0000
  C   C45       1.0  0.51655400092816  0.8837507682915839  0.19911136205095661  1.0000
  C   C46       1.0  0.4834387074276307  0.1162600604707222  0.8008879092768809  1.0000
  C   C47       1.0  0.6244882948693514  0.6497130587340223  0.4874194775394898  1.0000
  C   C48       1.0  0.3755109182557916  0.3502862667496842  0.5125740337000764  1.0000
  C   C49       1.0  0.4017022563536656  0.5606047227781515  0.2526690842807824  1.0000
  C   C50       1.0  0.5982969472242772  0.4393964728448411  0.7473291605512317  1.0000
  N   N1        1.0  0.7095611131612145  0.4000920999244925  0.09572381774452053  1.0000
  N   N2        1.0  0.29044238826475777  0.5999051831717068  0.9042784592903388  1.0000
  N   N3        1.0  0.5725861415427786  0.4283929814765556  0.1306707345482252  1.0000
  N   N4        1.0  0.42741530018619045  0.5716043224094846  0.869331286408702  1.0000
  N   N5        1.0  0.42400609050491067  0.8818777718883268  0.37430380014921383  1.0000
  N   N6        1.0  0.5759911635714232  0.11812149185773542  0.6256976574746602  1.0000
  N   N7        1.0  0.45078855770881887  0.816585077746964  0.4510958222623105  1.0000
  N   N8        1.0  0.5492097226022634  0.1834132474118135  0.5489027130657861  1.0000
  O   O1        1.0  0.0638315738289705  0.0649307678495035  0.8363070675027802  1.0000
  O   O2        1.0  0.9361692512170948  0.9350559649418457  0.16369818281305729  1.0000
  O   O3        1.0  0.097757108072571  0.19823256805492662  0.9907278363537915  1.0000
  O   O4        1.0  0.9022428996095826  0.8017743892073665  0.009268674139320943  1.0000
  O   O5        1.0  0.19145477617227163  0.017611379540568402  0.0457367014190879  1.0000
  O   O6        1.0  0.8085412043767164  0.9823955436512152  0.9542668158418907  1.0000
  O   O7        1.0  0.15474738928577378  0.8849837600963113  0.893869237780095  1.0000
  O   O8        1.0  0.8452685643228082  0.11501052771760809  0.10613396894960658  1.0000
  O   O9        1.0  0.8270057308259526  0.2732050641203542  0.9297388277698319  1.0000
  O   O10       1.0  0.1729957618070372  0.72679126687094  0.07026458585273332  1.0000
