data_image0
_chemical_formula_structural       Zn8H26C18S2N32O14
_chemical_formula_sum              "Zn8 H26 C18 S2 N32 O14"
_cell_length_a       7.343897323265364
_cell_length_b       12.956945761018083
_cell_length_c       12.9568814078677
_cell_angle_alpha    88.13946916548126
_cell_angle_beta     84.86901555009055
_cell_angle_gamma    84.86909123868905

_space_group_name_H-M_alt    "P 1"
_space_group_IT_number       1

loop_
  _space_group_symop_operation_xyz
  'x, y, z'

loop_
  _atom_site_type_symbol
  _atom_site_label
  _atom_site_symmetry_multiplicity
  _atom_site_fract_x
  _atom_site_fract_y
  _atom_site_fract_z
  _atom_site_occupancy
  Zn  Zn1       1.0  0.5000015772824825  0.8438519381299372  0.15614785259204916  1.0000
  Zn  Zn2       1.0  0.4999992329192224  0.15615659148598837  0.8438446138361968  1.0000
  Zn  Zn3       1.0  1.5442136245002842e-06  0.8204262053729607  0.17957061448444728  1.0000
  Zn  Zn4       1.0  1.8703555824058975e-06  0.179572946201084  0.8204285694671823  1.0000
  Zn  Zn5       1.0  0.27811772552642816  0.7858787755694862  0.6108647262248753  1.0000
  Zn  Zn6       1.0  0.7218799585320285  0.389136480691363  0.2141216877479764  1.0000
  Zn  Zn7       1.0  0.7218797715866857  0.21412360042685927  0.38913969161008305  1.0000
  Zn  Zn8       1.0  0.2781180426370256  0.6108627747657494  0.7858758686450855  1.0000
  H   H1        1.0  0.909373430858665  0.7222956039673037  0.5076587420331293  1.0000
  H   H2        1.0  0.09062407022804563  0.492342541021813  0.2777028784613407  1.0000
  H   H3        1.0  0.09062292736778232  0.277705224165878  0.49234501286766624  1.0000
  H   H4        1.0  0.9093737152024132  0.5076582624241439  0.7222938624253032  1.0000
  H   H5        1.0  0.849202922522693  0.7436760875643389  0.38413235927051653  1.0000
  H   H6        1.0  0.15079711012183586  0.61586586073809  0.256321428716852  1.0000
  H   H7        1.0  0.150792290219016  0.25632319493855255  0.6158715047374484  1.0000
  H   H8        1.0  0.8492106683394312  0.384131819055952  0.7436780277706774  1.0000
  H   H9        1.0  0.07483400779305073  0.13970000235678984  0.2764197776450672  1.0000
  H   H10       1.0  0.9251729157121746  0.7235803469117743  0.8602966189074976  1.0000
  H   H11       1.0  0.9251697585781571  0.8602969227992645  0.7235822136253063  1.0000
  H   H12       1.0  0.07482640709179118  0.2764189195839819  0.1397062761328556  1.0000
  H   H13       1.0  0.15879395197524815  0.035103387914155314  0.2050917734134288  1.0000
  H   H14       1.0  0.841213277636989  0.7949064013658641  0.9648955086914199  1.0000
  H   H15       1.0  0.8412092717504507  0.964897408330451  0.7949085651115481  1.0000
  H   H16       1.0  0.15878732821231983  0.20509362671786147  0.0351042108089388  1.0000
  H   H17       1.0  0.5189614178319958  0.8335881062499838  0.4111958417314696  1.0000
  H   H18       1.0  0.4810339293091062  0.5888035013678917  0.1664141543259916  1.0000
  H   H19       1.0  0.48103234231226827  0.1664119470237253  0.5888049780206828  1.0000
  H   H20       1.0  0.518970642443783  0.4111972969838861  0.8335884346809125  1.0000
  H   H21       1.0  0.4542815613945805  0.04945818403054861  0.3125922237006691  1.0000
  H   H22       1.0  0.5457262439297922  0.6874082522802637  0.9505386993323626  1.0000
  H   H23       1.0  0.5457248746387221  0.9505387542713354  0.6874173566989158  1.0000
  H   H24       1.0  0.4542732164347782  0.3125902301731641  0.04946112927517281  1.0000
  H   H25       1.0  0.02406094123795555  0.6663983159608263  0.6663999878956517  1.0000
  H   H26       1.0  0.9759355413529605  0.333601732595767  0.3336022446549975  1.0000
  C   C1        1.0  0.3835503421090749  0.8196472086135314  0.39059601557191576  1.0000
  C   C2        1.0  0.616445583761255  0.6094057767974803  0.18035442484584516  1.0000
  C   C3        1.0  0.6164476392657717  0.18035205354217967  0.6094038569451712  1.0000
  C   C4        1.0  0.3835559254419181  0.3905973538368529  0.8196474582062763  1.0000
  C   C5        1.0  0.10249580890486237  0.7830937988401772  0.4023113685786868  1.0000
  C   C6        1.0  0.8975023618228734  0.5976893090536493  0.21690364815636087  1.0000
  C   C7        1.0  0.8974996393696488  0.21690392897527036  0.5976909948116854  1.0000
  C   C8        1.0  0.10250088829509707  0.40231147825948466  0.7830936022032519  1.0000
  C   C9        1.0  0.597822646329405  0.0278083074623012  0.2891718298376631  1.0000
  C   C10       1.0  0.4021860327818914  0.7108266081745853  0.9721892669127  1.0000
  C   C11       1.0  0.4021854260484331  0.9721870603963725  0.7108323240955343  1.0000
  C   C12       1.0  0.597814899974331  0.289171096809433  0.027811289826630094  1.0000
  C   C13       1.0  0.8903866353168652  0.034535857792867795  0.2608663985111832  1.0000
  C   C14       1.0  0.10961840162995878  0.7391288387555904  0.965463002217831  1.0000
  C   C15       1.0  0.10961431063549304  0.9654618427254178  0.7391326141454614  1.0000
  C   C16       1.0  0.890380109194261  0.26086655677730153  0.03454006712732391  1.0000
  C   C17       1.0  0.4076649748999587  0.026311506020924497  0.026297293749308896  1.0000
  C   C18       1.0  0.5923343573108683  0.9736985404493835  0.9736820701531599  1.0000
  S   S1        1.0  0.6551608483259983  0.6819802034422724  0.6819797957040095  1.0000
  S   S2        1.0  0.344838363309634  0.3180198381643465  0.3180230776038044  1.0000
  N   N1        1.0  0.3355187375466286  0.82297883170412  0.2949366180235842  1.0000
  N   N2        1.0  0.6644799413344203  0.7050622213760177  0.1770224048087385  1.0000
  N   N3        1.0  0.6644784450446083  0.1770165550229947  0.7050618847156186  1.0000
  N   N4        1.0  0.33552167243902176  0.29494013638032623  0.8229802720172615  1.0000
  N   N5        1.0  0.15592141673544554  0.7980144726797744  0.3008969653036502  1.0000
  N   N6        1.0  0.8440796277069681  0.6991008473059427  0.20198336710897993  1.0000
  N   N7        1.0  0.8440772250513077  0.20198014104366283  0.6991038096500262  1.0000
  N   N8        1.0  0.1559235894206594  0.30089995117152313  0.7980177434573364  1.0000
  N   N9        1.0  0.24353568916124158  0.7957186096520558  0.46099554872015597  1.0000
  N   N10       1.0  0.7564617667293733  0.5390042943533686  0.20428221511854622  1.0000
  N   N11       1.0  0.7564620632788744  0.2042822049582327  0.5390050523731844  1.0000
  N   N12       1.0  0.24354010896914235  0.4609964997840521  0.7957158729245037  1.0000
  N   N13       1.0  0.9300113520026015  0.762825682489833  0.43898373344308084  1.0000
  N   N14       1.0  0.06999165029883872  0.5610158652123546  0.2371712110339956  1.0000
  N   N15       1.0  0.06998512399024293  0.23717436829963387  0.5610192711489148  1.0000
  N   N16       1.0  0.9300170711047144  0.4389849037350829  0.7628257767572606  1.0000
  N   N17       1.0  0.6580202274178859  0.9445682079516828  0.2359423539336944  1.0000
  N   N18       1.0  0.34198481586080487  0.764056947138606  0.0554304372205152  1.0000
  N   N19       1.0  0.3419834079907814  0.055429499013826  0.7640619317281505  1.0000
  N   N20       1.0  0.6580147490740204  0.23594076243684012  0.9445701851608986  1.0000
  N   N21       1.0  0.8463675008992554  0.9483468880542816  0.21658709797181794  1.0000
  N   N22       1.0  0.1536377026582869  0.7834107360982189  0.05165080429427598  1.0000
  N   N23       1.0  0.1536334186608315  0.051650821395469414  0.7834150028501908  1.0000
  N   N24       1.0  0.8463633346681975  0.2165861960078104  0.9483505462189328  1.0000
  N   N25       1.0  0.7362200077153389  0.08587017286682651  0.3079498999630204  1.0000
  N   N26       1.0  0.26378671136473036  0.6920476968553615  0.9141279247529184  1.0000
  N   N27       1.0  0.26378374545972605  0.9141267567549605  0.6920536353900317  1.0000
  N   N28       1.0  0.7362128469720376  0.3079500149529508  0.08587346966984202  1.0000
  N   N29       1.0  0.06243798523217241  0.0638433346809322  0.2619720444987905  1.0000
  N   N30       1.0  0.9375700516529335  0.7380251947126553  0.9361557837898501  1.0000
  N   N31       1.0  0.9375669464179808  0.9361551294068067  0.7380275215403813  1.0000
  N   N32       1.0  0.06243222253240789  0.2619725146114149  0.0638477954727463  1.0000
  O   O1        1.0  0.54620585582137  0.7348564869570707  0.5986836393630455  1.0000
  O   O2        1.0  0.45379286098059884  0.4013162051316783  0.2651469857895705  1.0000
  O   O3        1.0  0.4537909536764603  0.2651412384998225  0.40131943042657536  1.0000
  O   O4        1.0  0.5462076986822239  0.5986838385821187  0.7348581380001704  1.0000
  O   O5        1.0  0.8260420633710623  0.6289059661479824  0.628905504276048  1.0000
  O   O6        1.0  0.17395442581792514  0.37109408017574447  0.3710959562332619  1.0000
  O   O7        1.0  0.697470831304628  0.7569252164073602  0.756927298268124  1.0000
  O   O8        1.0  0.30253017962957784  0.24307172463013418  0.2430771404104419  1.0000
  O   O9        1.0  0.3396329553121689  0.9833092620666124  0.10814725075862698  1.0000
  O   O10       1.0  0.6603682538533635  0.8918471654836183  0.016690560800611806  1.0000
  O   O11       1.0  0.6603717436139719  0.016701538916002803  0.8918310568015926  1.0000
  O   O12       1.0  0.3396318639449305  0.1081667608810264  0.9832917169624196  1.0000
  O   O13       1.0  0.12613567880314486  0.6966251298072237  0.6966254780458883  1.0000
  O   O14       1.0  0.8738608037877712  0.3033749187493698  0.30337675450476803  1.0000
