data_image0
_chemical_formula_structural       Cd4H20C20I4N24O4
_chemical_formula_sum              "Cd4 H20 C20 I4 N24 O4"
_cell_length_a       7.258035424895957
_cell_length_b       10.121089951001425
_cell_length_c       14.917038218783057
_cell_angle_alpha    89.99994302956468
_cell_angle_beta     93.8937175077219
_cell_angle_gamma    89.99998386100211

_space_group_name_H-M_alt    "P 1"
_space_group_IT_number       1

loop_
  _space_group_symop_operation_xyz
  'x, y, z'

loop_
  _atom_site_type_symbol
  _atom_site_label
  _atom_site_symmetry_multiplicity
  _atom_site_fract_x
  _atom_site_fract_y
  _atom_site_fract_z
  _atom_site_occupancy
  Cd  Cd1       1.0  0.9028298697592376  0.9466122770296789  0.14721404641956332  1.0000
  Cd  Cd2       1.0  0.5971697071289415  0.4466106732422476  0.35278604066641617  1.0000
  Cd  Cd3       1.0  0.0971685014421553  0.05338986384671781  0.8527858230433197  1.0000
  Cd  Cd4       1.0  0.4028328069537039  0.5533894915618731  0.6472139735964364  1.0000
  H   H1        1.0  0.007928894190428101  0.7948341015976437  0.34634689557402965  1.0000
  H   H2        1.0  0.49207289644393626  0.2948346853495493  0.15365427118075567  1.0000
  H   H3        1.0  0.9920722334954419  0.205166063206164  0.6536537406119365  1.0000
  H   H4        1.0  0.5079282312421824  0.7051644914183796  0.8463463650055587  1.0000
  H   H5        1.0  0.24681045817351335  0.637239340502518  0.4157972565596354  1.0000
  H   H6        1.0  0.2531914159447126  0.13724007302341326  0.08420334952272412  1.0000
  H   H7        1.0  0.7531906803851528  0.3627618123381495  0.584202039246904  1.0000
  H   H8        1.0  0.7468097117414061  0.8627591037445157  0.9157972866635902  1.0000
  H   H9        1.0  0.5014335074327861  0.6210357022559594  0.17485962761087853  1.0000
  H   H10       1.0  0.9985676170907852  0.1210350468296255  0.32514006380425553  1.0000
  H   H11       1.0  0.49856625016587225  0.3789644625489998  0.8251396199295797  1.0000
  H   H12       1.0  0.0014348969921015998  0.8789641299386162  0.674859950458938  1.0000
  H   H13       1.0  0.8121320469442564  0.6711874295623801  0.11295125410312322  1.0000
  H   H14       1.0  0.6878676772181509  0.17118773386216193  0.3870476840038251  1.0000
  H   H15       1.0  0.1878677106544018  0.3288127352425789  0.8870479934373352  1.0000
  H   H16       1.0  0.3121320749439889  0.828812430942307  0.6129522337261761  1.0000
  H   H17       1.0  0.652089567541694  0.7541548322033053  0.060895529249208415  1.0000
  H   H18       1.0  0.847911485619342  0.25415404074457376  0.43910473984717413  1.0000
  H   H19       1.0  0.34791018462019724  0.24584632063704256  0.939104388480452  1.0000
  H   H20       1.0  0.15208826110627882  0.7458461240594048  0.5608958480723701  1.0000
  C   C1        1.0  0.2836305825511261  0.81145994246225  0.08745512993270672  1.0000
  C   C2        1.0  0.21636982432553958  0.3114611919728247  0.41254530681209906  1.0000
  C   C3        1.0  0.7163691750480226  0.1885382462709515  0.9125441176084339  1.0000
  C   C4        1.0  0.7836313033603305  0.6885389728309831  0.5874553293738742  1.0000
  C   C5        1.0  0.2686082506320986  0.756888681183696  0.1768735822029868  1.0000
  C   C6        1.0  0.23139080230996711  0.25689104601693213  0.323126844198157  1.0000
  C   C7        1.0  0.7313901260067939  0.24310950754967567  0.8231256170717318  1.0000
  C   C8        1.0  0.7686089552884496  0.7431101068239059  0.6768724033419531  1.0000
  C   C9        1.0  0.121866079031733  0.759246053284052  0.3088199341894224  1.0000
  C   C10       1.0  0.37813159721957845  0.25924660505715735  0.19117977211817566  1.0000
  C   C11       1.0  0.8781336731304068  0.24075411152041684  0.6911799835405787  1.0000
  C   C12       1.0  0.6218667794190721  0.7407525717120934  0.8088194271561946  1.0000
  C   C13       1.0  0.2516155103560038  0.6697872683588812  0.3465721893872242  1.0000
  C   C14       1.0  0.24838497211919727  0.16978888901545022  0.15342767562035686  1.0000
  C   C15       1.0  0.7483842418061359  0.33021289644558743  0.6534277283427771  1.0000
  C   C16       1.0  0.7516161664399521  0.8302102877534594  0.8465716201868717  1.0000
  C   C17       1.0  0.39294724900095457  0.662576665335834  0.2135645733042963  1.0000
  C   C18       1.0  0.107053231609008  0.16257713232114673  0.28643596690409373  1.0000
  C   C19       1.0  0.6070525085977041  0.3374234994691249  0.7864346742361621  1.0000
  C   C20       1.0  0.8929479015136295  0.8374220444472725  0.7135639990926779  1.0000
  I   I1        1.0  0.6604851605692659  0.9614080355756228  0.2884247736556986  1.0000
  I   I2        1.0  0.8395157953874418  0.46140955336203865  0.2115746812240786  1.0000
  I   I3        1.0  0.3395145861565965  0.03859114119247659  0.7115758142641937  1.0000
  I   I4        1.0  0.1604839567744492  0.538591599478309  0.7884252365055744  1.0000
  N   N1        1.0  0.15904517657584455  0.8945755378220215  0.04793457316557691  1.0000
  N   N2        1.0  0.3409551891388389  0.39457571690106613  0.45206580582016204  1.0000
  N   N3        1.0  0.8409545755865367  0.10542363894656862  0.9520653445647655  1.0000
  N   N4        1.0  0.6590459439835498  0.6054244479032321  0.5479341601762613  1.0000
  N   N5        1.0  0.22611957162605734  0.9235371559900472  0.9688329746172215  1.0000
  N   N6        1.0  0.27388017249741375  0.4235369736255024  0.5311665165299644  1.0000
  N   N7        1.0  0.7738801805358407  0.0764639968503005  0.031166943112438613  1.0000
  N   N8        1.0  0.7261195851010032  0.5764641792153284  0.4688327310101528  1.0000
  N   N9        1.0  0.38467749983973926  0.861647566965111  0.9603866693624286  1.0000
  N   N10       1.0  0.11532226949746162  0.3616474038769795  0.539613534983161  1.0000
  N   N11       1.0  0.6153222523221589  0.13835358587523672  0.039613248367224706  1.0000
  N   N12       1.0  0.884677482664678  0.6383527609274894  0.46038638274684024  1.0000
  N   N13       1.0  0.4237070062374216  0.790100607635722  0.034271323492781405  1.0000
  N   N14       1.0  0.0762920356937897  0.29010081952606015  0.4657284096396381  1.0000
  N   N15       1.0  0.5762927513612369  0.209899557169237  0.965727924047677  1.0000
  N   N16       1.0  0.9237090974288478  0.7098983572423592  0.5342715563571332  1.0000
  N   N17       1.0  0.1310889651765592  0.8025645706277088  0.2247461781167672  1.0000
  N   N18       1.0  0.3689100651451653  0.3025659897812432  0.2752542165432104  1.0000
  N   N19       1.0  0.8689094114620916  0.19743460614154168  0.7752530211576101  1.0000
  N   N20       1.0  0.6310896870169743  0.6974341750232256  0.7247457011867908  1.0000
  N   N21       1.0  0.3843366990727121  0.6203202861640164  0.2981001703642008  1.0000
  N   N22       1.0  0.11566380246430441  0.12032087459897407  0.2019003992093218  1.0000
  N   N23       1.0  0.6156630530894278  0.3796798786404523  0.7018997473658006  1.0000
  N   N24       1.0  0.8843387116188239  0.8796773141333882  0.7980996150542127  1.0000
  O   O1        1.0  0.7895922585736486  0.750604794944813  0.0755191437555709  1.0000
  O   O2        1.0  0.7104088017822647  0.25060306414556516  0.42448045761861414  1.0000
  O   O3        1.0  0.2104074935882494  0.24939635789553447  0.9244807739740823  1.0000
  O   O4        1.0  0.2895909558163936  0.7493971006593869  0.5755187899218372  1.0000
