data_image0
_chemical_formula_structural       Al6H77C96S3N15O37
_chemical_formula_sum              "Al6 H77 C96 S3 N15 O37"
_cell_length_a       13.38549934433997
_cell_length_b       13.44077214837285
_cell_length_c       27.344333309798653
_cell_angle_alpha    88.3023591810923
_cell_angle_beta     87.48697595841496
_cell_angle_gamma    61.408085075287985

_space_group_name_H-M_alt    "P 1"
_space_group_IT_number       1

loop_
  _space_group_symop_operation_xyz
  'x, y, z'

loop_
  _atom_site_type_symbol
  _atom_site_label
  _atom_site_symmetry_multiplicity
  _atom_site_fract_x
  _atom_site_fract_y
  _atom_site_fract_z
  _atom_site_occupancy
  Al  Al1       1.0  0.1475436642595511  0.41135776428503595  0.5013568086751761  1.0000
  Al  Al2       1.0  0.38946015027157443  0.18430807561423992  0.5040835494927194  1.0000
  Al  Al3       1.0  0.39008923014610997  0.40706042354565863  0.4975767255823982  1.0000
  Al  Al4       1.0  0.16212660660063702  0.9218829537855698  0.013431854116291202  1.0000
  Al  Al5       1.0  0.9296977106543663  0.15385260261402323  0.0167375703073276  1.0000
  Al  Al6       1.0  0.9191779710359501  0.9374415320472451  0.012971973402528597  1.0000
  H   H1        1.0  0.5194149403576419  0.3177778900990731  0.8239918318273353  1.0000
  H   H2        1.0  0.8308025786976145  0.036064800253214506  0.7724754665052841  1.0000
  H   H3        1.0  0.21021710159021723  0.8068415877791608  0.7830046092210523  1.0000
  H   H4        1.0  0.9873199744561562  0.2932169346340245  0.8106241802574772  1.0000
  H   H5        1.0  0.7957134888361422  0.2547306074226868  0.144882293094625  1.0000
  H   H6        1.0  0.9314347268352564  0.7903236024530785  0.1458623547386111  1.0000
  H   H7        1.0  0.2355439872448102  0.9499027354319481  0.14898575434203556  1.0000
  H   H8        1.0  0.6429831271941426  0.3221387565559582  0.3853063960625179  1.0000
  H   H9        1.0  0.03404401387099651  0.6127527544078007  0.3813851722927594  1.0000
  H   H10       1.0  0.3351666335750921  0.015029658872812506  0.3831191132166722  1.0000
  H   H11       1.0  0.7888365838857114  0.3415556694146318  0.2241632461305301  1.0000
  H   H12       1.0  0.13067996625373726  0.5347486891602102  0.8112897891811457  1.0000
  H   H13       1.0  0.8598747550642758  0.7640710587965531  0.22781601759370324  1.0000
  H   H14       1.0  0.3362534923027882  0.866117723402631  0.22572824547329157  1.0000
  H   H15       1.0  0.7342552455616342  0.3655311121145601  0.3124354405934611  1.0000
  H   H16       1.0  0.8969561212047381  0.7001229911542666  0.31425005788858584  1.0000
  H   H17       1.0  0.3726589718350796  0.8895792516966594  0.3115962410597747  1.0000
  H   H18       1.0  0.5681425048350379  0.9792139953876884  0.20778116275463526  1.0000
  H   H19       1.0  0.4222864174734725  0.6144614253702443  0.19081514544257772  1.0000
  H   H20       1.0  0.9749504525436876  0.4358738072589076  0.20985231360084813  1.0000
  H   H21       1.0  0.5163106406133906  0.002681597731552202  0.2943237569439887  1.0000
  H   H22       1.0  0.45672907504285126  0.5516273378150276  0.2754033601763339  1.0000
  H   H23       1.0  0.35113459697961247  0.0977875235004149  0.8072136885755228  1.0000
  H   H24       1.0  0.011070457794645059  0.45669350054873087  0.2940927122789033  1.0000
  H   H25       1.0  0.4258706744422509  0.3091306481671126  0.7550738329391536  1.0000
  H   H26       1.0  0.21627705786174553  0.452437485265854  0.736151647982787  1.0000
  H   H27       1.0  0.35872298120022356  0.13630194359816983  0.7235023533281932  1.0000
  H   H28       1.0  0.5166157643208251  0.08319117170334779  0.3754563581549064  1.0000
  H   H29       1.0  0.38564154702290665  0.5267320809121118  0.3578514115147726  1.0000
  H   H30       1.0  0.09597828141349399  0.3703387725126533  0.37388134216088525  1.0000
  H   H31       1.0  0.807302196714211  0.1981150430405023  0.7556964807337891  1.0000
  H   H32       1.0  0.027330709667481256  0.8373710477902354  0.7650442262251502  1.0000
  H   H33       1.0  0.06863115635621138  0.10194487693514284  0.8010805888609767  1.0000
  H   H34       1.0  0.49142293858223235  0.15890954370708954  0.757147233730926  1.0000
  H   H35       1.0  0.7632600538086577  0.08741748761651282  0.6976216132341335  1.0000
  H   H36       1.0  0.2022856239559233  0.7742328207732074  0.7040442239176129  1.0000
  H   H37       1.0  0.9981700935055925  0.2628896913982928  0.7321245281420303  1.0000
  H   H38       1.0  0.7121800074109433  0.9735557892959934  0.0950089065302393  1.0000
  H   H39       1.0  0.6459008075485858  0.942233328874785  0.14513663062235338  1.0000
  H   H40       1.0  0.2884721295439618  0.7452556487583736  0.0820133309371087  1.0000
  H   H41       1.0  0.3784071285177433  0.6860731436633856  0.1309057815500694  1.0000
  H   H42       1.0  0.9670116617350076  0.312772046163289  0.09882295087079741  1.0000
  H   H43       1.0  0.9536595959430799  0.40528823242011214  0.14536741260667438  1.0000
  H   H44       1.0  0.8882638912162121  0.2618941425479093  0.6858181032643742  1.0000
  H   H45       1.0  0.3327344772713091  0.4772715740394205  0.7431521654344948  1.0000
  H   H46       1.0  0.9568867241624304  0.6442088634045291  0.6893521033390542  1.0000
  H   H47       1.0  0.09929849977969243  0.9034360515175877  0.662352552311269  1.0000
  H   H48       1.0  0.49414983614473584  0.4579501982128847  0.7137495533751875  1.0000
  H   H49       1.0  0.5766417785209085  0.46511357922983615  0.7539417276970467  1.0000
  H   H50       1.0  0.04873322151259176  0.5350316197094216  0.7238965746585038  1.0000
  H   H51       1.0  0.9477450362918564  0.6583858123621981  0.7540938584783703  1.0000
  H   H52       1.0  0.3164336295375277  0.9724789677052075  0.6921929617287006  1.0000
  H   H53       1.0  0.305684242383805  0.9066731288805983  0.7435413369271302  1.0000
  H   H54       1.0  0.7625117424091385  0.3847494241844418  0.7773170608837532  1.0000
  H   H55       1.0  0.6675901473132629  0.39002708095966193  0.8200774434006632  1.0000
  H   H56       1.0  0.2655865873375943  0.28262658379749445  0.7312261818225991  1.0000
  H   H57       1.0  0.9518893398512845  0.7362278554787737  0.832247679077355  1.0000
  H   H58       1.0  0.867140352380503  0.8299016540963604  0.7918225133782926  1.0000
  H   H59       1.0  0.19265446804714526  0.9706834018237274  0.8534550952332225  1.0000
  H   H60       1.0  0.30775929512278594  0.9556204419359772  0.8227945948721499  1.0000
  H   H61       1.0  0.7217566567075621  0.9405612782032406  0.7003490648504922  1.0000
  H   H62       1.0  0.6104972677694178  0.04455167212652359  0.6757249209248428  1.0000
  H   H63       1.0  0.4147863701764364  0.6666485742431763  0.7198993007972375  1.0000
  H   H64       1.0  0.3732541055924019  0.6466053342197425  0.6663327361690037  1.0000
  H   H65       1.0  0.9525906371633965  0.4281223754819693  0.7024654239556725  1.0000
  H   H66       1.0  0.07969306679174082  0.37215826865968893  0.6785884936616638  1.0000
  H   H67       1.0  0.5354152707628473  0.18119773581628354  0.8366694254967015  1.0000
  H   H68       1.0  0.7070683954863954  0.9887821316685645  0.8360782206334818  1.0000
  H   H69       1.0  0.6518898255183816  0.976137558883941  0.7840086873134097  1.0000
  H   H70       1.0  0.3454349300364539  0.6820456147990088  0.8362600903471318  1.0000
  H   H71       1.0  0.39127129498101004  0.5733323017532328  0.7984844853805413  1.0000
  H   H72       1.0  0.002000318470834439  0.4658411298278367  0.7972876815910297  1.0000
  H   H73       1.0  0.06028318309726192  0.400375203926501  0.8482119679193473  1.0000
  H   H74       1.0  0.2658754029644682  0.5135261794074355  0.8250870084128081  1.0000
  H   H75       1.0  0.2920479462546055  0.24581554094636723  0.8151572028094165  1.0000
  H   H76       1.0  0.9582297587292459  0.5280129501469304  0.52877754466423  1.0000
  H   H77       1.0  0.3589439479523833  0.8637005752723328  0.001205356526810401  1.0000
  C   C1        1.0  0.2284650636187991  0.5325724889572215  0.5665232532301445  1.0000
  C   C2        1.0  0.7305080522433158  0.16122561091496831  0.8534811030077378  1.0000
  C   C3        1.0  0.12713340868475598  0.7249042735941205  0.852012308271398  1.0000
  C   C4        1.0  0.15683727884816528  0.18233013313358984  0.8676563054668804  1.0000
  C   C5        1.0  0.5475520873149547  0.23611420200064973  0.6697882142747318  1.0000
  C   C6        1.0  0.21515256389788112  0.5831423310452808  0.6601283977153756  1.0000
  C   C7        1.0  0.19181643221227057  0.18562047246104646  0.6673393973667672  1.0000
  C   C8        1.0  0.5216691992085102  0.24074877905506747  0.6273033477113756  1.0000
  C   C9        1.0  0.22293387261277087  0.5635038149829228  0.6167218199230575  1.0000
  C   C10       1.0  0.20634657493544492  0.1894450409915649  0.6233656311594659  1.0000
  C   C11       1.0  0.09257694544709953  0.09864116646443928  0.08978501514248899  1.0000
  C   C12       1.0  0.2234968076654625  0.21507562564357843  0.5733639782237674  1.0000
  C   C13       1.0  0.7844216442050181  0.11601014544867642  0.0827263260254369  1.0000
  C   C14       1.0  0.07265189601812241  0.7986230829219211  0.07854580193707508  1.0000
  C   C15       1.0  0.10364729848424052  0.137899443469145  0.9555665439581772  1.0000
  C   C16       1.0  0.8019977547689267  0.1127322179356582  0.9443296352847241  1.0000
  C   C17       1.0  0.08540445168099363  0.8169445069103886  0.9400893900336201  1.0000
  C   C18       1.0  0.6289846507465457  0.26388859947282134  0.36327996973552956  1.0000
  C   C19       1.0  0.10148961868835481  0.6097999760993885  0.3565768723088922  1.0000
  C   C20       1.0  0.27622736756070765  0.08703927786916672  0.36132804333115587  1.0000
  C   C21       1.0  0.6613186038809998  0.25111128975409974  0.3134440821372593  1.0000
  C   C22       1.0  0.07817490473745191  0.6478899639965549  0.3080861125271426  1.0000
  C   C23       1.0  0.4946016519623626  0.2495945863732487  0.5763959878427016  1.0000
  C   C24       1.0  0.25909512233082665  0.0718112866472751  0.3125164188039379  1.0000
  C   C25       1.0  0.7238717454725716  0.2241700205886232  0.2117460887874643  1.0000
  C   C26       1.0  0.03522382512032615  0.7212250490967521  0.2087844741004119  1.0000
  C   C27       1.0  0.2184051163481087  0.04471232364331711  0.21383507019769613  1.0000
  C   C28       1.0  0.23458843397553866  0.5208652727872547  0.42508392631616226  1.0000
  C   C29       1.0  0.23503496884912786  0.2138360419913994  0.4339530737840178  1.0000
  C   C30       1.0  0.5348435952380869  0.22430492471882257  0.4370965554238495  1.0000
  C   C31       1.0  0.7458528220169357  0.2974101829647111  0.24145053610774878  1.0000
  C   C32       1.0  0.945688205602977  0.7283439707661189  0.2417182569514651  1.0000
  C   C33       1.0  0.2955084795677508  0.9497998054210657  0.2424618478633249  1.0000
  C   C34       1.0  0.738732970968634  0.06617561402455148  0.7755984476537492  1.0000
  C   C35       1.0  0.715812727737827  0.3106872345367506  0.2901026498914375  1.0000
  C   C36       1.0  0.9658233661947694  0.6933591422514881  0.28931983876184825  1.0000
  C   C37       1.0  0.3153711859362647  0.9625609630110861  0.28978292138778267  1.0000
  C   C38       1.0  0.7543196423030026  0.20916723628513273  0.1620794637558589  1.0000
  C   C39       1.0  0.016596592688429748  0.7562449517195446  0.1601002790390851  1.0000
  C   C40       1.0  0.1941549079756442  0.0329956922960761  0.16607223684771813  1.0000
  C   C41       1.0  0.7381888574678469  0.13305707703373323  0.1333061678579384  1.0000
  C   C42       1.0  0.10321444000692999  0.7527382643722049  0.1280467813578312  1.0000
  C   C43       1.0  0.1147249920456517  0.12483791964807983  0.1387211149250547  1.0000
  C   C44       1.0  0.558033406267498  0.1283899856830857  0.35790009760841457  1.0000
  C   C45       1.0  0.24325415567736994  0.7153163295358881  0.7779447339435918  1.0000
  C   C46       1.0  0.30047233097518966  0.5610245833370797  0.3436361928759625  1.0000
  C   C47       1.0  0.14094223456286406  0.2882705491684092  0.3560139248517586  1.0000
  C   C48       1.0  0.5860544874335005  0.1158353561556495  0.3074699075894571  1.0000
  C   C49       1.0  0.2811057031089703  0.5964620313481391  0.2944856700651215  1.0000
  C   C50       1.0  0.12464827036658478  0.2774555756202873  0.3066062895089772  1.0000
  C   C51       1.0  0.639210113568396  0.17656372966892062  0.2847655286060871  1.0000
  C   C52       1.0  0.16917666169803897  0.6407060576898472  0.2761501392889727  1.0000
  C   C53       1.0  0.1823610753090606  0.1682390483092817  0.2845371802269625  1.0000
  C   C54       1.0  0.5614985661272556  0.045106537743556906  0.2776633356279916  1.0000
  C   C55       1.0  0.3706827820063766  0.5884541757454826  0.261777415300422  1.0000
  C   C56       1.0  0.06443565024194702  0.2950607795555911  0.7954466563510252  1.0000
  C   C57       1.0  0.051251587534523066  0.3728896937347983  0.2776325959062262  1.0000
  C   C58       1.0  0.5917462110304613  0.03203902779928569  0.22887549070060936  1.0000
  C   C59       1.0  0.34989876904332834  0.6245306760921636  0.2141646186566035  1.0000
  C   C60       1.0  0.031899629119166766  0.35990538389823706  0.2301760547299097  1.0000
  C   C61       1.0  0.6491235355967361  0.0880749029497991  0.205500980550589  1.0000
  C   C62       1.0  0.23853703929945178  0.6711775488150309  0.1948819115802394  1.0000
  C   C63       1.0  0.08413113757287503  0.2509603066684321  0.2076357124377637  1.0000
  C   C64       1.0  0.5064282109224434  0.2317981951995947  0.759976278810484  1.0000
  C   C65       1.0  0.23972847965937658  0.516568014043095  0.746677736532213  1.0000
  C   C66       1.0  0.2786495220484113  0.1977347632608542  0.7412158165494986  1.0000
  C   C67       1.0  0.6932792634189725  0.09403503979755361  0.7220728491295462  1.0000
  C   C68       1.0  0.6702287471424314  0.1628877500705173  0.23384544090306753  1.0000
  C   C69       1.0  0.14826994691826206  0.6774093854382103  0.2263831070668871  1.0000
  C   C70       1.0  0.1619307982280134  0.15524659202130664  0.2350794492144033  1.0000
  C   C71       1.0  0.6867431123565949  0.06963261132226252  0.15505310479152712  1.0000
  C   C72       1.0  0.2164535509159082  0.7120092387008298  0.1451281662268684  1.0000
  C   C73       1.0  0.05798552580626651  0.2357018079715374  0.15915697992709707  1.0000
  C   C74       1.0  0.5787181256476331  0.20231726994667557  0.38546726274201865  1.0000
  C   C75       1.0  0.21160491782597296  0.5670029738372336  0.3742079450633966  1.0000
  C   C76       1.0  0.21629531988733672  0.19400225094157972  0.3828643941910599  1.0000
  C   C77       1.0  0.6376932491393247  0.3058252813734441  0.7291399962087511  1.0000
  C   C78       1.0  0.25162461983659773  0.6922184065615443  0.7219919116208332  1.0000
  C   C79       1.0  0.06364281919861983  0.6914770942924876  0.7206190338102018  1.0000
  C   C80       1.0  0.1872928695386449  0.0723021295515522  0.7395131448658319  1.0000
  C   C81       1.0  0.7231783040716452  0.256292710248303  0.7718265028261654  1.0000
  C   C82       1.0  0.041127058322239035  0.750682615599473  0.7716857036013991  1.0000
  C   C83       1.0  0.1582466186024618  0.08120559469639231  0.7954569064382824  1.0000
  C   C84       1.0  0.7575446787141902  0.14198098844663318  0.8961338596510017  1.0000
  C   C85       1.0  0.10768490811360462  0.7609750002295712  0.8935873445562025  1.0000
  C   C86       1.0  0.13952025326780418  0.1720825421935501  0.9110283417016873  1.0000
  C   C87       1.0  0.5939839515779539  0.21918083184732506  0.7184471904193401  1.0000
  C   C88       1.0  0.1932464447000228  0.6187497765659773  0.7107010673999952  1.0000
  C   C89       1.0  0.06392344793118099  0.28633931386938377  0.7387709309011684  1.0000
  C   C90       1.0  0.17893714923472703  0.1860173344219831  0.7200992157262363  1.0000
  C   C91       1.0  0.5556306143206414  0.23157948550553442  0.8096534934048948  1.0000
  C   C92       1.0  0.196972675064508  0.5567230337042021  0.7992815806002297  1.0000
  C   C93       1.0  0.28059493301191196  0.18059797130226232  0.7969198132338134  1.0000
  C   C94       1.0  0.6872124630095015  0.1801412697804068  0.8043966989456662  1.0000
  C   C95       1.0  0.15128814812982236  0.6860237990420471  0.8018459896906052  1.0000
  C   C96       1.0  0.1675427721816192  0.18629381332787182  0.8150975002205456  1.0000
  S   S1        1.0  0.713149657447744  0.32505038382602447  0.6706177357950764  1.0000
  S   S2        1.0  0.9847111836519886  0.8014566480292163  0.6712583502478395  1.0000
  S   S3        1.0  0.06845658375478078  0.0512348830377363  0.7087245301459505  1.0000
  N   N1        1.0  0.6719065158640093  0.9942143119046778  0.1284233119797165  1.0000
  N   N2        1.0  0.6514632889252567  0.016430172295081008  0.7079910042076136  1.0000
  N   N3        1.0  0.36919962841636067  0.6352121681546167  0.7032706134207912  1.0000
  N   N4        1.0  0.036052736005238735  0.3930229305475025  0.7118095209846161  1.0000
  N   N5        1.0  0.7201186420408803  0.977011064933734  0.7991502461258122  1.0000
  N   N6        1.0  0.3538629713808562  0.6596546869155233  0.8003643283019386  1.0000
  N   N7        1.0  0.06976818686163008  0.39555806558102796  0.8108626739868541  1.0000
  N   N8        1.0  0.3017541345186673  0.7111004511575275  0.11651514970531449  1.0000
  N   N9        1.0  0.97761542502316  0.32590807089005125  0.1341569237898383  1.0000
  N   N10       1.0  0.5456387670304965  0.4141228819173008  0.7421728544256396  1.0000
  N   N11       1.0  0.002200565479938657  0.6234931724289439  0.7215238664038424  1.0000
  N   N12       1.0  0.2968775281696241  0.9808677778400324  0.7288138407101884  1.0000
  N   N13       1.0  0.7386571146073209  0.3375358247139034  0.7999465189488362  1.0000
  N   N14       1.0  0.9402582395126161  0.7520470807508703  0.795580170695743  1.0000
  N   N15       1.0  0.22542470292425068  0.9727287118109232  0.8193014485784219  1.0000
  O   O1        1.0  0.1536755972159726  0.3124335296772145  0.55841364441725  1.0000
  O   O2        1.0  0.15934112341075501  0.3023996468844601  0.4544850462526355  1.0000
  O   O3        1.0  0.5117960825301041  0.15198241334675092  0.45925872264562884  1.0000
  O   O4        1.0  0.3313770225541006  0.4985614293458696  0.4425034648463964  1.0000
  O   O5        1.0  0.15968841374562717  0.5030497582753243  0.44717855257564315  1.0000
  O   O6        1.0  0.32986865163868373  0.14190224864608336  0.4529635287676541  1.0000
  O   O7        1.0  0.515387249973685  0.3185292825717312  0.4558175099688953  1.0000
  O   O8        1.0  0.31100809400945206  0.3332173486012167  0.5013007643173495  1.0000
  O   O9        1.0  0.1473433178827861  0.8049208906029508  0.049960590714384495  1.0000
  O   O10       1.0  0.01071409630413464  0.17832525774949906  0.0649792316314191  1.0000
  O   O11       1.0  0.7966666877106549  0.029928162063050903  0.0579778805380471  1.0000
  O   O12       1.0  0.48212444830131307  0.16932169667339989  0.5584059194472033  1.0000
  O   O13       1.0  0.15315857110358888  0.9989599987380658  0.07384087759892569  1.0000
  O   O14       1.0  0.8163646670597303  0.1865031833367965  0.0647043716927982  1.0000
  O   O15       1.0  0.9685177530358472  0.83517557490125  0.06491889947282908  1.0000
  O   O16       1.0  0.0022253260803922004  0.006052827238562501  0.013264029483799799  1.0000
  O   O17       1.0  0.17159304627339372  0.04268893936732351  0.9738292191542683  1.0000
  O   O18       1.0  0.8232479627174171  0.18283483566624878  0.966323262204213  1.0000
  O   O19       1.0  0.9997526677719364  0.824115627239877  0.9663584522812982  1.0000
  O   O20       1.0  0.763054052822966  0.2249126409928763  0.6407067069410174  1.0000
  O   O21       1.0  0.6362888298780193  0.43457961984789506  0.650605248878584  1.0000
  O   O22       1.0  0.8170851625488922  0.33751417621640195  0.6923227431761987  1.0000
  O   O23       1.0  0.31149527080460626  0.5285940560937306  0.5392586482637753  1.0000
  O   O24       1.0  0.8967442714671069  0.8950616454182594  0.6990377453732606  1.0000
  O   O25       1.0  0.06741823344248134  0.8303423884991189  0.6449959236602893  1.0000
  O   O26       1.0  0.9453848851177044  0.7422749067017166  0.6397987911259334  1.0000
  O   O27       1.0  0.005899085872414404  0.0236623689356392  0.7468484883522422  1.0000
  O   O28       1.0  0.9993063810427287  0.14719055467245573  0.6765888370528687  1.0000
  O   O29       1.0  0.1429323044100315  0.9487955461808326  0.675983547554054  1.0000
  O   O30       1.0  0.1507552200376384  0.8564493994657524  0.9504198949427476  1.0000
  O   O31       1.0  0.000972829361906207  0.20513403681469106  0.9708815778915891  1.0000
  O   O32       1.0  0.8206123258460706  0.015245566685905496  0.9613422589274733  1.0000
  O   O33       1.0  0.1538431816187043  0.5077762802403285  0.5536163198840498  1.0000
  O   O34       1.0  0.3113176073478244  0.1395324317382389  0.5496457177996064  1.0000
  O   O35       1.0  0.48209409064016734  0.3385225829849361  0.5533153927168328  1.0000
  O   O36       1.0  0.998600833415857  0.4811113135940417  0.5009694144899299  1.0000
  O   O37       1.0  0.3111894936365474  0.8340506681915446  0.0155322767751542  1.0000
