data_image0
_chemical_formula_structural       Zn2H44C56Br6N6O8
_chemical_formula_sum              "Zn2 H44 C56 Br6 N6 O8"
_cell_length_a       15.600814789910414
_cell_length_b       15.950998131712794
_cell_length_c       17.126165907980702
_cell_angle_alpha    88.16460550570035
_cell_angle_beta     89.07121163606962
_cell_angle_gamma    70.84121955665083

_space_group_name_H-M_alt    "P 1"
_space_group_IT_number       1

loop_
  _space_group_symop_operation_xyz
  'x, y, z'

loop_
  _atom_site_type_symbol
  _atom_site_label
  _atom_site_symmetry_multiplicity
  _atom_site_fract_x
  _atom_site_fract_y
  _atom_site_fract_z
  _atom_site_occupancy
  Zn  Zn1       1.0  0.49823821122186723  0.41205178993509867  0.4936211034265623  1.0000
  Zn  Zn2       1.0  0.5037369278210021  0.587469980563931  0.5041570899400936  1.0000
  H   H1        1.0  0.5795803419280148  0.24723410883390787  0.5664925272204397  1.0000
  H   H2        1.0  0.42979952678111016  0.7503796931205715  0.42542712998189075  1.0000
  H   H3        1.0  0.5820239030893433  0.08732457728043393  0.5692539183676997  1.0000
  H   H4        1.0  0.420944391334423  0.9120001709269091  0.4273013694489121  1.0000
  H   H5        1.0  0.2282146649335813  0.46791738495451807  0.5283316927151842  1.0000
  H   H6        1.0  0.7733610673719298  0.531979920548828  0.5101855089388818  1.0000
  H   H7        1.0  0.20253965295417228  0.7426880623028822  0.5119790549936736  1.0000
  H   H8        1.0  0.7978446937989503  0.25774712846830994  0.5244616127156971  1.0000
  H   H9        1.0  0.9635520327514372  0.2169134969455726  0.5504365402975818  1.0000
  H   H10       1.0  0.034245722397024156  0.7847055034205115  0.5223024315453342  1.0000
  H   H11       1.0  0.1716417348060588  0.37934011159152453  0.5662176293540777  1.0000
  H   H12       1.0  0.824489381134647  0.6238883057819251  0.5327096709690406  1.0000
  H   H13       1.0  0.6099614131391745  0.4552473065105859  0.09472649914527406  1.0000
  H   H14       1.0  0.37008914504846047  0.5815716940067546  0.8919280635845079  1.0000
  H   H15       1.0  0.6265197116180161  0.37340263256435696  0.8941167515359036  1.0000
  H   H16       1.0  0.32897108985256546  0.6079026142755029  0.12001255503852083  1.0000
  H   H17       1.0  0.8089846853377409  0.39674442368101387  0.3441386897279413  1.0000
  H   H18       1.0  0.8458341959309267  0.4133955541866072  0.2480436409871486  1.0000
  H   H19       1.0  0.8420482444709876  0.49100174304314964  0.3212749970337895  1.0000
  H   H20       1.0  0.7087063436804113  0.5489615114933174  0.22867288325109303  1.0000
  H   H21       1.0  0.6726284892758231  0.5377314844625046  0.3254964564431687  1.0000
  H   H22       1.0  0.6520198758762986  0.39463307663756814  0.2967208748702531  1.0000
  H   H23       1.0  0.6996942024031299  0.39537886505896586  0.2024511546541489  1.0000
  H   H24       1.0  0.29671316799305464  0.7451703933708771  0.621237443763732  1.0000
  H   H25       1.0  0.22062065136748996  0.7717465777920297  0.7020639843181156  1.0000
  H   H26       1.0  0.2989503023292315  0.8299908584620896  0.6854852966180683  1.0000
  H   H27       1.0  0.35900460532727857  0.717917706769157  0.7929114499671497  1.0000
  H   H28       1.0  0.42912393752305883  0.6864838746767674  0.7097112080339083  1.0000
  H   H29       1.0  0.3404891993138221  0.5840524361362186  0.6753855908500837  1.0000
  H   H30       1.0  0.28185594577848144  0.6097855409499644  0.7651801284697936  1.0000
  H   H31       1.0  0.7886942345403012  0.20111380252248523  0.691789176301526  1.0000
  H   H32       1.0  0.8371481243413753  0.2866431219088099  0.6980059196622432  1.0000
  H   H33       1.0  0.8647805188654016  0.19816773472512494  0.7687508623982847  1.0000
  H   H34       1.0  0.7525937743894885  0.33720256384690134  0.82249171834826  1.0000
  H   H35       1.0  0.7066845932224624  0.24997242693351757  0.8215584539158054  1.0000
  H   H36       1.0  0.6260232525164111  0.3109243271951173  0.6966768063245607  1.0000
  H   H37       1.0  0.675631979759629  0.394352802235268  0.6922926763658308  1.0000
  H   H38       1.0  0.14891189713182473  0.6410462191318305  0.3423908469361975  1.0000
  H   H39       1.0  0.1701917046372614  0.7433768064429672  0.3410631037430887  1.0000
  H   H40       1.0  0.09029566042755731  0.7274031807986249  0.2754043585309417  1.0000
  H   H41       1.0  0.23527581545749138  0.7136802495969548  0.20377639740160441  1.0000
  H   H42       1.0  0.21554025626839035  0.6110059910321938  0.20678094391791282  1.0000
  H   H43       1.0  0.3180074628219671  0.5638590144541241  0.3248159768720312  1.0000
  H   H44       1.0  0.3394422918309558  0.66450070824083  0.31878488794362864  1.0000
  C   C1        1.0  0.496898362126842  0.4755199947614984  0.6502617469626413  1.0000
  C   C2        1.0  0.4989664909090975  0.5233291820447548  0.3484376908922185  1.0000
  C   C3        1.0  0.09903420941967063  0.3980368431442471  0.5561674808042694  1.0000
  C   C4        1.0  0.8981197738109542  0.6044391489797932  0.5332768247335478  1.0000
  C   C5        1.0  0.05911038308286009  0.33325889707693085  0.5587390612973308  1.0000
  C   C6        1.0  0.9378801700989854  0.6692290785345211  0.5323958784277847  1.0000
  C   C7        1.0  0.49601835636597963  0.4739289144932499  0.7379841720657506  1.0000
  C   C8        1.0  0.49000970030524355  0.5293780287144402  0.2611016370482132  1.0000
  C   C9        1.0  0.42314608669396137  0.5350154645498436  0.7779170920549201  1.0000
  C   C10       1.0  0.565685323558888  0.4863685382236441  0.2137163503734029  1.0000
  C   C11       1.0  0.4249925350426836  0.5351256587033576  0.8592932736245228  1.0000
  C   C12       1.0  0.5534829828375576  0.4883228680892487  0.1332311534834786  1.0000
  C   C13       1.0  0.49896271190318925  0.47707108829952477  0.9001800451452477  1.0000
  C   C14       1.0  0.4679358108663576  0.531038725141272  0.10028635288550446  1.0000
  C   C15       1.0  0.5704725199290125  0.41675550425482305  0.8595916534109163  1.0000
  C   C16       1.0  0.394132737704787  0.5751669210968018  0.14800916215950363  1.0000
  C   C17       1.0  0.5706356562973197  0.4141730049516569  0.7783442059936828  1.0000
  C   C18       1.0  0.4036344359510977  0.5741532092497084  0.22897918844333268  1.0000
  C   C19       1.0  0.4677788203361145  0.7744766872628192  0.4670296516597004  1.0000
  C   C20       1.0  0.5355432419945743  0.22493133472382001  0.529576399409471  1.0000
  C   C21       1.0  0.4630441006980916  0.8623841360802232  0.46813409468527556  1.0000
  C   C22       1.0  0.5364572441395197  0.1380339351110607  0.5313409680833485  1.0000
  C   C23       1.0  0.676664829752184  0.4263734646592711  0.5030231562900693  1.0000
  C   C24       1.0  0.32475494032152596  0.5750579469719242  0.5082906157401721  1.0000
  C   C25       1.0  0.512718551028577  0.8883494425169403  0.5246530996721572  1.0000
  C   C26       1.0  0.47804613951146985  0.11463285842665272  0.4814264603308443  1.0000
  C   C27       1.0  0.5671487307410672  0.8241258041782019  0.5772769634851966  1.0000
  C   C28       1.0  0.41901276551148203  0.18038736482151313  0.4328349125526002  1.0000
  C   C29       1.0  0.5696972392258245  0.7354759637141655  0.570447144479587  1.0000
  C   C30       1.0  0.4231774613695902  0.2671833472828596  0.43446132653001956  1.0000
  C   C31       1.0  0.7768494847209481  0.3984645279565129  0.5166330402654393  1.0000
  C   C32       1.0  0.22404421216000256  0.6019590364922962  0.5193383682061492  1.0000
  C   C33       1.0  0.921988932302419  0.2862199667550982  0.5417390351052372  1.0000
  C   C34       1.0  0.07670920138860983  0.7151742882252635  0.5244943450668058  1.0000
  C   C35       1.0  0.8302469822244447  0.3085384350084368  0.5274026630360209  1.0000
  C   C36       1.0  0.16978016169128543  0.6921983165463319  0.518682859378856  1.0000
  C   C37       1.0  0.8170472944023146  0.46385990496095536  0.5203459972861847  1.0000
  C   C38       1.0  0.18374215712125153  0.5366161124652039  0.5287994115384574  1.0000
  C   C39       1.0  0.9102331341525055  0.443826373708518  0.5348897441607005  1.0000
  C   C40       1.0  0.08897450984384385  0.5574653462284973  0.5357224963078976  1.0000
  C   C41       1.0  0.9642563057283267  0.35216790417977967  0.5455560206028521  1.0000
  C   C42       1.0  0.03408686652657874  0.6494334726596025  0.5314423541467688  1.0000
  C   C43       1.0  0.9515209042209917  0.5127837271796737  0.5369456904929775  1.0000
  C   C44       1.0  0.04682699248638756  0.48908271722417146  0.5429057897889249  1.0000
  C   C45       1.0  0.6583131927057407  0.43848638835317655  0.2475680311951719  1.0000
  C   C46       1.0  0.7091105245169229  0.4998771475557505  0.2755613598991429  1.0000
  C   C47       1.0  0.8067854715578447  0.44757377151039185  0.2985539206935498  1.0000
  C   C48       1.0  0.346580060028181  0.6039076389300392  0.7352993695589158  1.0000
  C   C49       1.0  0.3605298781932899  0.695190683184926  0.732661226831922  1.0000
  C   C50       1.0  0.29024066121929337  0.7644595143209758  0.6826480149211915  1.0000
  C   C51       1.0  0.6504157119294761  0.35331917546761105  0.733918641934302  1.0000
  C   C52       1.0  0.7296762879665905  0.2954183575409814  0.7833430526318776  1.0000
  C   C53       1.0  0.8094912382250355  0.24234562321035474  0.7329457790687496  1.0000
  C   C54       1.0  0.32369717939140236  0.6156483435790463  0.2825368751911481  1.0000
  C   C55       1.0  0.2318040268916661  0.6591494913130236  0.24355236566021415  1.0000
  C   C56       1.0  0.1560660184559239  0.6947380034258259  0.3036317342309544  1.0000
  Br  Br1       1.0  0.1349698760093716  0.2139031465774153  0.5804479033911034  1.0000
  Br  Br2       1.0  0.8598979439669205  0.7900325678258114  0.5300295071676256  1.0000
  Br  Br3       1.0  0.6354656490846082  0.857033643567604  0.6526254882120381  1.0000
  Br  Br4       1.0  0.3354062565932594  0.1511731362894935  0.3705120795986259  1.0000
  Br  Br5       1.0  0.6446259395909593  0.6461510591041774  0.6369585614320596  1.0000
  Br  Br6       1.0  0.3481399708740938  0.35690357828971037  0.36844113584512417  1.0000
  N   N1        1.0  0.5112848115943863  0.4753592100389739  0.9816398354378033  1.0000
  N   N2        1.0  0.4502359328836647  0.5323159731924179  0.019530366745243603  1.0000
  N   N3        1.0  0.5201201271543852  0.7122352360956015  0.5174310830578503  1.0000
  N   N4        1.0  0.4804238610648992  0.2880661415137881  0.4815687838775699  1.0000
  N   N5        1.0  0.5067219789223926  0.9776613967602689  0.534098608430021  1.0000
  N   N6        1.0  0.4815698389075677  0.026016718553044906  0.47327268712923826  1.0000
  O   O1        1.0  0.49612768957369  0.406629186931113  0.6154046421243462  1.0000
  O   O2        1.0  0.4929997588493932  0.5936944430982223  0.3843646136788406  1.0000
  O   O3        1.0  0.4994409473215099  0.5475181400494834  0.6174573991573238  1.0000
  O   O4        1.0  0.5101566823709118  0.4470609378785184  0.3797481915196953  1.0000
  O   O5        1.0  0.6389355693104192  0.3665475861080268  0.5040694606176924  1.0000
  O   O6        1.0  0.3616550152709692  0.6355032315217104  0.5070714238156453  1.0000
  O   O7        1.0  0.6363657835386788  0.5094443384240819  0.4925467771365316  1.0000
  O   O8        1.0  0.36602005916343217  0.49231460302107183  0.5008253668079089  1.0000
