data_image0
_chemical_formula_structural       Cu2Ag2H32C48I6N8
_chemical_formula_sum              "Cu2 Ag2 H32 C48 I6 N8"
_cell_length_a       10.188562180092694
_cell_length_b       10.691769780676843
_cell_length_c       12.532155715672483
_cell_angle_alpha    96.95183600884526
_cell_angle_beta     100.660202969038
_cell_angle_gamma    91.39834698365007

_space_group_name_H-M_alt    "P 1"
_space_group_IT_number       1

loop_
  _space_group_symop_operation_xyz
  'x, y, z'

loop_
  _atom_site_type_symbol
  _atom_site_label
  _atom_site_symmetry_multiplicity
  _atom_site_fract_x
  _atom_site_fract_y
  _atom_site_fract_z
  _atom_site_occupancy
  Cu  Cu1       1.0  0.7289763785491915  0.9942458395621685  0.22333315306543264  1.0000
  Cu  Cu2       1.0  0.2710383173939448  0.0057463369388131  0.7766713510507516  1.0000
  Ag  Ag1       1.0  0.5635538677245863  0.5894183295947142  0.1362130489794282  1.0000
  Ag  Ag2       1.0  0.436437165885721  0.4105619564043436  0.8637892043470432  1.0000
  H   H1        1.0  0.8078099439217256  0.7149881095879848  0.1751327606694915  1.0000
  H   H2        1.0  0.19220477664933364  0.2850017306234846  0.8248858433405958  1.0000
  H   H3        1.0  0.010359131754462703  0.6162795036676129  0.11996940955624781  1.0000
  H   H4        1.0  0.9896650166196822  0.3837274556806705  0.8800427305602057  1.0000
  H   H5        1.0  0.19428696005864773  0.7527721074032386  0.08323056287049013  1.0000
  H   H6        1.0  0.8057265569256062  0.24723569268718393  0.9167598473739248  1.0000
  H   H7        1.0  0.2797197519568044  0.975483206458776  0.06810748220099332  1.0000
  H   H8        1.0  0.7202706211671456  0.024538902760582494  0.9318913168879491  1.0000
  H   H9        1.0  0.24955422601550484  0.2057928056794793  0.0897589243651638  1.0000
  H   H10       1.0  0.7504308591323723  0.7942242818229915  0.9102515080447733  1.0000
  H   H11       1.0  0.1151095285710682  0.3891167353529495  0.1491610455511179  1.0000
  H   H12       1.0  0.8848940788155275  0.6108856049399733  0.8508572893049832  1.0000
  H   H13       1.0  0.9006895277109876  0.4600011639343575  0.2094343437412576  1.0000
  H   H14       1.0  0.09930600168853228  0.5400178698509136  0.7905693613670549  1.0000
  H   H15       1.0  0.7338104461380653  0.3017205384282278  0.2321244769549295  1.0000
  H   H16       1.0  0.26618218515262987  0.6982779287216018  0.7678714845644876  1.0000
  H   H17       1.0  0.5081212638425187  0.17867973203193796  0.14951308540833716  1.0000
  H   H18       1.0  0.4918694519369638  0.821283394264277  0.8504621176364396  1.0000
  H   H19       1.0  0.38859854736113425  0.34039998050177184  0.2514789070508172  1.0000
  H   H20       1.0  0.6113863314086175  0.6595977599396434  0.7484834034492351  1.0000
  H   H21       1.0  0.4110212819691129  0.34592760490613716  0.4566164525034608  1.0000
  H   H22       1.0  0.5889952930386572  0.6540756431038232  0.5433664679209046  1.0000
  H   H23       1.0  0.5105883783099117  0.2520953310009518  0.6274893748276682  1.0000
  H   H24       1.0  0.48943136415820737  0.7479248767239781  0.37249524904523673  1.0000
  H   H25       1.0  0.6572939136860825  0.09766472731593717  0.7146122004947061  1.0000
  H   H26       1.0  0.3427063813993173  0.9023504185071688  0.2853922674350144  1.0000
  H   H27       1.0  0.8147538351733487  0.9182841396592989  0.6946758497259253  1.0000
  H   H28       1.0  0.18522138389630532  0.08171250833359518  0.3053261745261722  1.0000
  H   H29       1.0  0.9405450145962321  0.7829158337197414  0.5735279672313851  1.0000
  H   H30       1.0  0.05943234016267239  0.21705101270633517  0.4264864103753894  1.0000
  H   H31       1.0  0.9138099684818571  0.8139193399440287  0.376505643487313  1.0000
  H   H32       1.0  0.08619078026629982  0.186051154327636  0.6235018926011408  1.0000
  C   C1        1.0  0.8903408046388465  0.7730588103916672  0.15958420768401282  1.0000
  C   C2        1.0  0.1096781918398477  0.22693860359199644  0.8404325940191342  1.0000
  C   C3        1.0  0.004312866366397793  0.7184713553311254  0.129008201228217  1.0000
  C   C4        1.0  0.9956994381390987  0.2815435465121325  0.8709982088635543  1.0000
  C   C5        1.0  0.105882817052084  0.7944361886309961  0.10798416479344296  1.0000
  C   C6        1.0  0.8941283295188782  0.20557918210852208  0.892007793080147  1.0000
  C   C7        1.0  0.09318827263237492  0.9264376583441771  0.1173653346788512  1.0000
  C   C8        1.0  0.906812910473583  0.07357595635004087  0.8826270222266928  1.0000
  C   C9        1.0  0.19111141165995352  0.0132866454815144  0.09527062591342882  1.0000
  C   C10       1.0  0.8088838355614597  0.986721239166904  0.9047260095110943  1.0000
  C   C11       1.0  0.1753182196499168  0.1406345635605035  0.10846208226658402  1.0000
  C   C12       1.0  0.8246711929087097  0.859375315607032  0.8915342409132806  1.0000
  C   C13       1.0  0.059826335359197506  0.1912302200925423  0.1445177664423269  1.0000
  C   C14       1.0  0.9401587387638842  0.8087785205544263  0.8554867852636151  1.0000
  C   C15       1.0  0.039184158027133306  0.321783979408707  0.1625019062118511  1.0000
  C   C16       1.0  0.9608093390204288  0.6782263712566844  0.8375076768923648  1.0000
  C   C17       1.0  0.9223292993404258  0.3609375566217422  0.19388281649496264  1.0000
  C   C18       1.0  0.07766394499985552  0.639073867069662  0.8061228807971262  1.0000
  C   C19       1.0  0.8263152840429271  0.27059662862394157  0.2076999322722273  1.0000
  C   C20       1.0  0.17367798132171694  0.7293996403742895  0.7923054066734494  1.0000
  C   C21       1.0  0.9590282103059168  0.1071068775465065  0.16300359567761546  1.0000
  C   C22       1.0  0.04096792369672638  0.8928977359243004  0.8370063029852942  1.0000
  C   C23       1.0  0.9760927988219451  0.9740499148848938  0.15016651205877452  1.0000
  C   C24       1.0  0.02391878118125852  0.02595421777500919  0.8498512338885222  1.0000
  C   C25       1.0  0.5198171134633398  0.18663448949208566  0.23862178767885212  1.0000
  C   C26       1.0  0.4801828571465592  0.813342528973962  0.7613593168712569  1.0000
  C   C27       1.0  0.45078013631358266  0.27530107209576465  0.29656942676991355  1.0000
  C   C28       1.0  0.5492205485676607  0.7246966274767742  0.7034168227892225  1.0000
  C   C29       1.0  0.46433588068818926  0.2793410616516923  0.4089394153476533  1.0000
  C   C30       1.0  0.5356753171544995  0.720645937355158  0.5910504774169496  1.0000
  C   C31       1.0  0.5491749150736851  0.19520340679090253  0.4637861526656053  1.0000
  C   C32       1.0  0.4508366659374587  0.8047888762921853  0.5362164608332947  1.0000
  C   C33       1.0  0.5663888425602864  0.18878219300744795  0.579188358492985  1.0000
  C   C34       1.0  0.43360155900924713  0.8112202899705845  0.4208015047132249  1.0000
  C   C35       1.0  0.6484822107801591  0.1038267053333968  0.6272970873423915  1.0000
  C   C36       1.0  0.35150121078724084  0.8961794074918141  0.3727013630392761  1.0000
  C   C37       1.0  0.7227394642029168  0.021267563494525604  0.564657016245647  1.0000
  C   C38       1.0  0.27724192321074537  0.9787234570089823  0.43534008301175936  1.0000
  C   C39       1.0  0.807226111109287  0.9299191613690992  0.6087917911728483  1.0000
  C   C40       1.0  0.19275982977859482  0.07008961321661641  0.3912112496694959  1.0000
  C   C41       1.0  0.8759547502395011  0.8551908026730781  0.542156441855262  1.0000
  C   C42       1.0  0.12403790106760941  0.14480435936039263  0.4578542937661396  1.0000
  C   C43       1.0  0.8601982186811056  0.8711631991801027  0.4307257348289042  1.0000
  C   C44       1.0  0.13980838520903663  0.128829174707171  0.5692764039778951  1.0000
  C   C45       1.0  0.7104749758547584  0.027922851118575006  0.4510255963900888  1.0000
  C   C46       1.0  0.2895309498795484  0.9720820314792744  0.5489708943772698  1.0000
  C   C47       1.0  0.6197990614887062  0.11261114552064559  0.3997331378447342  1.0000
  C   C48       1.0  0.38022243249227466  0.887385826138043  0.6002662510969543  1.0000
  I   I1        1.0  0.5334733368942467  0.848673196467068  0.0946790968399256  1.0000
  I   I2        1.0  0.46653120001646187  0.151336332138527  0.9053210591192667  1.0000
  I   I3        1.0  0.6981538021362398  0.5634768933180679  0.3435291672478229  1.0000
  I   I4        1.0  0.3018309593299762  0.43652032560598986  0.6564802633510639  1.0000
  I   I5        1.0  0.6997623132513909  0.5025449965276606  0.9552484076781909  1.0000
  I   I6        1.0  0.3002522642632997  0.4974373201497713  0.04473800977140742  1.0000
  N   N1        1.0  0.8772338138629012  0.897550545056376  0.17059197464664788  1.0000
  N   N2        1.0  0.12277707672828339  0.10244415983305541  0.8294244843713656  1.0000
  N   N3        1.0  0.8441739480839628  0.1472156898719703  0.1936123350364198  1.0000
  N   N4        1.0  0.1558209147296665  0.8527851706514866  0.8063969539163551  1.0000
  N   N5        1.0  0.6031733150425894  0.10857670089157519  0.28908137863314215  1.0000
  N   N6        1.0  0.39683681562497236  0.8914148138740496  0.7109161938283535  1.0000
  N   N7        1.0  0.7795853553022313  0.9547585428104096  0.3863552807173747  1.0000
  N   N8        1.0  0.2204254419512139  0.0452511452170299  0.6136367078996585  1.0000
