data_image0
_chemical_formula_structural       Cu2H16C8Br4N16O12
_chemical_formula_sum              "Cu2 H16 C8 Br4 N16 O12"
_cell_length_a       6.88148685214521
_cell_length_b       9.355072865501105
_cell_length_c       10.521413453407515
_cell_angle_alpha    103.21290861203866
_cell_angle_beta     89.99855284772433
_cell_angle_gamma    89.9988767387201

_space_group_name_H-M_alt    "P 1"
_space_group_IT_number       1

loop_
  _space_group_symop_operation_xyz
  'x, y, z'

loop_
  _atom_site_type_symbol
  _atom_site_label
  _atom_site_symmetry_multiplicity
  _atom_site_fract_x
  _atom_site_fract_y
  _atom_site_fract_z
  _atom_site_occupancy
  Cu  Cu1       1.0  0.9999999628246385  0.9999995160200397  0.9999989845771889  1.0000
  Cu  Cu2       1.0  0.5000001216210066  0.5000003938489357  2.321644316703091e-07  1.0000
  H   H1        1.0  0.6214918929685425  0.11838413528627709  0.38566925704464683  1.0000
  H   H2        1.0  0.12148886755323218  0.38160490254894336  0.6143263936066176  1.0000
  H   H3        1.0  0.3785066166634933  0.8816153837973391  0.6143306786062225  1.0000
  H   H4        1.0  0.8785096420793579  0.6183935215823196  0.38567427259297904  1.0000
  H   H5        1.0  0.44882394763163086  0.17408857933122582  0.5152823939436003  1.0000
  H   H6        1.0  0.9488350961171859  0.32590831419228994  0.4847255305081004  1.0000
  H   H7        1.0  0.5511745619998578  0.8259120347047356  0.4847168111585416  1.0000
  H   H8        1.0  0.051163413515404016  0.6740901099389801  0.515275135691496  1.0000
  H   H9        1.0  0.5043719529684125  0.29487577652162145  0.409792109706025  1.0000
  H   H10       1.0  0.004384716712067399  0.2051232591059744  0.5902065522754469  1.0000
  H   H11       1.0  0.4956265567001807  0.7051237364635695  0.590205923827497  1.0000
  H   H12       1.0  0.9956152460765749  0.7948751680601448  0.40979506496781665  1.0000
  H   H13       1.0  0.3765835103088405  0.17721130777730557  0.14640416808513376  1.0000
  H   H14       1.0  0.876577691258248  0.3227914088701169  0.8536070816862631  1.0000
  H   H15       1.0  0.6234164525157977  0.8227882082427339  0.8535948164920553  1.0000
  H   H16       1.0  0.12342081835551258  0.6772081132627079  0.14639380502327973  1.0000
  C   C1        1.0  0.48738575482065005  0.18027157118213208  0.4157242098290722  1.0000
  C   C2        1.0  0.9873917972783842  0.31972453578744353  0.584275309754659  1.0000
  C   C3        1.0  0.5126142080039884  0.8197279448379005  0.5842747747481167  1.0000
  C   C4        1.0  0.012608165528526196  0.6802738883294663  0.4157253564299309  1.0000
  C   C5        1.0  0.29593201533946717  0.1163693452513215  0.20528132860941634  1.0000
  C   C6        1.0  0.7959268365510679  0.38362944199392496  0.7947200227272402  1.0000
  C   C7        1.0  0.7040679475034467  0.8836301677195021  0.7947167049090919  1.0000
  C   C8        1.0  0.204071673081522  0.6163689821373382  0.20528064347235633  1.0000
  Br  Br1       1.0  0.813805545046378  0.3103407405142277  0.14745753981259913  1.0000
  Br  Br2       1.0  0.31378686378422327  0.1896565467882212  0.8525280050568326  1.0000
  Br  Br3       1.0  0.18619441775998513  0.689658778555021  0.8525423958232705  1.0000
  Br  Br4       1.0  0.686216005388509  0.8103440641554442  0.14747024894161592  1.0000
  N   N1        1.0  0.08568719247780619  0.975225507478278  0.26910415811452976  1.0000
  N   N2        1.0  0.58567220359712  0.524776006865139  0.7309032439526034  1.0000
  N   N3        1.0  0.9143127703656546  0.0247729105402001  0.7308946059527057  1.0000
  N   N4        1.0  0.41433066550197145  0.47522571122772916  0.26909808373181915  1.0000
  N   N5        1.0  0.14329246155539718  0.030660674416694185  0.16679507243116373  1.0000
  N   N6        1.0  0.6432791688133362  0.4693378451172592  0.833211623235911  1.0000
  N   N7        1.0  0.8567060481320111  0.969337740566928  0.833202740592405  1.0000
  N   N8        1.0  0.35672079395593664  0.5306627750027672  0.16678948396857848  1.0000
  N   N9        1.0  0.1982419189506714  0.024668528012938402  0.36826249017506996  1.0000
  N   N10       1.0  0.6982361920051616  0.4753299819751644  0.6317366335930854  1.0000
  N   N11       1.0  0.8017565907184617  0.9753298900198999  0.6317362739071725  1.0000
  N   N12       1.0  0.3017652239013344  0.5246717391812723  0.36826564516502447  1.0000
  N   N13       1.0  0.3303829719546343  0.11363368410624015  0.32993298420201705  1.0000
  N   N14       1.0  0.8303723277955227  0.38636552023874765  0.6700678761547818  1.0000
  N   N15       1.0  0.669615537714499  0.8863647339265979  0.6700657798802252  1.0000
  N   N16       1.0  0.16962618181824493  0.6136340018940842  0.329933010554761  1.0000
  O   O1        1.0  0.9651049765531068  0.21841940519702516  0.021330251284446378  1.0000
  O   O2        1.0  0.4651313287641514  0.28159366078337195  0.9786882528623335  1.0000
  O   O3        1.0  0.03489207997825619  0.7815790067517483  0.9786666106954554  1.0000
  O   O4        1.0  0.5348686339862923  0.718408057338216  0.021313074852109433  1.0000
  O   O5        1.0  0.8031856658878026  0.4763806802488161  0.11236533511154786  1.0000
  O   O6        1.0  0.30320056999455847  0.023617917684468595  0.8876216003214804  1.0000
  O   O7        1.0  0.1968172032483864  0.5236199367932741  0.8876348210042477  1.0000
  O   O8        1.0  0.6968008459850311  0.9763837912751183  0.11237687420192792  1.0000
  O   O9        1.0  0.9426004400207048  0.3289735726780734  0.2832819914396011  1.0000
  O   O10       1.0  0.44259763446625294  0.17102225451892392  0.716697309425619  1.0000
  O   O11       1.0  0.057400975959978985  0.6710259463768152  0.7167179441812548  1.0000
  O   O12       1.0  0.5574066878625317  0.8289783594595902  0.28330189561650326  1.0000
