data_image0
_chemical_formula_structural       Lu2H14C6O16
_chemical_formula_sum              "Lu2 H14 C6 O16"
_cell_length_a       6.464520196549988
_cell_length_b       6.468415843088434
_cell_length_c       9.355400588752435
_cell_angle_alpha    72.31703544186387
_cell_angle_beta     87.42344610028492
_cell_angle_gamma    83.29168118892208

_space_group_name_H-M_alt    "P 1"
_space_group_IT_number       1

loop_
  _space_group_symop_operation_xyz
  'x, y, z'

loop_
  _atom_site_type_symbol
  _atom_site_label
  _atom_site_symmetry_multiplicity
  _atom_site_fract_x
  _atom_site_fract_y
  _atom_site_fract_z
  _atom_site_occupancy
  Lu  Lu1       1.0  0.2515498591290282  0.24933861931460652  0.24930796264990107  1.0000
  Lu  Lu2       1.0  0.7484525727847214  0.7506640676208319  0.7506903162542145  1.0000
  H   H1        1.0  0.7347331320889907  0.36120747731278163  0.2853487826434176  1.0000
  H   H2        1.0  0.2652619371041992  0.6387919219961022  0.7146526055401452  1.0000
  H   H3        1.0  0.2076664942562659  0.8771407071386149  0.07060061304296991  1.0000
  H   H4        1.0  0.792343372801021  0.12286533720174482  0.9294020216451884  1.0000
  H   H5        1.0  0.2003011796154013  0.2858452911409018  0.6557051437489039  1.0000
  H   H6        1.0  0.7996858392346198  0.7141573692893818  0.34430011149532896  1.0000
  H   H7        1.0  0.40378082824487654  0.8098635896621859  0.4289448568435716  1.0000
  H   H8        1.0  0.5962146157980329  0.19013256517772703  0.5710593517623082  1.0000
  H   H9        1.0  0.15127904021476013  0.8265794613782591  0.4306859133903913  1.0000
  H   H10       1.0  0.8487178892653731  0.17341664228315073  0.5693118388182228  1.0000
  H   H11       1.0  0.3987304849399607  0.2998624789145908  0.9471083867183269  1.0000
  H   H12       1.0  0.6012786268816227  0.700135306065114  0.05288642667007081  1.0000
  H   H13       1.0  0.14878302451246134  0.2977049838388623  0.9406768516470551  1.0000
  H   H14       1.0  0.8512250455290767  0.7023026142944316  0.05931803197552915  1.0000
  C   C1        1.0  0.7547153750361133  0.22079622260341852  0.23956162672881484  1.0000
  C   C2        1.0  0.24528639475717992  0.7791982946864023  0.760438428814318  1.0000
  C   C3        1.0  0.22227563259357908  0.6999816420865271  0.12708522390903446  1.0000
  C   C4        1.0  0.7777268303585885  0.3000210747539286  0.8729162543080092  1.0000
  C   C5        1.0  0.2115721939421604  0.2860566300054472  0.5377417697071749  1.0000
  C   C6        1.0  0.7884215358541128  0.7139411583741051  0.4622632193342611  1.0000
  O   O1        1.0  0.592679557546461  0.13768128670967883  0.22295098339396452  1.0000
  O   O2        1.0  0.4073275169094615  0.8623214261203175  0.7770471221958815  1.0000
  O   O3        1.0  0.9379645658943616  0.15386477028030754  0.2073377152585749  1.0000
  O   O4        1.0  0.062029471864924815  0.8461444521505045  0.7926648095968147  1.0000
  O   O5        1.0  0.40109561879645367  0.5909870575459452  0.149305989840542  1.0000
  O   O6        1.0  0.5989055473377081  0.4090122865739758  0.8506855693185571  1.0000
  O   O7        1.0  0.05931697949208112  0.6011320270031176  0.16828571813002216  1.0000
  O   O8        1.0  0.9406818675419544  0.3988755791510954  0.831715910746965  1.0000
  O   O9        1.0  0.0500796684470188  0.2691751750968124  0.470755236498576  1.0000
  O   O10       1.0  0.9499129933406605  0.7308176582010762  0.529245509446632  1.0000
  O   O11       1.0  0.38606476246062726  0.2999257797028889  0.46823953286705233  1.0000
  O   O12       1.0  0.6139296859966662  0.7000654898337262  0.5317678977060895  1.0000
  O   O13       1.0  0.2753257793255557  0.8946641635570888  0.3757514937985391  1.0000
  O   O14       1.0  0.7246744119152666  0.10533031519620553  0.6242454202030956  1.0000
  O   O15       1.0  0.27146357862230264  0.2542111065665297  0.009101956743862183  1.0000
  O   O16       1.0  0.7285469139807502  0.7457883292158487  0.9908935215372381  1.0000
