data_image0
_chemical_formula_structural       Cd2H20C30N6O14
_chemical_formula_sum              "Cd2 H20 C30 N6 O14"
_cell_length_a       8.030714537944148
_cell_length_b       9.579566268142315
_cell_length_c       10.692136202526521
_cell_angle_alpha    96.93449346880486
_cell_angle_beta     102.43486700814785
_cell_angle_gamma    101.0729524146509

_space_group_name_H-M_alt    "P 1"
_space_group_IT_number       1

loop_
  _space_group_symop_operation_xyz
  'x, y, z'

loop_
  _atom_site_type_symbol
  _atom_site_label
  _atom_site_symmetry_multiplicity
  _atom_site_fract_x
  _atom_site_fract_y
  _atom_site_fract_z
  _atom_site_occupancy
  Cd  Cd1       1.0  0.018653510420428197  0.07321889749117362  0.8527026171568223  1.0000
  Cd  Cd2       1.0  0.981347242049871  0.9267798160869488  0.1472967968908492  1.0000
  H   H1        1.0  0.28479396548104313  0.3891736864612981  0.9138565252010905  1.0000
  H   H2        1.0  0.7152026544658981  0.6108239635564277  0.08614396390115087  1.0000
  H   H3        1.0  0.3839778693904563  0.587909334782566  0.798193110385121  1.0000
  H   H4        1.0  0.6160190409275046  0.4120893996921211  0.20180847370103547  1.0000
  H   H5        1.0  0.26100216432330825  0.5547198507043304  0.5550498283504978  1.0000
  H   H6        1.0  0.7389987775310516  0.4452842764285522  0.4449529794973301  1.0000
  H   H7        1.0  0.032616036110241  0.3355862067814215  0.4450949240476803  1.0000
  H   H8        1.0  0.967383346819936  0.6644168323962988  0.5549056425186762  1.0000
  H   H9        1.0  0.8068577741549631  0.18036841947505883  0.3749755753005459  1.0000
  H   H10       1.0  0.19314073158002287  0.8196313715636308  0.625022641135935  1.0000
  H   H11       1.0  0.5713814279737051  0.9600024532793725  0.28924882820846415  1.0000
  H   H12       1.0  0.42861707167914176  0.03999734299117819  0.7107503230498651  1.0000
  H   H13       1.0  0.5272074424113881  0.7713736230680653  0.43126335241957753  1.0000
  H   H14       1.0  0.47279036334818864  0.22862834385006894  0.5687377773308882  1.0000
  H   H15       1.0  0.7217050303100834  0.8172503082996201  0.656571742812716  1.0000
  H   H16       1.0  0.2782930779847916  0.1827527326117604  0.3434286122779469  1.0000
  H   H17       1.0  0.40600304682040184  0.13466557087105002  0.927328422215794  1.0000
  H   H18       1.0  0.5939967213856078  0.8653342288977016  0.07267187534009886  1.0000
  H   H19       1.0  0.3212945103991344  0.012218413128074701  0.0020286014558052825  1.0000
  H   H20       1.0  0.6787042796247247  0.9877824675994374  0.9979716447864391  1.0000
  C   C1        1.0  0.9970583709882632  0.6219010122409544  0.9373135189736672  1.0000
  C   C2        1.0  0.0029414276284568963  0.3780987613684843  0.06268210447292691  1.0000
  C   C3        1.0  0.8665507263623694  0.3712054167593308  0.9533019521322926  1.0000
  C   C4        1.0  0.1334541525491488  0.6287943656110571  0.046697321682671634  1.0000
  C   C5        1.0  0.8698905340817973  0.4930530647239024  0.8929132283392108  1.0000
  C   C6        1.0  0.1301099340996287  0.5069445591653973  0.10708415590269033  1.0000
  C   C7        1.0  0.9943135555075667  0.7485594048280788  0.864860871667048  1.0000
  C   C8        1.0  0.005687499498030491  0.2514403827432901  0.1351377677208205  1.0000
  C   C9        1.0  0.710311001085948  0.24235616369607985  0.9164779931379669  1.0000
  C   C10       1.0  0.28969103210179975  0.7576425429165284  0.08352069756354305  1.0000
  C   C11       1.0  0.22792564196844714  0.3835291835098004  0.8106901736101052  1.0000
  C   C12       1.0  0.7720722647780816  0.6164684543105422  0.18930865732411922  1.0000
  C   C13       1.0  0.2855410418486954  0.4928461424740079  0.7450533581287502  1.0000
  C   C14       1.0  0.7144602913636361  0.507154740018045  0.2549482458867516  1.0000
  C   C15       1.0  0.2149835941973849  0.4746768456004633  0.611597637503337  1.0000
  C   C16       1.0  0.7850180354681057  0.5253251161166972  0.38840412667421736  1.0000
  C   C17       1.0  0.08562133484498702  0.35229158031312124  0.5497631649770227  1.0000
  C   C18       1.0  0.9143793288026387  0.6477114518990775  0.4502366782431723  1.0000
  C   C19       1.0  0.028263975498724392  0.24961402842152583  0.6230923120626031  1.0000
  C   C20       1.0  0.9717360003377705  0.7503911692064024  0.3769085748278584  1.0000
  C   C21       1.0  0.8867469466356966  0.11852520145117754  0.5639223642698283  1.0000
  C   C22       1.0  0.11325056267071432  0.8814756862418563  0.4360786053185778  1.0000
  C   C23       1.0  0.7838048690571638  0.1001759060875713  0.4367618304397994  1.0000
  C   C24       1.0  0.21619547989088525  0.8998260625951108  0.5632406570839167  1.0000
  C   C25       1.0  0.6527355813651211  0.9751263942767778  0.3878144664788294  1.0000
  C   C26       1.0  0.3472613350349789  0.024872334966048  0.6121861827854644  1.0000
  C   C27       1.0  0.627624971009176  0.8706020123891208  0.46611662937010584  1.0000
  C   C28       1.0  0.3723776611670288  0.1293988474418271  0.5338814468336537  1.0000
  C   C29       1.0  0.7346343714235529  0.8957853705547549  0.5913955326582965  1.0000
  C   C30       1.0  0.265371100394283  0.10421657026584091  0.40860406148077294  1.0000
  N   N1        1.0  0.7394811490157379  0.48393118009428815  0.7706916310545823  1.0000
  N   N2        1.0  0.26051862527241093  0.5160686144425952  0.2293077316794481  1.0000
  N   N3        1.0  0.10235994581940841  0.2661507522952463  0.7516122972165533  1.0000
  N   N4        1.0  0.8976385659977166  0.733849033511575  0.24838498439806495  1.0000
  N   N5        1.0  0.8601338598617616  0.0161876441841571  0.6384577171439645  1.0000
  N   N6        1.0  0.13986621696169274  0.9838132243459725  0.3615408709302629  1.0000
  O   O1        1.0  0.9434375341598126  0.8548475181227602  0.9200553725271376  1.0000
  O   O2        1.0  0.05656449902793529  0.14515118848984093  0.0799433181743723  1.0000
  O   O3        1.0  0.040033340709861434  0.7420501573949423  0.7611426331109784  1.0000
  O   O4        1.0  0.9599658406719697  0.25794747869174023  0.2388564092989398  1.0000
  O   O5        1.0  0.7368164235007767  0.1173897359138252  0.8863638416326153  1.0000
  O   O6        1.0  0.2631840264342316  0.8826079036710655  0.11363634707485915  1.0000
  O   O7        1.0  0.5672099965011765  0.27272105379838507  0.9263877065624158  1.0000
  O   O8        1.0  0.43279233313973003  0.7272787320393235  0.07361114430114671  1.0000
  O   O9        1.0  0.7119613954054316  0.3733540077604189  0.6888004351525439  1.0000
  O   O10       1.0  0.28803740678271333  0.6266468625033781  0.3111979414459896  1.0000
  O   O11       1.0  0.6708576323563591  0.5876567827813801  0.7548491584017256  1.0000
  O   O12       1.0  0.32914053435047924  0.4123419656552302  0.2451554416256982  1.0000
  O   O13       1.0  0.30529765201498543  0.051007485622143606  0.9200374406279508  1.0000
  O   O14       1.0  0.694702804002155  0.9489901487308856  0.07996181325766834  1.0000
