data_image0
_chemical_formula_structural       Cd2H28C28N6O12
_chemical_formula_sum              "Cd2 H28 C28 N6 O12"
_cell_length_a       8.440206426747977
_cell_length_b       9.589779307667241
_cell_length_c       10.332114102268534
_cell_angle_alpha    78.89507568815806
_cell_angle_beta     74.73401149730162
_cell_angle_gamma    74.073032847255

_space_group_name_H-M_alt    "P 1"
_space_group_IT_number       1

loop_
  _space_group_symop_operation_xyz
  'x, y, z'

loop_
  _atom_site_type_symbol
  _atom_site_label
  _atom_site_symmetry_multiplicity
  _atom_site_fract_x
  _atom_site_fract_y
  _atom_site_fract_z
  _atom_site_occupancy
  Cd  Cd1       1.0  0.7926825576248504  0.9694073904943539  0.12217857699060639  1.0000
  Cd  Cd2       1.0  0.2073104051652948  0.030600750786831592  0.8778154115913851  1.0000
  H   H1        1.0  0.5033892801246793  0.0649848422417207  0.2953547851429122  1.0000
  H   H2        1.0  0.4966257458005854  0.9350185407551026  0.7046363856345226  1.0000
  H   H3        1.0  0.4298263647916444  0.05016194968378328  0.17182359201088104  1.0000
  H   H4        1.0  0.5701668302387048  0.9498451119770621  0.8281753811162536  1.0000
  H   H5        1.0  0.7370567866712036  0.9922179612534947  0.6392594624604089  1.0000
  H   H6        1.0  0.262929621620323  0.007801223820493404  0.3607484383466757  1.0000
  H   H7        1.0  0.9407338819045704  0.31741418944750416  0.7326144877854689  1.0000
  H   H8        1.0  0.0593055413809225  0.6825800360919771  0.26737319687310196  1.0000
  H   H9        1.0  0.9314559007677304  0.30036749298295  0.32055479904618545  1.0000
  H   H10       1.0  0.06856403099414617  0.6996162114514348  0.6794398440051383  1.0000
  H   H11       1.0  0.6456164200628011  0.3358160321886103  0.16196363013083478  1.0000
  H   H12       1.0  0.35437491386629477  0.6641878665193557  0.8380614676473501  1.0000
  H   H13       1.0  0.8253257765061975  0.35779664465643185  0.03501044596392689  1.0000
  H   H14       1.0  0.17466619523228394  0.6421854384733264  0.9650048877004525  1.0000
  H   H15       1.0  0.760171708179719  0.7139086686453311  0.8687125238845612  1.0000
  H   H16       1.0  0.23981969726746405  0.28607660922923367  0.13127235060932926  1.0000
  H   H17       1.0  0.9294857485267441  0.5649681195417315  0.8981938957874932  1.0000
  H   H18       1.0  0.07050787652828211  0.43501819788945534  0.1017874213928636  1.0000
  H   H19       1.0  0.9353311094976464  0.7466376830872434  0.91112923654611  1.0000
  H   H20       1.0  0.06466396507813951  0.25335293757694893  0.08884229154874392  1.0000
  H   H21       1.0  0.5675871012094691  0.481803940094373  0.3453407425387385  1.0000
  H   H22       1.0  0.4324338775096237  0.5182146013697562  0.6546580666327417  1.0000
  H   H23       1.0  0.6325784535604981  0.7429016128148902  0.3787690990167648  1.0000
  H   H24       1.0  0.36742980094633293  0.25712468833641106  0.6211961485639395  1.0000
  H   H25       1.0  0.6509483826836658  0.518997173646859  0.8819841757660146  1.0000
  H   H26       1.0  0.34904089080344397  0.4809664362464545  0.11802730212414055  1.0000
  H   H27       1.0  0.5860371247160786  0.35436801563156456  0.9425410908412604  1.0000
  H   H28       1.0  0.41395196943073387  0.6455956549215216  0.057491707159599136  1.0000
  C   C1        1.0  0.823855415095757  0.1420630781431385  0.47095387706246344  1.0000
  C   C2        1.0  0.17613250541716502  0.8579451901389418  0.5290537316872915  1.0000
  C   C3        1.0  0.7893279235819078  0.0883311521847716  0.6082073085540644  1.0000
  C   C4        1.0  0.2106595522515563  0.9116836675344044  0.3918040558026093  1.0000
  C   C5        1.0  0.9368021753268465  0.3244042379765729  0.5223758004401308  1.0000
  C   C6        1.0  0.06321002492337868  0.6755905137388895  0.4776262266448371  1.0000
  C   C7        1.0  0.8315863084002046  0.1509139633586472  0.7023012019939191  1.0000
  C   C8        1.0  0.16842068040672595  0.8491015713549642  0.2977010901354833  1.0000
  C   C9        1.0  0.7882380995807026  0.06878254933592838  0.36910919593015745  1.0000
  C   C10       1.0  0.21173401018631927  0.93122493558436  0.6309067186064682  1.0000
  C   C11       1.0  0.9059489472523766  0.27041372070853936  0.6596084394242114  1.0000
  C   C12       1.0  0.0940693117654945  0.7295961536298137  0.3403886278075632  1.0000
  C   C13       1.0  0.8033853533455898  0.08745858325081458  0.8477887818280225  1.0000
  C   C14       1.0  0.19660309986803529  0.9125573015713614  0.15222024979119916  1.0000
  C   C15       1.0  0.8994432305534588  0.2604500415626632  0.42753361228115966  1.0000
  C   C16       1.0  0.10055951216772027  0.7395481498965851  0.5724697859684158  1.0000
  C   C17       1.0  0.7714241172289179  0.6515215203062396  0.0774353636583599  1.0000
  C   C18       1.0  0.2285822422125817  0.348477632775257  0.9225448398787254  1.0000
  C   C19       1.0  0.6958192404271984  0.41354127198868434  0.07943265292744442  1.0000
  C   C20       1.0  0.3041780989961396  0.5864439719009057  0.9205790479480672  1.0000
  C   C21       1.0  0.8537811668459837  0.6699426730653713  0.9316571633788872  1.0000
  C   C22       1.0  0.14621413181816936  0.3300468707357425  0.06832031835705983  1.0000
  C   C23       1.0  0.6321895667127605  0.5588214131652761  0.27527220880435277  1.0000
  C   C24       1.0  0.367818022150054  0.44118211759531784  0.724724371237642  1.0000
  C   C25       1.0  0.6640667429208307  0.6868534085920076  0.29034990781658376  1.0000
  C   C26       1.0  0.33594558862382223  0.31317069528115843  0.7096352024693646  1.0000
  C   C27       1.0  0.5893800585466806  0.45693864120583083  0.973333645908781  1.0000
  C   C28       1.0  0.41060887158023013  0.5430358847483704  0.026685621326109334  1.0000
  N   N1        1.0  0.024136525266371226  0.44036270867822214  0.46813378163165725  1.0000
  N   N2        1.0  0.9758921218902544  0.5596252091279155  0.5318660140843647  1.0000
  N   N3        1.0  0.750735776662502  0.7432567431371877  0.16678956915711057  1.0000
  N   N4        1.0  0.24927092399865813  0.2567510923184386  0.8331822272245903  1.0000
  N   N5        1.0  0.700962694741257  0.537356384143358  0.1412585422604949  1.0000
  N   N6        1.0  0.2990442468035681  0.46264496880674233  0.8587337259128137  1.0000
  O   O1        1.0  0.8873745598950578  0.11632166677575381  0.9230251982586782  1.0000
  O   O2        1.0  0.11261678469988827  0.8836974271417615  0.07698168062787404  1.0000
  O   O3        1.0  0.853026315681511  0.10946007606703743  0.2443805546363222  1.0000
  O   O4        1.0  0.1469679902820928  0.8905176078897341  0.7556341107137501  1.0000
  O   O5        1.0  0.7015908433474253  0.9742921192918955  0.4082076560874769  1.0000
  O   O6        1.0  0.2983436990103884  0.025747632389162296  0.5918142334583011  1.0000
  O   O7        1.0  0.6989986187243744  0.007335204400412498  0.8953586514908807  1.0000
  O   O8        1.0  0.30099058778103677  0.9926828223878484  0.10464209374978857  1.0000
  O   O9        1.0  0.5078209799985772  0.09598956848492429  0.1985809944295909  1.0000
  O   O10       1.0  0.4921751308685743  0.90402069399947  0.8014129186770592  1.0000
  O   O11       1.0  0.13916817444977883  0.4289619329628636  0.35976251509521273  1.0000
  O   O12       1.0  0.8608861621890258  0.5710059850401095  0.6402596680350217  1.0000
