data_image0
_chemical_formula_structural       Co3H72C132N24
_chemical_formula_sum              "Co3 H72 C132 N24"
_cell_length_a       9.146534247779536
_cell_length_b       19.07598490759683
_cell_length_c       19.078845138186466
_cell_angle_alpha    117.48476457046272
_cell_angle_beta     99.20474898513987
_cell_angle_gamma    99.1940404335405

_space_group_name_H-M_alt    "P 1"
_space_group_IT_number       1

loop_
  _space_group_symop_operation_xyz
  'x, y, z'

loop_
  _atom_site_type_symbol
  _atom_site_label
  _atom_site_symmetry_multiplicity
  _atom_site_fract_x
  _atom_site_fract_y
  _atom_site_fract_z
  _atom_site_occupancy
  Co  Co1       1.0  0.5000009863904683  0.999998456781221  0.4999984759568865  1.0000
  Co  Co2       1.0  1.724013060343182e-06  0.500001260452777  0.5000010868739795  1.0000
  Co  Co3       1.0  0.49999957624280006  0.4999997304000914  0.9999994550442468  1.0000
  H   H1        1.0  0.9881417912174797  0.23413296640040226  0.5806964917278281  1.0000
  H   H2        1.0  0.08471668781108828  0.1478705234129762  0.6499988867278079  1.0000
  H   H3        1.0  0.8172212893807894  0.8868444832162937  0.6599939044794854  1.0000
  H   H4        1.0  0.529729277379907  0.7876947195107676  0.5993159468003598  1.0000
  H   H5        1.0  0.8542593781960903  0.18372751983390154  0.39597819782343907  1.0000
  H   H6        1.0  0.9540831592612947  0.31287431610719113  0.39520638451858064  1.0000
  H   H7        1.0  0.6448011157549871  0.32075159091465383  0.5850422727073623  1.0000
  H   H8        1.0  0.7524883785881968  0.4445215134097182  0.5760014585854665  1.0000
  H   H9        1.0  0.09785702946125957  0.9826526807865864  0.5638955682043804  1.0000
  H   H10       1.0  0.3456660697602346  0.9861688111675453  0.6408853237325548  1.0000
  H   H11       1.0  0.1781577360273658  0.05566035367483123  0.8562600105870716  1.0000
  H   H12       1.0  0.9258005335195704  0.04802021539016011  0.7770916854613221  1.0000
  H   H13       1.0  0.4070007267270555  0.41917863166744956  0.6534759298022834  1.0000
  H   H14       1.0  0.4343352741625424  0.34990462905486214  0.49795461465754454  1.0000
  H   H15       1.0  0.15729843910181532  0.3399455909169618  0.22694493468081606  1.0000
  H   H16       1.0  0.9305074998627277  0.4005980982674231  0.18837208972813366  1.0000
  H   H17       1.0  0.45814294637284547  0.6041564765823753  0.7878246342051016  1.0000
  H   H18       1.0  0.5586943042054531  0.6050532745307537  0.917818863085991  1.0000
  H   H19       1.0  0.059901658064525604  0.41482270681176214  0.7356940703909418  1.0000
  H   H20       1.0  0.17667468501905154  0.42390757110447913  0.8684956962285286  1.0000
  H   H21       1.0  0.5340395724689344  0.436228162581486  0.41919181879113426  1.0000
  H   H22       1.0  0.7051007282100629  0.3594497854591339  0.3457859691324786  1.0000
  H   H23       1.0  0.3224245817526922  0.1439759441397541  0.19948443246227046  1.0000
  H   H24       1.0  0.14897841095775285  0.22292827423033407  0.2708980666492097  1.0000
  H   H25       1.0  0.7539908305019479  0.34667520708509875  0.7659638685149945  1.0000
  H   H26       1.0  0.936706252780013  0.5022621127797251  0.8522060568436347  1.0000
  H   H27       1.0  0.9303359817265433  0.773149961447132  0.11318798817341534  1.0000
  H   H28       1.0  0.7420364738934921  0.8116202654990303  0.21232929368385114  1.0000
  H   H29       1.0  0.6703643783525804  0.21208023175660176  0.8163872138926254  1.0000
  H   H30       1.0  0.6410820698807312  0.08220088161407801  0.6872834769106931  1.0000
  H   H31       1.0  0.32470906467712984  0.2644653333763857  0.6791937882838683  1.0000
  H   H32       1.0  0.30857979234465926  0.13167769069069385  0.5554881364088546  1.0000
  H   H33       1.0  0.11513285524218023  0.581291198186861  0.017431503412524387  1.0000
  H   H34       1.0  0.359430762022683  0.654847858560082  0.014031727983173568  1.0000
  H   H35       1.0  0.12238701370308293  0.8007197778667106  0.9444574029744148  1.0000
  H   H36       1.0  0.8776432947080509  0.7291006900547574  0.9519569351393715  1.0000
  H   H37       1.0  0.011854641399360006  0.7658657992774922  0.41930416084309774  1.0000
  H   H38       1.0  0.9152816538819906  0.8521276292066419  0.35000110558413444  1.0000
  H   H39       1.0  0.1827768634408713  0.11315550864944161  0.34000797031158214  1.0000
  H   H40       1.0  0.47026819113405344  0.21230833771571164  0.4006893864500257  1.0000
  H   H41       1.0  0.14573514733231013  0.8162718592003274  0.6040210187336899  1.0000
  H   H42       1.0  0.04591358091429512  0.6871250628512374  0.6047935264148951  1.0000
  H   H43       1.0  0.3552044830093593  0.6792477877405505  0.41496041573146425  1.0000
  H   H44       1.0  0.24751752574710656  0.5554784782279614  0.42400258448869027  1.0000
  H   H45       1.0  0.9021468530738801  0.017345472276886705  0.4361017054687367  1.0000
  H   H46       1.0  0.6543363981410266  0.013828728690555203  0.35911208235575043  1.0000
  H   H47       1.0  0.821845347488349  0.9443384128188443  0.14373538815812045  1.0000
  H   H48       1.0  0.07420285407624053  0.951979163862447  0.22290664012379588  1.0000
  H   H49       1.0  0.5930005624241445  0.5808231998150434  0.3465254625891492  1.0000
  H   H50       1.0  0.5656685366976435  0.6500978155578426  0.5020472545409692  1.0000
  H   H51       1.0  0.842700327346499  0.6600556272862975  0.7730570290399259  1.0000
  H   H52       1.0  0.06949065196502609  0.5994018934492903  0.811630833199324  1.0000
  H   H53       1.0  0.5418564337021081  0.39584596795840116  0.21217741844531465  1.0000
  H   H54       1.0  0.4413030476089902  0.394947330467133  0.08218323304993912  1.0000
  H   H55       1.0  0.940099019447828  0.5851778986312655  0.2643051367980293  1.0000
  H   H56       1.0  0.8233231642194596  0.5760918080768391  0.13150272765442853  1.0000
  H   H57       1.0  0.46596725454261906  0.5637736688977811  0.5808099993706508  1.0000
  H   H58       1.0  0.2949043785966694  0.6405508198322921  0.6542146268091714  1.0000
  H   H59       1.0  0.677575906391283  0.856026500474883  0.8005171812740248  1.0000
  H   H60       1.0  0.8510257064672829  0.7770747835138752  0.7291041090482299  1.0000
  H   H61       1.0  0.24601458386353417  0.6533260114868543  0.2340359857891986  1.0000
  H   H62       1.0  0.06329805103170132  0.4977391053457867  0.14779685671565815  1.0000
  H   H63       1.0  0.06966328065499285  0.2268500307160154  0.8868118754989355  1.0000
  H   H64       1.0  0.257963895563158  0.18837972658896265  0.7876711792107687  1.0000
  H   H65       1.0  0.32963740921659473  0.7879203740583591  0.18360945810943027  1.0000
  H   H66       1.0  0.35891971619759017  0.917799723977332  0.31271476729595815  1.0000
  H   H67       1.0  0.6752825148840034  0.7355303670185125  0.32080245598918133  1.0000
  H   H68       1.0  0.691414308428513  0.868318622759901  0.44450910873947463  1.0000
  H   H69       1.0  0.8848620940475483  0.41871124628197987  0.9825707326898013  1.0000
  H   H70       1.0  0.6405629624984996  0.34515213360629826  0.9859677099188178  1.0000
  H   H71       1.0  0.877613357244421  0.19928021444482624  0.055541497715616145  1.0000
  H   H72       1.0  0.12235356614267093  0.2709011417283734  0.04804202036297774  1.0000
  C   C1        1.0  0.7641344370439711  0.13802214840988822  0.5328021901762626  1.0000
  C   C2        1.0  0.9236167476475927  0.17885358171194105  0.5766887023422457  1.0000
  C   C3        1.0  0.9724740812134699  0.13508957301212388  0.6110692910251673  1.0000
  C   C4        1.0  0.8429802593303181  0.06746905559023732  0.5881410648820735  1.0000
  C   C5        1.0  0.8463502311961548  0.012170998172145201  0.6169040096828342  1.0000
  C   C6        1.0  0.7156185984484935  0.9522411814589092  0.6003178966156073  1.0000
  C   C7        1.0  0.7173341168631495  0.89072684988264  0.6242071493484647  1.0000
  C   C8        1.0  0.572296970937579  0.8403012995814267  0.593017588071007  1.0000
  C   C9        1.0  0.48164311034209834  0.870777463225004  0.5498521634247528  1.0000
  C   C10       1.0  0.6729898909005101  0.16662966017617725  0.4918312789970401  1.0000
  C   C11       1.0  0.7427559918743472  0.24231052959686392  0.4917031183774655  1.0000
  C   C12       1.0  0.8316785936759105  0.240703979950503  0.43807159531903767  1.0000
  C   C13       1.0  0.8869591416770605  0.3125530667324058  0.4373913627311767  1.0000
  C   C14       1.0  0.714382902790746  0.31691558959790467  0.5426505260552973  1.0000
  C   C15       1.0  0.7739023919201955  0.38577795440016877  0.5376960854627486  1.0000
  C   C16       1.0  0.9949943966989566  0.015808512710549408  0.6652803026633409  1.0000
  C   C17       1.0  0.11488934302403929  0.99852614398467  0.627843500574841  1.0000
  C   C18       1.0  0.2544619757363833  0.00041678543592380007  0.6709619528699237  1.0000
  C   C19       1.0  0.2785707846489913  0.021643697090191  0.7537695980705552  1.0000
  C   C20       1.0  0.1591076182485338  0.03867585003007431  0.7919749858025185  1.0000
  C   C21       1.0  0.018586459180831103  0.035013330084545706  0.7475557000791968  1.0000
  C   C22       1.0  0.42714067209761464  0.028278460322965812  0.7973745627824017  1.0000
  C   C23       1.0  0.23107616634518283  0.46716988889133415  0.6052432034792335  1.0000
  C   C24       1.0  0.3465098587451437  0.42319666646550064  0.6021999259986475  1.0000
  C   C25       1.0  0.3610514151207269  0.38884638165195184  0.5240905404554257  1.0000
  C   C26       1.0  0.254642634124842  0.41183699718455813  0.47939502715424015  1.0000
  C   C27       1.0  0.22937964722056858  0.3830780459456023  0.3953491272952761  1.0000
  C   C28       1.0  0.11523368054520233  0.3996184423504659  0.35194632748268634  1.0000
  C   C29       1.0  0.0931243415536755  0.3757025455258259  0.26656354332948246  1.0000
  C   C30       1.0  0.9792989060938736  0.4068801457234913  0.24727746950410548  1.0000
  C   C31       1.0  0.9317439577695198  0.45005611262504186  0.3208821134519156  1.0000
  C   C32       1.0  0.18110755387372285  0.5082027505529824  0.6748476984571286  1.0000
  C   C33       1.0  0.2510640936178987  0.5082797704407014  0.7506308108335704  1.0000
  C   C34       1.0  0.39355314598529395  0.5620122295891294  0.8026872592417438  1.0000
  C   C35       1.0  0.44946698785651756  0.5627898018054794  0.8752678196566284  1.0000
  C   C36       1.0  0.17185512559593255  0.4572633677595022  0.7742605335488408  1.0000
  C   C37       1.0  0.23635438654853402  0.4622729628936499  0.8480959886995054  1.0000
  C   C38       1.0  0.32980004943986785  0.3347840379398549  0.35073193806952946  1.0000
  C   C39       1.0  0.4871718943167664  0.37229540653733306  0.3710638084025818  1.0000
  C   C40       1.0  0.583808307596513  0.32931891386301265  0.3298611032163664  1.0000
  C   C41       1.0  0.5252306090599178  0.24654887179193716  0.26816681929597064  1.0000
  C   C42       1.0  0.367560280569009  0.2082423551096397  0.24685751810750398  1.0000
  C   C43       1.0  0.27131743334606995  0.25253785422862773  0.2875706615455159  1.0000
  C   C44       1.0  0.6301548247114823  0.20299610586506844  0.23111811522504416  1.0000
  C   C45       1.0  0.6260866460969154  0.3948518584713839  0.8620282067584457  1.0000
  C   C46       1.0  0.7446912471268945  0.39794314361039085  0.8212108000883591  1.0000
  C   C47       1.0  0.8372419229729857  0.47610074378273753  0.8649588100597685  1.0000
  C   C48       1.0  0.7753296756851996  0.5207557769934041  0.9325327693308979  1.0000
  C   C49       1.0  0.8340222432667022  0.604791088234933  0.9878439525518491  1.0000
  C   C50       1.0  0.7632564821861508  0.6481336199706224  0.04777915652044152  1.0000
  C   C51       1.0  0.8265470502671376  0.733499292115404  0.109300201758515  1.0000
  C   C52       1.0  0.7319285795688587  0.7527355466861182  0.15970749681833504  1.0000
  C   C53       1.0  0.6107770936604383  0.679107103663604  0.1292339343319925  1.0000
  C   C54       1.0  0.506459048072017  0.32522350285625384  0.8333965673234263  1.0000
  C   C55       1.0  0.500707054046636  0.24943388759749763  0.7577482255274293  1.0000
  C   C56       1.0  0.5910163714161314  0.19730455323945514  0.7593865979184928  1.0000
  C   C57       1.0  0.5743860447318525  0.12475734518323382  0.6875817258256804  1.0000
  C   C58       1.0  0.3979749938967174  0.22585471359138154  0.6831057513915014  1.0000
  C   C59       1.0  0.3885950180764226  0.152030536489832  0.6142561359295229  1.0000
  C   C60       1.0  0.9790481493735541  0.64948904765879  0.9841932610513597  1.0000
  C   C61       1.0  0.11622978500471262  0.6293403973953746  0.0015096905008890591  1.0000
  C   C62       1.0  0.2539370275303697  0.6706251858371672  0.9997025047095963  1.0000
  C   C63       1.0  0.2568430406962606  0.7322336120392523  0.9784977708432695  1.0000
  C   C64       1.0  0.12030853106818289  0.753366988252232  0.9613887811530266  1.0000
  C   C65       1.0  0.983447779061109  0.712569432336153  0.9649771130886367  1.0000
  C   C66       1.0  0.3988427307565063  0.7692924376054509  0.9719898137358316  1.0000
  C   C67       1.0  0.23586470665023296  0.8619753912266079  0.4671965326544199  1.0000
  C   C68       1.0  0.07638190110728975  0.8211451841136895  0.4233110724004308  1.0000
  C   C69       1.0  0.02752617005280911  0.8649079666237257  0.38892951695959277  1.0000
  C   C70       1.0  0.15701938129100781  0.9325272581551759  0.41185450976382765  1.0000
  C   C71       1.0  0.15365223720206  0.9878265417604698  0.3830928723372796  1.0000
  C   C72       1.0  0.2843849770248426  0.04775635839854433  0.39967959462677544  1.0000
  C   C73       1.0  0.2826678546079435  0.10927191594105075  0.3757928808564302  1.0000
  C   C74       1.0  0.42770370359306753  0.15969930541452027  0.4069847635271416  1.0000
  C   C75       1.0  0.5183566454879055  0.12922130252546546  0.45014822054019293  1.0000
  C   C76       1.0  0.3270084507925759  0.8333684924434337  0.508168713314902  1.0000
  C   C77       1.0  0.2572451780925745  0.7576888492844631  0.5082976572404904  1.0000
  C   C78       1.0  0.16831925407175433  0.7592953990072788  0.5619284007685014  1.0000
  C   C79       1.0  0.11303981364267203  0.6874463122247293  0.5626087185104398  1.0000
  C   C80       1.0  0.28562048082946495  0.6830837890585857  0.4573519920753954  1.0000
  C   C81       1.0  0.22610129826486502  0.6142220373878259  0.46230673916686993  1.0000
  C   C82       1.0  0.005005243425422541  0.9841878009603561  0.33471579605075175  1.0000
  C   C83       1.0  0.8851109107269863  0.0014713960237529003  0.3721526870689331  1.0000
  C   C84       1.0  0.7455373583200927  0.9995789151779921  0.32903331527704477  1.0000
  C   C85       1.0  0.7214303882996378  0.9783556822382241  0.24622803313822345  1.0000
  C   C86       1.0  0.8408962657774526  0.9613223032569425  0.20802071566601663  1.0000
  C   C87       1.0  0.9814141016319979  0.9649848231298892  0.2524402699953116  1.0000
  C   C88       1.0  0.5728609942994825  0.971719692592771  0.2026235887189715  1.0000
  C   C89       1.0  0.7689257364326639  0.5328331689286757  0.3947582778418737  1.0000
  C   C90       1.0  0.6534942591768456  0.576806391353216  0.39780172563060046  1.0000
  C   C91       1.0  0.6389538098763836  0.6111566760916034  0.4759117203960913  1.0000
  C   C92       1.0  0.7453636984443434  0.5881660605583576  0.5206073188513473  1.0000
  C   C93       1.0  0.7706255777765422  0.6169250117979531  0.604653133556241  1.0000
  C   C94       1.0  0.8847679141769478  0.6003840021145025  0.6480564195440695  1.0000
  C   C95       1.0  0.9068741178328283  0.624298059471414  0.7334386379605251  1.0000
  C   C96       1.0  0.02069955279568366  0.5931204591992343  0.7527252358540938  1.0000
  C   C97       1.0  0.06825560918905894  0.5499444923715517  0.6791201529921553  1.0000
  C   C98       1.0  0.8188905999418383  0.4917972414617822  0.32515312819754183  1.0000
  C   C99       1.0  0.7489357813963836  0.49172144791093336  0.2493701899048448  1.0000
  C   C100      1.0  0.606445927524817  0.4379896018201423  0.19731448690973974  1.0000
  C   C101      1.0  0.5505309780815182  0.43721202960443867  0.12473384134077764  1.0000
  C   C102      1.0  0.8281439484111247  0.5427384637242838  0.22574068853444382  1.0000
  C   C103      1.0  0.7636432733216054  0.5377282554592783  0.15190484173077587  1.0000
  C   C104      1.0  0.6702040684821217  0.665219019878869  0.6492697135597114  1.0000
  C   C105      1.0  0.5128335185578621  0.6277058118110761  0.6289376181062  1.0000
  C   C106      1.0  0.4161964921484158  0.6706810782223943  0.6701397102945496  1.0000
  C   C107      1.0  0.4747730826159967  0.7534511202196017  0.7318344331290593  1.0000
  C   C108      1.0  0.6324432232293801  0.7917594762970523  0.7531445686602682  1.0000
  C   C109      1.0  0.7286877911540871  0.7474652034404203  0.7124321233741927  1.0000
  C   C110      1.0  0.36984714775351085  0.7970026601076513  0.7688808668434607  1.0000
  C   C111      1.0  0.3739126172785134  0.6051481338407997  0.1379706087775078  1.0000
  C   C112      1.0  0.25530862937823423  0.6020580749647877  0.1787886284454744  1.0000
  C   C113      1.0  0.16276047375028926  0.523901087699116  0.13504266748572777  1.0000
  C   C114      1.0  0.2246702003229829  0.47924544150726  0.06746718327112695  1.0000
  C   C115      1.0  0.16597541809428412  0.39521013034153907  0.012155305673836504  1.0000
  C   C116      1.0  0.2367422857530103  0.35186759845618104  0.9522212349957118  1.0000
  C   C117      1.0  0.17345282524409106  0.26650192631075253  0.8907002749117086  1.0000
  C   C118      1.0  0.2680732040247165  0.24726505853272587  0.8402933677292881  1.0000
  C   C119      1.0  0.38922278035993685  0.3208941145390087  0.8707681145428199  1.0000
  C   C120      1.0  0.49353799966232276  0.6747764893827012  0.16660260197259202  1.0000
  C   C121      1.0  0.4992907961857754  0.7505654917328572  0.24224915021913085  1.0000
  C   C122      1.0  0.4089822803204515  0.802694213033263  0.24061003241500625  1.0000
  C   C123      1.0  0.42561512821677644  0.8752420341451812  0.31241590538309816  1.0000
  C   C124      1.0  0.6020225492738973  0.7741440525329537  0.3168918419243172  1.0000
  C   C125      1.0  0.6114004978275744  0.8479663902406431  0.3857404527354193  1.0000
  C   C126      1.0  0.02094981855228895  0.3505127840491796  0.015806303673265666  1.0000
  C   C127      1.0  0.8837667672933521  0.37066082095820013  0.9984910547753147  1.0000
  C   C128      1.0  0.7460570020648093  0.32937541923717367  0.000298811895923727  1.0000
  C   C129      1.0  0.743149268694097  0.2677657668472477  0.021502323542108626  1.0000
  C   C130      1.0  0.8796877156589391  0.2466336171188743  0.038610609487847086  1.0000
  C   C131      1.0  0.01654846816295933  0.28743117310946803  0.035021753484038264  1.0000
  C   C132      1.0  0.6011516765815159  0.23070448897664167  0.02800773791143038  1.0000
  N   N1        1.0  0.7157181796137523  0.06932890930086442  0.5393366946955143  1.0000
  N   N2        1.0  0.5693495313485429  0.9401886311106299  0.5554747654972947  1.0000
  N   N3        1.0  0.85926714964301  0.3841306041526168  0.48613554517555735  1.0000
  N   N4        1.0  0.5523877504182336  0.0350972652069501  0.8300228425355416  1.0000
  N   N5        1.0  0.17622638953997696  0.46067426028524505  0.5300335283027524  1.0000
  N   N6        1.0  0.013813655212274576  0.44445767740886327  0.38469477636819976  1.0000
  N   N7        1.0  0.37313006507334723  0.5139785118137042  0.8980760304303036  1.0000
  N   N8        1.0  0.7225644552244715  0.17027208616526934  0.20518005931576516  1.0000
  N   N9        1.0  0.6462627793757606  0.47005887832013127  0.9306781677623877  1.0000
  N   N10       1.0  0.6290588812056654  0.6153337933647266  0.05982258566781705  1.0000
  N   N11       1.0  0.4753161054546383  0.10200065763366692  0.615950592564005  1.0000
  N   N12       1.0  0.5172877090422716  0.7952054245463104  0.9652649474887911  1.0000
  N   N13       1.0  0.2842806585095091  0.9306680173531563  0.46066067349983825  1.0000
  N   N14       1.0  0.43065213504855393  0.05980952180510712  0.4445233860040717  1.0000
  N   N15       1.0  0.14073482033722948  0.6158681614475371  0.5138660572339264  1.0000
  N   N16       1.0  0.44761231446136673  0.9649021140475968  0.16997522758735809  1.0000
  N   N17       1.0  0.8237760081771911  0.5393275713456307  0.46996690110635364  1.0000
  N   N18       1.0  0.9861876329450256  0.5555441539246077  0.615307664159616  1.0000
  N   N19       1.0  0.6268664867277708  0.4860227064653629  0.1019252389140989  1.0000
  N   N20       1.0  0.27743610260665713  0.8297260666020847  0.7948190551679277  1.0000
  N   N21       1.0  0.35373598955730057  0.5299423402557012  0.06932117561737536  1.0000
  N   N22       1.0  0.3709401928013918  0.38466803811905964  0.9401786364154676  1.0000
  N   N23       1.0  0.5246822387231945  0.8979974953585242  0.38404677940695126  1.0000
  N   N24       1.0  0.4827020306328151  0.20478659698506627  0.034729981858838244  1.0000
