data_image0
_chemical_formula_structural       Zn2H26C31N4O18
_chemical_formula_sum              "Zn2 H26 C31 N4 O18"
_cell_length_a       9.687868732872655
_cell_length_b       10.875671985809884
_cell_length_c       11.062344620316674
_cell_angle_alpha    90.80430092934083
_cell_angle_beta     91.2323878043858
_cell_angle_gamma    92.69717894083958

_space_group_name_H-M_alt    "P 1"
_space_group_IT_number       1

loop_
  _space_group_symop_operation_xyz
  'x, y, z'

loop_
  _atom_site_type_symbol
  _atom_site_label
  _atom_site_symmetry_multiplicity
  _atom_site_fract_x
  _atom_site_fract_y
  _atom_site_fract_z
  _atom_site_occupancy
  Zn  Zn1       1.0  0.6369468594690844  0.5083268963106562  0.5041811236533036  1.0000
  Zn  Zn2       1.0  0.3509467829472825  0.49570527848231893  0.4989101165002979  1.0000
  H   H1        1.0  0.33386687840732776  0.10292237719941968  0.3528053702056511  1.0000
  H   H2        1.0  0.1651017020087693  0.750804391430428  0.6325344308412824  1.0000
  H   H3        1.0  0.1398340948619605  0.6426653223885381  0.7503852171593763  1.0000
  H   H4        1.0  0.44329338360785886  0.1035545639920272  0.6795076180668645  1.0000
  H   H5        1.0  0.6227637099724531  0.1135594188197118  0.6546734650809185  1.0000
  H   H6        1.0  0.711454243030893  0.0975959106735758  0.4676227782716679  1.0000
  H   H7        1.0  0.32327646693583023  0.8865294040419087  0.3557344927133101  1.0000
  H   H8        1.0  0.2782556322143677  0.8877803233167256  0.506739924639021  1.0000
  H   H9        1.0  0.2741963826172266  0.10304625036170023  0.5014361433011274  1.0000
  H   H10       1.0  0.7355468248002026  0.936725773351874  0.6411462356879198  1.0000
  H   H11       1.0  0.6609994163872557  0.8016478627573633  0.6673486629088571  1.0000
  H   H12       1.0  0.27181576415088665  0.4913320754240047  0.8778688827048029  1.0000
  H   H13       1.0  0.5905845094296113  0.9241359739254447  0.0951526867833721  1.0000
  H   H14       1.0  0.552490388935162  0.2492302778376967  0.1799526647771899  1.0000
  H   H15       1.0  0.04667917972111009  0.523426137207025  0.127795365315535  1.0000
  H   H16       1.0  0.9927081042826058  0.3425599473795486  0.8044613946034217  1.0000
  H   H17       1.0  0.44907227228278396  0.8796523784257104  0.7803903711127163  1.0000
  H   H18       1.0  0.3264043551336684  0.9200049879474009  0.686342162045527  1.0000
  H   H19       1.0  0.8835184091024574  0.7900172050655456  0.3331297410286069  1.0000
  H   H20       1.0  0.8086125862622566  0.5628933013249054  0.1382787348575931  1.0000
  H   H21       1.0  0.7989843393581139  0.39754385015631033  0.12221564429345481  1.0000
  H   H22       1.0  0.8187152338697601  0.5838498953914595  0.9150517300987459  1.0000
  H   H23       1.0  0.1051561375490735  0.3493365928576964  0.37375036574098164  1.0000
  H   H24       1.0  0.8468374391585484  0.3583404160974197  0.3756352741595279  1.0000
  H   H25       1.0  0.9057170790293154  0.7732549609518745  0.6158780955261918  1.0000
  H   H26       1.0  0.8816676005424994  0.6705777737873221  0.7399945926361653  1.0000
  C   C1        1.0  0.49663654253690476  0.5110116347138742  0.7377103905200642  1.0000
  C   C2        1.0  0.6054726836299622  0.4855813696046384  0.0697707103317029  1.0000
  C   C3        1.0  0.7611179080868665  0.4840325637196515  0.08683723131363762  1.0000
  C   C4        1.0  0.4956462340549592  0.7412712026012757  0.4846665176335563  1.0000
  C   C5        1.0  0.7679194014670898  0.4968289542142442  0.9429606693366352  1.0000
  C   C6        1.0  0.0754994857272351  0.5699488246245323  0.5706527399384953  1.0000
  C   C7        1.0  0.05578767685339159  0.4151859474956083  0.4319638722826867  1.0000
  C   C8        1.0  0.9122642781673845  0.4219627876264483  0.4313244958335076  1.0000
  C   C9        1.0  0.9326046718628476  0.579355254764117  0.5674688578690237  1.0000
  C   C10       1.0  0.9370176278416977  0.6868307818211578  0.6559253578817135  1.0000
  C   C11       1.0  0.09965866964037667  0.6727011239034439  0.6627693965642791  1.0000
  C   C12       1.0  0.4951327587085999  0.12180081752004669  0.4909064498829352  1.0000
  C   C13       1.0  0.4791945037108363  0.4839600477338307  0.2658908066529406  1.0000
  C   C14       1.0  0.49678374931697533  0.2622074277281711  0.5022703875830317  1.0000
  C   C15       1.0  0.5252092911211149  0.9302630953258273  0.6199294661786396  1.0000
  C   C16       1.0  0.5237766368821538  0.07320290126078531  0.6187466652940969  1.0000
  C   C17       1.0  0.6052414728540327  0.9366952323199413  0.3894653043701695  1.0000
  C   C18       1.0  0.3538451241673286  0.9267191754332983  0.4440296728250885  1.0000
  C   C19       1.0  0.4967779916909477  0.8815804715819696  0.48241671373626366  1.0000
  C   C20       1.0  0.5589249384198993  0.8922112975032945  0.26012341564088354  1.0000
  C   C21       1.0  0.6433305823826316  0.16145703103274667  0.3028926320062695  1.0000
  C   C22       1.0  0.2181914915018055  0.4527142942956602  0.10662679619622391  1.0000
  C   C23       1.0  0.6166907411994487  0.0810179898591983  0.4126192438546354  1.0000
  C   C24       1.0  0.8284008966612928  0.389291255534168  0.8786135297429069  1.0000
  C   C25       1.0  0.7542081525010784  0.8904328905038098  0.404789759402611  1.0000
  C   C26       1.0  0.35467139586519636  0.0681263783675305  0.44358020940367027  1.0000
  C   C27       1.0  0.6114179963508874  0.49516663560287094  0.9447842271078812  1.0000
  C   C28       1.0  0.49338165547097645  0.5003838813491015  0.8718586371120977  1.0000
  C   C29       1.0  0.3669779199925856  0.49074668391756404  0.9321629094987216  1.0000
  C   C30       1.0  0.35998113845436547  0.47853994497280183  0.0576634707532264  1.0000
  C   C31       1.0  0.481448289764124  0.4799919120847491  0.13132992398750076  1.0000
  N   N1        1.0  0.14041990633148776  0.49030741282860657  0.5030096980894712  1.0000
  N   N2        1.0  0.8479290735568981  0.5065187993411513  0.4994366733933191  1.0000
  N   N3        1.0  0.6517248980252645  0.8942976028365875  0.6796802202813836  1.0000
  N   N4        1.0  0.4144780920382019  0.8724828701876887  0.6925931434861781  1.0000
  O   O1        1.0  0.615544893196855  0.5170303929515967  0.6901544248895988  1.0000
  O   O2        1.0  0.6191324559880016  0.9616721170371392  0.1733361818949675  1.0000
  O   O3        1.0  0.7583555333700716  0.19754565590198334  0.2717291762445342  1.0000
  O   O4        1.0  0.5256350644290323  0.19512427076863756  0.24659283918618508  1.0000
  O   O5        1.0  0.1723718501461846  0.3505266066262607  0.13344010408548  1.0000
  O   O6        1.0  0.1395644687369142  0.5533173296508666  0.1048556009691239  1.0000
  O   O7        1.0  0.7735519077719885  0.28687106368997917  0.8657499472385765  1.0000
  O   O8        1.0  0.9586223268007998  0.4189600769097838  0.8383471926548652  1.0000
  O   O9        1.0  0.8393428504592678  0.9284819354872197  0.4812914672617552  1.0000
  O   O10       1.0  0.7869074070868153  0.8089611570627825  0.3177002708263785  1.0000
  O   O11       1.0  0.380551841342033  0.5116870481748137  0.6822824449474539  1.0000
  O   O12       1.0  0.6139722841115256  0.6947094394120085  0.49765199362480667  1.0000
  O   O13       1.0  0.38053501826971103  0.6817912186442002  0.47999942119835026  1.0000
  O   O14       1.0  0.5967360495452921  0.49250341563606514  0.3200165111816915  1.0000
  O   O15       1.0  0.36175849208272837  0.48012964969437627  0.314544780383315  1.0000
  O   O16       1.0  0.6148379785469374  0.3189091086222646  0.5065315279183551  1.0000
  O   O17       1.0  0.38109090435545306  0.3112494033254052  0.5102585501677197  1.0000
  O   O18       1.0  0.484033071657862  0.8016624853130382  0.23677959301855372  1.0000
