data_image0
_chemical_formula_structural       Cd2H56C56N20O12
_chemical_formula_sum              "Cd2 H56 C56 N20 O12"
_cell_length_a       8.418056116
_cell_length_b       9.103613353958613
_cell_length_c       19.385
_cell_angle_alpha    90.0
_cell_angle_beta     90.0
_cell_angle_gamma    102.56500650515723

_space_group_name_H-M_alt    "P 1"
_space_group_IT_number       1

loop_
  _space_group_symop_operation_xyz
  'x, y, z'

loop_
  _atom_site_type_symbol
  _atom_site_label
  _atom_site_symmetry_multiplicity
  _atom_site_fract_x
  _atom_site_fract_y
  _atom_site_fract_z
  _atom_site_occupancy
  Cd  Cd1       1.0  0.0  0.0  0.5  1.0000
  Cd  Cd2       1.0  0.999998393845523  0.49999999459799227  0.99999948413722  1.0000
  H   H1        1.0  0.6952435953383044  0.1922879521134675  0.5402037657982959  1.0000
  H   H2        1.0  0.3047551921183924  0.3077086662277466  0.0402011864843956  1.0000
  H   H3        1.0  0.30475629473168914  0.807712037082517  0.4597972659272642  1.0000
  H   H4        1.0  0.6952423221061892  0.6922913229682308  0.9597977817900444  1.0000
  H   H5        1.0  0.04873149030753862  0.5732917766723133  0.6022589631158084  1.0000
  H   H6        1.0  0.951266332218793  0.9267082071216493  0.1022589631158084  1.0000
  H   H7        1.0  0.9512710403783728  0.4267093379425901  0.39774103688419166  1.0000
  H   H8        1.0  0.0487290709308823  0.0732929074932542  0.8977410368841916  1.0000
  H   H9        1.0  0.20004308672468343  0.3331408830958082  0.5785519731751378  1.0000
  H   H10       1.0  0.7999553071208467  0.16685911150217683  0.0785514573123578  1.0000
  H   H11       1.0  0.799958914420209  0.6668579806812429  0.42144802682486227  1.0000
  H   H12       1.0  0.20004154872205504  0.8331431285316526  0.9214480268248622  1.0000
  H   H13       1.0  0.6079346980960523  0.4346041517017483  0.5456254836213574  1.0000
  H   H14       1.0  0.3920634309789648  0.065394717477318  0.045623936033017315  1.0000
  H   H15       1.0  0.3920663798966473  0.5653958374942291  0.4543750322414226  1.0000
  H   H16       1.0  0.6079328953229108  0.9346052717186594  0.9543750322414226  1.0000
  H   H17       1.0  0.7575133296899068  0.6047416085325636  0.5574175909208137  1.0000
  H   H18       1.0  0.2424851512181121  0.895256124423554  0.0574165591952536  1.0000
  H   H19       1.0  0.24248656038007974  0.3952583806634137  0.4425834408047464  1.0000
  H   H20       1.0  0.7575111750837635  0.1047438647724306  0.9425824090791863  1.0000
  H   H21       1.0  0.8386625330472768  0.7044447219397367  0.6723420170234747  1.0000
  H   H22       1.0  0.1613395116288601  0.7955530110163807  0.17234150116069463  1.0000
  H   H23       1.0  0.1613373570227168  0.29555526725624043  0.32765798297652543  1.0000
  H   H24       1.0  0.8386610368228135  0.2044447273417518  0.8276579829765254  1.0000
  H   H25       1.0  0.7687060471274519  0.7137114213685221  0.7963760639669815  1.0000
  H   H26       1.0  0.2312978438530706  0.7862840607497431  0.2963750322414214  1.0000
  H   H27       1.0  0.2312983298628524  0.286287442408529  0.2036244518957986  1.0000
  H   H28       1.0  0.7687033629802826  0.21371142677053  0.7036244518957986  1.0000
  H   H29       1.0  0.5468408902233648  0.5172053991240091  0.8466267732783095  1.0000
  H   H30       1.0  0.45316260714599116  0.9827934592510346  0.3466252256899693  1.0000
  H   H31       1.0  0.4531625636147467  0.4827945900719754  0.1533747743100307  1.0000
  H   H32       1.0  0.5468388644578751  0.0172031536881647  0.6533732267216905  1.0000
  H   H33       1.0  0.4621609442400967  0.3049570169560241  0.6470399793654877  1.0000
  H   H34       1.0  0.5378371848349133  0.1950418522230351  0.1470384317771476  1.0000
  H   H35       1.0  0.5378410569047887  0.6950418468210273  0.3529620840856325  1.0000
  H   H36       1.0  0.46215979984864225  0.8049558861350903  0.8529615682228524  1.0000
  H   H37       1.0  0.2998215238423754  0.1978193861300355  0.740000515862782  1.0000
  H   H38       1.0  0.7001785874668798  0.3021828593058018  0.24000051586278204  1.0000
  H   H39       1.0  0.7001800836913503  0.8021828539037941  0.259999484137218  1.0000
  H   H40       1.0  0.2998213026031067  0.6978171298901756  0.759998968274438  1.0000
  H   H41       1.0  0.4043564661132065  0.21647207939365384  0.8204420944028854  1.0000
  H   H42       1.0  0.5956416629618033  0.2835267897854052  0.3204410626773253  1.0000
  H   H43       1.0  0.5956431591862666  0.7835267843833975  0.1795584214598946  1.0000
  H   H44       1.0  0.40435677441496404  0.7164720739916459  0.6795579055971146  1.0000
  H   H45       1.0  0.10390657261163479  0.40530949708294617  0.7225045137993291  1.0000
  H   H46       1.0  0.8960935386976202  0.094692748352891  0.22250399793654912  1.0000
  H   H47       1.0  0.8960950349220839  0.594692742950883  0.2774960020634509  1.0000
  H   H48       1.0  0.1039080688361054  0.9053094916809384  0.7774960020634509  1.0000
  H   H49       1.0  0.9284405683065344  0.5165931712287843  0.8245968532370398  1.0000
  H   H50       1.0  0.07156042437674869  0.9834101888219563  0.3245968532370398  1.0000
  H   H51       1.0  0.071560509686158  0.48340681796719304  0.17540366262574034  1.0000
  H   H52       1.0  0.928441447927483  0.016593176630792097  0.6754036626257403  1.0000
  H   H53       1.0  0.2860075918501934  0.3213780044912865  0.9184988393087465  1.0000
  H   H54       1.0  0.7139913315363556  0.17862424094455054  0.4184978075831793  1.0000
  H   H55       1.0  0.713993486142499  0.6786219847046908  0.08150167655403351  1.0000
  H   H56       1.0  0.28600763538144486  0.8213768736703527  0.5815016765540335  1.0000
  C   C1        1.0  0.8145466192049325  0.25991324990021514  0.5529754965179237  1.0000
  C   C2        1.0  0.1854524330222702  0.2400844938599249  0.0529729172040234  1.0000
  C   C3        1.0  0.18545419401724667  0.740085613876843  0.4470255352076364  1.0000
  C   C4        1.0  0.8145462691250103  0.7599154953360525  0.9470255352076364  1.0000
  C   C5        1.0  0.00042792982950601066  0.4580905192484153  0.5864622130513268  1.0000
  C   C6        1.0  0.9995690113227979  0.041908349930651  0.0864611813257667  1.0000
  C   C7        1.0  0.9995740713153866  0.541908344528643  0.41353778694867327  1.0000
  C   C8        1.0  0.00042639182687761714  0.9580927646842525  0.9135377869486732  1.0000
  C   C9        1.0  0.0731456875592897  0.33908422043894854  0.5741274181067838  1.0000
  C   C10       1.0  0.9268536294384333  0.1609146487401176  0.07412587051844352  1.0000
  C   C11       1.0  0.9268551256628966  0.6609146433381026  0.4258725818932163  1.0000
  C   C12       1.0  0.07314441432716726  0.8390875912937117  0.9258730977559965  1.0000
  C   C13       1.0  0.7087416394825468  0.4920545369872045  0.5782950735104464  1.0000
  C   C14       1.0  0.2912562248219572  0.0079432067729357  0.0782940417848863  1.0000
  C   C15       1.0  0.2912582505874397  0.507945452208773  0.4217064740778937  1.0000
  C   C16       1.0  0.7087410246321112  0.9920556570041155  0.9217054423523336  1.0000
  C   C17       1.0  0.6570177691297233  0.5026154681797834  0.6522017023471777  1.0000
  C   C18       1.0  0.34298124131932184  0.9973845156141863  0.1522006706216175  1.0000
  C   C19       1.0  0.3429830440924562  0.497383395597268  0.34779881351560255  1.0000
  C   C20       1.0  0.6570162729052597  0.0026154735817912  0.8477982976528226  1.0000
  C   C21       1.0  0.7424476234254554  0.6174588423855241  0.6943920557131804  1.0000
  C   C22       1.0  0.2575545571805335  0.8825445176652167  0.1943905081248403  1.0000
  C   C23       1.0  0.2575533257265831  0.3825456484861576  0.30560897601237974  1.0000
  C   C24       1.0  0.742447973505378  0.1174565969496868  0.8056074284240395  1.0000
  C   C25       1.0  0.7023652221162494  0.6228687311581922  0.7640165076089787  1.0000
  C   C26       1.0  0.29763682255988744  0.8771290017979252  0.2640154758834115  1.0000
  C   C27       1.0  0.29763677902864316  0.3771301326188592  0.23598349239102132  1.0000
  C   C28       1.0  0.7023637258917858  0.1228687365601999  0.7359834923910213  1.0000
  C   C29       1.0  0.5768544688289197  0.513507272536323  0.7920144441578572  1.0000
  C   C30       1.0  0.4231504812336553  0.9864927112576466  0.2920123807067299  1.0000
  C   C31       1.0  0.42314898500919174  0.4864927166596543  0.20798658756771  1.0000
  C   C32       1.0  0.576852972604449  0.0135072779383307  0.7079860717049229  1.0000
  C   C33       1.0  0.4887635918395716  0.3993098887935531  0.7498741294815546  1.0000
  C   C34       1.0  0.5112371778513634  0.1006901058044321  0.2498725818932144  1.0000
  C   C35       1.0  0.5112386740758339  0.6006901004024243  0.2501263863812255  1.0000
  C   C36       1.0  0.48876390014132914  0.8993098833915454  0.7501258705184455  1.0000
  C   C37       1.0  0.5288612077332003  0.3948937449316999  0.6800510704152671  1.0000
  C   C38       1.0  0.4711383740350286  0.10510624966629217  0.1800484911013669  1.0000
  C   C39       1.0  0.4711407934116849  0.6051051188453583  0.319950477173073  1.0000
  C   C40       1.0  0.52885887541904  0.8948926141107589  0.8199499613102931  1.0000
  C   C41       1.0  0.3549895238174017  0.2784556521091801  0.779932937838538  1.0000
  C   C42       1.0  0.6450112458735332  0.2215443424888122  0.279932421975758  1.0000
  C   C43       1.0  0.6450141947912231  0.7215454625057234  0.22006706216146202  1.0000
  C   C44       1.0  0.3549883794259401  0.7784545212882392  0.720067062161462  1.0000
  C   C45       1.0  0.11474439769100542  0.4066442439280422  0.7782821769409338  1.0000
  C   C46       1.0  0.8852554488477365  0.093356876088869  0.27828166107815383  1.0000
  C   C47       1.0  0.885256415531174  0.5933546198490092  0.22171833892184623  1.0000
  C   C48       1.0  0.11474497076328302  0.9066453639449605  0.7217183389218462  1.0000
  C   C49       1.0  0.029483618838199305  0.4611415299541974  0.8293623936033043  1.0000
  C   C50       1.0  0.9705167572415688  0.038861840900565894  0.3293623936033043  1.0000
  C   C51       1.0  0.9705150833090812  0.53885845924178  0.1706386381222629  1.0000
  C   C52       1.0  0.02948511506266977  0.9611415245521825  0.6706381222594757  1.0000
  C   C53       1.0  0.20804970796420008  0.3590086370878609  0.8808212535465573  1.0000
  C   C54       1.0  0.7919504033450551  0.1409936083479764  0.3808212535465572  1.0000
  C   C55       1.0  0.7919513700284994  0.6409913521081164  0.1191792623162229  1.0000
  C   C56       1.0  0.20804975149544447  0.8590075062669271  0.6191787464534428  1.0000
  N   N1        1.0  0.955925280821681  0.21637979504180288  0.5530379159143664  1.0000
  N   N2        1.0  0.044074300946547906  0.2836201995561893  0.05303585246324621  1.0000
  N   N3        1.0  0.04407460924830533  0.7836201941541745  0.4469625999484137  1.0000
  N   N4        1.0  0.9559237428190528  0.7163820404776402  0.9469631158111939  1.0000
  N   N5        1.0  0.8370527307817495  0.4060545244113243  0.5723930874387406  1.0000
  N   N6        1.0  0.16294750936815922  0.0939432193488159  0.0723915398504005  1.0000
  N   N7        1.0  0.1629495351336487  0.5939454647846532  0.4276074284240395  1.0000
  N   N8        1.0  0.8370511927791213  0.9060567698471615  0.9276074284240394  1.0000
  N   N9        1.0  0.22681808798810715  0.3412720348292239  0.8119638896053658  1.0000
  N   N10       1.0  0.7731817585506346  0.15872908518768716  0.31196337374258587  1.0000
  N   N11       1.0  0.7731829900045852  0.6587279543667532  0.1880366262574142  1.0000
  N   N12       1.0  0.22681813151935873  0.8412709040082902  0.6880361103946342  1.0000
  N   N13       1.0  0.08869450605201479  0.4303106785027139  0.8929497033789034  1.0000
  N   N14       1.0  0.9113056052572404  0.0696915669331233  0.3929497033789033  1.0000
  N   N15       1.0  0.9113063071701716  0.5696881852743372  0.1070508124838767  1.0000
  N   N16       1.0  0.08869481435377216  0.9303106731007061  0.6070502966210967  1.0000
  N   N17       1.0  0.6049841047973672  0.8179139596380054  0.5199210729945848  1.0000
  N   N18       1.0  0.3950129234174327  0.6820826478991862  0.0199210729945847  1.0000
  N   N19       1.0  0.3950164436543062  0.182083778720127  0.4800794428681954  1.0000
  N   N20       1.0  0.6049855139593346  0.3179162158778652  0.9800784111426354  1.0000
  O   O1        1.0  0.7386839669871604  0.8689539587264361  0.5520830539076584  1.0000
  O   O2        1.0  0.2613109501527404  0.6310437742296813  0.052080990456538204  1.0000
  O   O3        1.0  0.2613165814645129  0.1310437796316961  0.44791849368068176  1.0000
  O   O4        1.0  0.7386848466081021  0.3689539641284441  0.9479174619551217  1.0000
  O   O5        1.0  0.59007091135868  0.8510879332914172  0.45731183905081  1.0000
  O   O6        1.0  0.409931662858483  0.6489120505025525  0.95731183905081  1.0000
  O   O7        1.0  0.40993254247943156  0.1489120559045602  0.5426886768119701  1.0000
  O   O8        1.0  0.5900706030569224  0.351087938693432  0.04268816094919001  1.0000
  O   O9        1.0  0.4895726237565441  0.732807529688607  0.5519246840340486  1.0000
  O   O10       1.0  0.5104208406901378  0.7671890778485844  0.0519267474851688  1.0000
  O   O11       1.0  0.5104255488497172  0.2671902086695255  0.4480748001031714  1.0000
  O   O12       1.0  0.48957403291851875  0.23280978592846677  0.9480748001031714  1.0000
