data_image0
_chemical_formula_structural       Er2H26C24S4O28
_chemical_formula_sum              "Er2 H26 C24 S4 O28"
_cell_length_a       6.722861722268327
_cell_length_b       10.715394225923408
_cell_length_c       11.833320675668125
_cell_angle_alpha    97.7582773175163
_cell_angle_beta     89.99992592109429
_cell_angle_gamma    89.99648791289198

_space_group_name_H-M_alt    "P 1"
_space_group_IT_number       1

loop_
  _space_group_symop_operation_xyz
  'x, y, z'

loop_
  _atom_site_type_symbol
  _atom_site_label
  _atom_site_symmetry_multiplicity
  _atom_site_fract_x
  _atom_site_fract_y
  _atom_site_fract_z
  _atom_site_occupancy
  Er  Er1       1.0  0.2499974680465726  0.688140669060644  0.7734035673766471  1.0000
  Er  Er2       1.0  0.7500089029727023  0.3118548629237594  0.22659390535167737  1.0000
  H   H1        1.0  0.7500083210795407  0.9376418095053652  0.1735659206182731  1.0000
  H   H2        1.0  0.24997573853598  0.06234261824437942  0.8264438470545911  1.0000
  H   H3        1.0  0.9372173544916365  0.5494973690100906  0.8879139758204742  1.0000
  H   H4        1.0  0.4371757134388403  0.45052006557119745  0.11209247652698198  1.0000
  H   H5        1.0  0.06279645356645601  0.45050377662144575  0.1120815819550103  1.0000
  H   H6        1.0  0.5628187570497474  0.5494924923991462  0.8879119489638538  1.0000
  H   H7        1.0  0.9543180240943273  0.6839756621715125  0.9604944894488553  1.0000
  H   H8        1.0  0.45431343895241844  0.3160549527634231  0.03949480806803509  1.0000
  H   H9        1.0  0.0457047087821749  0.3160245292146016  0.03950011770497501  1.0000
  H   H10       1.0  0.5456869810792783  0.6839640746224376  0.9605018810564872  1.0000
  H   H11       1.0  0.1325987956449666  0.4297335050659612  0.7096972344968363  1.0000
  H   H12       1.0  0.6326117297818925  0.5702685210482983  0.290299392705883  1.0000
  H   H13       1.0  0.867417987266876  0.5702687543627006  0.2903102783920842  1.0000
  H   H14       1.0  0.36741249026054135  0.429737468471565  0.7097059970391938  1.0000
  H   H15       1.0  0.13519227890027713  0.6011704668945512  0.5266384616645678  1.0000
  H   H16       1.0  0.6351812268658817  0.3988229075468368  0.4733521356100851  1.0000
  H   H17       1.0  0.8647843421504434  0.3988401218332882  0.4733598301708639  1.0000
  H   H18       1.0  0.3647953950652862  0.6011697259433008  0.5266399459015857  1.0000
  H   H19       1.0  0.7500064122788287  0.8670713191901667  0.8379191552350774  1.0000
  H   H20       1.0  0.2499999584123813  0.1329308544051031  0.1620824321691714  1.0000
  H   H21       1.0  0.7499981664878064  0.26910652474506946  0.920388280833343  1.0000
  H   H22       1.0  0.24999779175161047  0.7309002841979007  0.0796087480655814  1.0000
  H   H23       1.0  0.7500142040639872  0.1951092439723254  0.5079426113533003  1.0000
  H   H24       1.0  0.24997877943025057  0.8048938347913505  0.49205654067731786  1.0000
  H   H25       1.0  0.7500031660202139  0.7919514125518035  0.426513163316983  1.0000
  H   H26       1.0  0.24998833029782466  0.20804594182578023  0.5734802851335417  1.0000
  C   C1        1.0  0.7500094129802051  0.9591698263992042  0.809385400508482  1.0000
  C   C2        1.0  0.25000439512034933  0.0408304020369243  0.1906117461752288  1.0000
  C   C3        1.0  0.7500051755589398  0.06440336866601369  0.8904323438653421  1.0000
  C   C4        1.0  0.2500160697571374  0.9355987554705009  0.10956585749097057  1.0000
  C   C5        1.0  0.7500126984813917  0.1860382917044632  0.8563822347759853  1.0000
  C   C6        1.0  0.2499951596274457  0.8139648113481288  0.14361861021784958  1.0000
  C   C7        1.0  0.7500255422338356  0.20030163289577976  0.7428299734668613  1.0000
  C   C8        1.0  0.24996149136216414  0.799702424637154  0.2571718221810356  1.0000
  C   C9        1.0  0.7500171380462747  0.10329350422867381  0.5375598240006738  1.0000
  C   C10       1.0  0.2499773331426312  0.8967048410332553  0.46243711454468434  1.0000
  C   C11       1.0  0.7500050562588638  0.9971845496039293  0.45625216280137687  1.0000
  C   C12       1.0  0.2499804903835425  0.0028091238182029  0.5437467947963768  1.0000
  C   C13       1.0  0.7500034884531247  0.875449336896068  0.4900004574939558  1.0000
  C   C14       1.0  0.2499999076408415  0.12454620743834248  0.5099978617443313  1.0000
  C   C15       1.0  0.7500053949844201  0.8637172185202003  0.6045905904821821  1.0000
  C   C16       1.0  0.2500024634541944  0.13627923063025094  0.395405293333873  1.0000
  C   C17       1.0  0.7500323266563882  0.09363105609460831  0.6555919541526833  1.0000
  C   C18       1.0  0.24996958146585507  0.906374884700604  0.34441004964570954  1.0000
  C   C19       1.0  0.7500164601151768  0.9703999563643962  0.6913710411477324  1.0000
  C   C20       1.0  0.24999288582942109  0.029595563270000007  0.3086255850706365  1.0000
  C   C21       1.0  0.7500098381564086  0.0533738630701066  0.0156274961549911  1.0000
  C   C22       1.0  0.25002330753044083  0.9466142202009704  0.9843750692494736  1.0000
  C   C23       1.0  0.7500111607156652  0.017518440974185992  0.33408230797325433  1.0000
  C   C24       1.0  0.24994612465384594  0.9824648980308198  0.6659171976547  1.0000
  S   S1        1.0  0.7500268579054961  0.35784211366780744  0.7092056946853376  1.0000
  S   S2        1.0  0.24996166305196968  0.6421638888480744  0.2908005416588039  1.0000
  S   S3        1.0  0.749999454408197  0.7093727790967036  0.6437243496022589  1.0000
  S   S4        1.0  0.2500098915381059  0.29062272824641877  0.3562714301142548  1.0000
  O   O1        1.0  0.7500017004923619  0.15785734156388292  0.081622807950275  1.0000
  O   O2        1.0  0.2500597073255761  0.8421232806732276  0.9183840036244246  1.0000
  O   O3        1.0  0.7500244782446258  0.9452597431366881  0.04812578085021362  1.0000
  O   O4        1.0  0.2499804058330355  0.054725318697968796  0.9518629283149521  1.0000
  O   O5        1.0  0.7500296923382521  0.12662557581881367  0.3092498147204807  1.0000
  O   O6        1.0  0.2498978438513646  0.8733567482478437  0.6907445078818099  1.0000
  O   O7        1.0  0.7499988558260428  0.9158499680975327  0.25838110925870683  1.0000
  O   O8        1.0  0.2499673543889429  0.0841316100881357  0.7416266531725455  1.0000
  O   O9        1.0  0.7500390267508692  0.44117466631775665  0.8192606988863883  1.0000
  O   O10       1.0  0.2499331323069  0.5588275939918362  0.1807468141240278  1.0000
  O   O11       1.0  0.5687300367804156  0.37025649884441236  0.6418754213946513  1.0000
  O   O12       1.0  0.0686718185808104  0.6297917163110398  0.35815004424230773  1.0000
  O   O13       1.0  0.43127187035110387  0.6297700258619656  0.35811956098422115  1.0000
  O   O14       1.0  0.9313226518872354  0.37022098915463897  0.6418645392708555  1.0000
  O   O15       1.0  0.9283805904234723  0.702186593796192  0.7156055203557371  1.0000
  O   O16       1.0  0.428393494779769  0.2977839030466924  0.28438223115893624  1.0000
  O   O17       1.0  0.0716257793143384  0.2978352833886646  0.2843931740427976  1.0000
  O   O18       1.0  0.571621801435306  0.7022030667209052  0.7156083791726005  1.0000
  O   O19       1.0  0.7500024164510891  0.6205803276644843  0.5404845261068019  1.0000
  O   O20       1.0  0.25001882918449786  0.37941521631755387  0.4595137930828841  1.0000
  O   O21       1.0  0.0314672912031568  0.6173838791735521  0.9168111299261951  1.0000
  O   O22       1.0  0.5314454536031832  0.3826336139591858  0.0831991482519996  1.0000
  O   O23       1.0  0.9685450296650443  0.38261164040211787  0.08318549628407372  1.0000
  O   O24       1.0  0.46855199197715786  0.6173752874620746  0.9168124793654896  1.0000
  O   O25       1.0  0.249988789986169  0.46931267851073954  0.7519850180098758  1.0000
  O   O26       1.0  0.7500205553992031  0.5306942039156156  0.24801708986376517  1.0000
  O   O27       1.0  0.24998887452932914  0.625449043489354  0.5754878832282913  1.0000
  O   O28       1.0  0.7499951843776529  0.3745502683386519  0.42451085244463366  1.0000
