data_image0
_chemical_formula_structural       Li4P4H20C8N12O20
_chemical_formula_sum              "Li4 P4 H20 C8 N12 O20"
_cell_length_a       6.785188910001967
_cell_length_b       7.1307410076329845
_cell_length_c       13.66502903892809
_cell_angle_alpha    91.4121230840247
_cell_angle_beta     89.99994215743676
_cell_angle_gamma    89.99993737096932

_space_group_name_H-M_alt    "P 1"
_space_group_IT_number       1

loop_
  _space_group_symop_operation_xyz
  'x, y, z'

loop_
  _atom_site_type_symbol
  _atom_site_label
  _atom_site_symmetry_multiplicity
  _atom_site_fract_x
  _atom_site_fract_y
  _atom_site_fract_z
  _atom_site_occupancy
  Li  Li1       1.0  0.8663423585773627  0.4250862704038454  0.2634720501578016  1.0000
  Li  Li2       1.0  0.3663388197146276  0.0749111702457199  0.23652755669854741  1.0000
  Li  Li3       1.0  0.13365770199619928  0.5749136076390116  0.736527568725535  1.0000
  Li  Li4       1.0  0.6336612408573855  0.9250901297534995  0.7634728021366899  1.0000
  P   P1        1.0  0.9479713510249183  0.2038468445924764  0.6616768401283579  1.0000
  P   P2        1.0  0.44797030367605833  0.29615897677193465  0.8383222011274541  1.0000
  P   P3        1.0  0.05203018334294279  0.7961600468109752  0.3383228186449331  1.0000
  P   P4        1.0  0.5520297568991168  0.7038380959263577  0.16167740179973578  1.0000
  H   H1        1.0  0.6838520575752653  0.22180755227577723  0.5491115042404006  1.0000
  H   H2        1.0  0.18384785654679803  0.27819292343998814  0.9508869105594613  1.0000
  H   H3        1.0  0.31614947679656064  0.7781937091544789  0.4508873906467699  1.0000
  H   H4        1.0  0.8161492564309328  0.721805551932171  0.049112700346562115  1.0000
  H   H5        1.0  0.19402644163709937  0.31544574623323035  0.3991422124459589  1.0000
  H   H6        1.0  0.694023211868341  0.18455747131825717  0.10085678400999142  1.0000
  H   H7        1.0  0.8059750927332914  0.6845541703769981  0.6008588703846769  1.0000
  H   H8        1.0  0.3059753749069003  0.8154424067253886  0.8991428348737217  1.0000
  H   H9        1.0  0.2855108204591943  0.1381432075520905  0.6761015969713143  1.0000
  H   H10       1.0  0.7855098881593462  0.36185996407141374  0.8238967808876723  1.0000
  H   H11       1.0  0.7144877663160542  0.8618566704915551  0.3238980219123988  1.0000
  H   H12       1.0  0.2144901724134698  0.6381399332555233  0.1761035699694986  1.0000
  H   H13       1.0  0.9827475933850847  0.10785759814323372  0.22157325211746584  1.0000
  H   H14       1.0  0.48275097893299085  0.3921397171930608  0.278426294167879  1.0000
  H   H15       1.0  0.0172509933901637  0.8921422799004122  0.7784263667662473  1.0000
  H   H16       1.0  0.5172520292349035  0.6078616020886543  0.7215747966404465  1.0000
  H   H17       1.0  0.9999954910146301  0.21822853413394944  0.12356914236445962  1.0000
  H   H18       1.0  0.49999733092715803  0.28176735996363783  0.3764303869686075  1.0000
  H   H19       1.0  1.4816478000000048e-07  0.7817699412390055  0.8764304685419548  1.0000
  H   H20       1.0  0.5000042034447816  0.7182311346902285  0.6235699559101137  1.0000
  C   C1        1.0  0.257858033914502  0.2257583737192661  0.5359041766754373  1.0000
  C   C2        1.0  0.757852497641359  0.2742462689152275  0.9640956874990965  1.0000
  C   C3        1.0  0.7421420266598702  0.7742401016513087  0.4640954342298258  1.0000
  C   C4        1.0  0.24214166773663237  0.725755050371248  0.0359054033115243  1.0000
  C   C5        1.0  0.9237304690191763  0.279864816014161  0.4669591039750572  1.0000
  C   C6        1.0  0.4237242270516433  0.2201353489193707  0.033039757003500404  1.0000
  C   C7        1.0  0.0762740129486517  0.7201336979222005  0.5330419708767451  1.0000
  C   C8        1.0  0.5762743597243514  0.7798645098401948  0.9669591299063711  1.0000
  N   N1        1.0  0.181241099564609  0.16947069850228053  0.6223597151342161  1.0000
  N   N2        1.0  0.6812356733192148  0.33052979930890564  0.8776394329983719  1.0000
  N   N3        1.0  0.8187619086071436  0.8305277575826225  0.3776391637964309  1.0000
  N   N4        1.0  0.31876143965857295  0.6694672926750657  0.12236090190342712  1.0000
  N   N5        1.0  0.12716753227067554  0.2847979705561272  0.4648400779479048  1.0000
  N   N6        1.0  0.6271643998816785  0.21520529968444185  0.035158221322909404  1.0000
  N   N7        1.0  0.8728354758994072  0.7152046742615282  0.5351580929431138  1.0000
  N   N8        1.0  0.37283418689442976  0.7847917922987336  0.9648421135785057  1.0000
  N   N9        1.0  0.8369177982360084  0.2258695728385618  0.5517948949261822  1.0000
  N   N10       1.0  0.33691360721849856  0.27413216005919594  0.9482041801808024  1.0000
  N   N11       1.0  0.163085209933385  0.7741317078749861  0.44820473193444604  1.0000
  N   N12       1.0  0.6630849795567499  0.7258677179844496  0.051795438702910715  1.0000
  O   O1        1.0  0.4376923975845841  0.2239772870619063  0.5178630627134808  1.0000
  O   O2        1.0  0.9376897705894008  0.27602293467947453  0.9821359519789185  1.0000
  O   O3        1.0  0.562312084384736  0.776021188306288  0.4821365481906312  1.0000
  O   O4        1.0  0.0623102899834791  0.7239755792592675  0.0178651228740279  1.0000
  O   O5        1.0  0.8258703102781125  0.32259888853669594  0.39358763387658513  1.0000
  O   O6        1.0  0.3258654430190475  0.17739855711333516  0.1064105300912672  1.0000
  O   O7        1.0  0.1741326978935263  0.6774023343245973  0.6064097970625185  1.0000
  O   O8        1.0  0.674131669957994  0.8225985541547159  0.8935905367843804  1.0000
  O   O9        1.0  0.8722948039271473  0.0313022761951629  0.7104505198314045  1.0000
  O   O10       1.0  0.3722995539482952  0.4686993993305677  0.7895478048916758  1.0000
  O   O11       1.0  0.1277008352506641  0.9686990045223492  0.2895491070311423  1.0000
  O   O12       1.0  0.6277019804243907  0.5312990760392112  0.2104518060132037  1.0000
  O   O13       1.0  0.9339082043717184  0.3838473017952921  0.7222055913718606  1.0000
  O   O14       1.0  0.43390748323901807  0.11615432669101008  0.7777934332671423  1.0000
  O   O15       1.0  0.0660918562002379  0.6161553815921224  0.2777940434676083  1.0000
  O   O16       1.0  0.566086682141389  0.8838427845786258  0.22220763360927262  1.0000
  O   O17       1.0  0.9179019248904224  0.20602828025357672  0.18238190234255575  1.0000
  O   O18       1.0  0.417905343076633  0.2939705075609496  0.31761768566203596  1.0000
  O   O19       1.0  0.0820981356823935  0.7939716170733604  0.8176184485146224  1.0000
  O   O20       1.0  0.5820976650921279  0.7060280256602879  0.6823841211639918  1.0000
