data_image0
_chemical_formula_structural       Sm4As4H24C28N4O36
_chemical_formula_sum              "Sm4 As4 H24 C28 N4 O36"
_cell_length_a       7.05526059297409
_cell_length_b       7.63837683530656
_cell_length_c       21.232002767035098
_cell_angle_alpha    89.99994977534912
_cell_angle_beta     89.99982286924723
_cell_angle_gamma    107.55973088842691

_space_group_name_H-M_alt    "P 1"
_space_group_IT_number       1

loop_
  _space_group_symop_operation_xyz
  'x, y, z'

loop_
  _atom_site_type_symbol
  _atom_site_label
  _atom_site_symmetry_multiplicity
  _atom_site_fract_x
  _atom_site_fract_y
  _atom_site_fract_z
  _atom_site_occupancy
  Sm  Sm1       1.0  0.7742358218300395  0.5826271358316433  0.04262902731144891  1.0000
  Sm  Sm2       1.0  0.725759036770519  0.9173699528661886  0.5426284628523704  1.0000
  Sm  Sm3       1.0  0.2257675321944035  0.4173728331655653  0.9573711139829798  1.0000
  Sm  Sm4       1.0  0.27422929527907064  0.08262324515686707  0.4573712074636944  1.0000
  As  As1       1.0  0.7539486617963435  0.48129708982698105  0.8906258347423802  1.0000
  As  As2       1.0  0.7460581881584077  0.0187074767278759  0.3906240933940026  1.0000
  As  As3       1.0  0.24606784092409842  0.5187082875326183  0.10937619049297351  1.0000
  As  As4       1.0  0.2539268209049154  0.9812884990906311  0.6093755769233127  1.0000
  H   H1        1.0  0.7101154624341105  0.8620713897839349  0.8651609357143357  1.0000
  H   H2        1.0  0.7898987761681014  0.6379375108778336  0.3651605246292888  1.0000
  H   H3        1.0  0.28990008575651416  0.1379353712206282  0.1348392055727743  1.0000
  H   H4        1.0  0.21009984096706089  0.3620652464320742  0.6348391456799902  1.0000
  H   H5        1.0  0.6993854154674681  0.0340550865193592  0.7672598042641923  1.0000
  H   H6        1.0  0.8006280055701325  0.46594874665884595  0.2672606910646991  1.0000
  H   H7        1.0  0.30063016853542723  0.965947544599153  0.23273986603642535  1.0000
  H   H8        1.0  0.19937439391662085  0.5340526059794116  0.7327389792428676  1.0000
  H   H9        1.0  0.7852090787059539  0.4114299223612789  0.7556875467404751  1.0000
  H   H10       1.0  0.7147931958687009  0.08856992901795017  0.2556872281748356  1.0000
  H   H11       1.0  0.2147886555055507  0.5885659588123815  0.24431259455747786  1.0000
  H   H12       1.0  0.2852082490777477  0.9114328072600555  0.7443124421330012  1.0000
  H   H13       1.0  0.7839988096547899  0.19519231443285884  0.8917538789351482  1.0000
  H   H14       1.0  0.7160000752718078  0.3048054223285987  0.39175349050978525  1.0000
  H   H15       1.0  0.21600175236013544  0.804803545704992  0.10824767532274392  1.0000
  H   H16       1.0  0.28399200332236774  0.6951905009114654  0.6082457088167956  1.0000
  H   H17       1.0  0.6790487691922423  0.18965684193130977  0.0789460138195466  1.0000
  H   H18       1.0  0.8209470274354232  0.31033991946924283  0.5789458569024646  1.0000
  H   H19       1.0  0.32094988375256156  0.8103417854912465  0.921053656490372  1.0000
  H   H20       1.0  0.1790464650643955  0.6896559932548668  0.4210533424233986  1.0000
  H   H21       1.0  0.49530151930623123  0.20032624178530506  0.037332980446720405  1.0000
  H   H22       1.0  0.004695288164910511  0.29967081642764276  0.5373317375943145  1.0000
  H   H23       1.0  0.5046994662722568  0.799675121367599  0.9626671608486961  1.0000
  H   H24       1.0  0.9952954123385143  0.7003209874436253  0.46266651975937395  1.0000
  C   C1        1.0  0.7494854045773707  0.6248141747531406  0.8166987327047013  1.0000
  C   C2        1.0  0.7505181344707808  0.875186818096857  0.3167001705707051  1.0000
  C   C3        1.0  0.2505221553674843  0.3751898925900718  0.18329905365128243  1.0000
  C   C4        1.0  0.24947535803691073  0.12480909463115349  0.6832976157937694  1.0000
  C   C5        1.0  0.7243764904000188  0.8021107240808052  0.8195675000150473  1.0000
  C   C6        1.0  0.775638292115417  0.697894298675088  0.31956849745731125  1.0000
  C   C7        1.0  0.2756395529655862  0.19789328016020136  0.1804326412722475  1.0000
  C   C8        1.0  0.22435986565440658  0.3021070855110181  0.6804311728524228  1.0000
  C   C9        1.0  0.7177937900433592  0.8975843650647233  0.7650917040748768  1.0000
  C   C10       1.0  0.7822215995719403  0.6024209587674176  0.26509272507897214  1.0000
  C   C11       1.0  0.2822217939621581  0.10241826605508922  0.23490749523861612  1.0000
  C   C12       1.0  0.21778171864548307  0.39758314011843504  0.7349069452276924  1.0000
  C   C13       1.0  0.7326324879504753  0.8249828077742902  0.7034060528913458  1.0000
  C   C14       1.0  0.7673760244190433  0.675025666328743  0.20340565308223554  1.0000
  C   C15       1.0  0.26737507197863414  0.17502125956112016  0.29659455938740825  1.0000
  C   C16       1.0  0.23262492534980336  0.3249798267115053  0.7965944882125486  1.0000
  C   C17       1.0  0.7588245340507669  0.6439711712533053  0.7034795422034392  1.0000
  C   C18       1.0  0.7411849678446316  0.8560317889139597  0.2034800537286188  1.0000
  C   C19       1.0  0.24118118842226008  0.35602740358950763  0.2965201281028627  1.0000
  C   C20       1.0  0.2588169722584226  0.14396819059138719  0.7965229134892909  1.0000
  C   C21       1.0  0.7660881919485263  0.5469782675260646  0.7592882316078332  1.0000
  C   C22       1.0  0.7339192740870574  0.9530243947142695  0.2592887197866389  1.0000
  C   C23       1.0  0.23391657598681093  0.4530216909577973  0.2407109677116139  1.0000
  C   C24       1.0  0.2660793430480979  0.046978362595630985  0.7407109505226401  1.0000
  C   C25       1.0  0.08559722542497641  0.0034419923116431  0.0234499337598777  1.0000
  C   C26       1.0  0.4144010790402959  0.496563391883562  0.523450564084257  1.0000
  C   C27       1.0  0.9144041836960852  0.9965648738458979  0.9765525624700901  1.0000
  C   C28       1.0  0.5855937557301374  0.5034407700914797  0.47655146116238006  1.0000
  N   N1        1.0  0.7759810313108417  0.5522790177122658  0.6470232629427599  1.0000
  N   N2        1.0  0.7240192024190221  0.9477243280899971  0.1470232919441727  1.0000
  N   N3        1.0  0.22401899973258574  0.4477237290829876  0.3529759363786696  1.0000
  N   N4        1.0  0.2759808286191543  0.0522784187026559  0.8529768493515134  1.0000
  O   O1        1.0  0.9565710103744748  0.5435389053514825  0.9393220223024629  1.0000
  O   O2        1.0  0.543426884598965  0.9564655712277743  0.4393208203785407  1.0000
  O   O3        1.0  0.04343273139601676  0.45647069654421557  0.0606781189902321  1.0000
  O   O4        1.0  0.45656427527241306  0.043527605768588315  0.5606769659875682  1.0000
  O   O5        1.0  0.5700895271828301  0.4810579764261931  0.9428612272497222  1.0000
  O   O6        1.0  0.9299044748344585  0.018947769192045893  0.4428630655746347  1.0000
  O   O7        1.0  0.42991428620694455  0.5189433656948168  0.057138914044252  1.0000
  O   O8        1.0  0.07008523531376203  0.981049548203714  0.5571361337529412  1.0000
  O   O9        1.0  0.7253428056156039  0.2609399927160112  0.8595402629248808  1.0000
  O   O10       1.0  0.7746596538646815  0.2390675339474484  0.3595407773092347  1.0000
  O   O11       1.0  0.27466238587017955  0.7390654687763887  0.1404598783677358  1.0000
  O   O12       1.0  0.22533380281499396  0.7609325086587972  0.6404603059645027  1.0000
  O   O13       1.0  0.77252316291694  0.3864687835603248  0.6499132680381053  1.0000
  O   O14       1.0  0.7274788765429393  0.11353166292719409  0.14991292856877445  1.0000
  O   O15       1.0  0.22747973174479338  0.6135298123143896  0.3500864022696462  1.0000
  O   O16       1.0  0.2725272694779052  0.8864724149228634  0.8500881546978294  1.0000
  O   O17       1.0  0.7966436324280154  0.6331128595649886  0.5949179335987367  1.0000
  O   O18       1.0  0.7033464017209923  0.8668839716877841  0.09491848039154153  1.0000
  O   O19       1.0  0.2033470322578949  0.36688307418971516  0.4050817367156939  1.0000
  O   O20       1.0  0.29664896404192836  0.13311330364026472  0.905082131894531  1.0000
  O   O21       1.0  0.7185306978386025  0.9171866361658019  0.6541021709674056  1.0000
  O   O22       1.0  0.7814713660813908  0.5828139032331735  0.1541022569797548  1.0000
  O   O23       1.0  0.2814698283771762  0.08281335386460849  0.34589749934133357  1.0000
  O   O24       1.0  0.21853103340536953  0.4171874494050839  0.8458974133278191  1.0000
  O   O25       1.0  0.07166157060900959  0.8578416278217915  0.05417983145650851  1.0000
  O   O26       1.0  0.4283295004433469  0.6421513655208672  0.5541791470330965  1.0000
  O   O27       1.0  0.9283365871476974  0.14215975635780606  0.9458221937888639  1.0000
  O   O28       1.0  0.5716541663257432  0.357836361034984  0.4458219362476046  1.0000
  O   O29       1.0  0.22344336976657087  0.15326491871987707  0.02815029098859871  1.0000
  O   O30       1.0  0.2765484154011659  0.34672534565628155  0.5281492259830145  1.0000
  O   O31       1.0  0.7765562018983942  0.8467364549450733  0.9718512632689239  1.0000
  O   O32       1.0  0.7234352871906893  0.6532582510187338  0.47184950236268014  1.0000
  O   O33       1.0  0.6407841767432244  0.25019408739678534  0.0415920346896996  1.0000
  O   O34       1.0  0.8592144046155141  0.24980148629444435  0.541592328811582  1.0000
  O   O35       1.0  0.3592182227435289  0.7498072652414721  0.958407635617867  1.0000
  O   O36       1.0  0.14077583652257178  0.750188944453022  0.45840592854255396  1.0000
