data_image0
_chemical_formula_structural       Zn2H22C30N2O12
_chemical_formula_sum              "Zn2 H22 C30 N2 O12"
_cell_length_a       5.2185723601625655
_cell_length_b       8.8470453530299
_cell_length_c       14.775908915145145
_cell_angle_alpha    92.59330630008795
_cell_angle_beta     89.99915597712523
_cell_angle_gamma    90.00035588637269

_space_group_name_H-M_alt    "P 1"
_space_group_IT_number       1

loop_
  _space_group_symop_operation_xyz
  'x, y, z'

loop_
  _atom_site_type_symbol
  _atom_site_label
  _atom_site_symmetry_multiplicity
  _atom_site_fract_x
  _atom_site_fract_y
  _atom_site_fract_z
  _atom_site_occupancy
  Zn  Zn1       1.0  0.4505544377429017  0.6226662202503874  0.33393779971570586  1.0000
  Zn  Zn2       1.0  0.549429416495272  0.12266323443655837  0.3339396911304746  1.0000
  H   H1        1.0  0.5237463183932078  0.044292336724659306  0.8591137586774594  1.0000
  H   H2        1.0  0.4762915329304319  0.5442930905880773  0.8591164008154593  1.0000
  H   H3        1.0  0.0767444057186566  0.9500133639612115  0.55263980604213  1.0000
  H   H4        1.0  0.9232644741012592  0.4500251014082933  0.5526469663926222  1.0000
  H   H5        1.0  0.0738047436051232  0.07366592807211698  0.7067166262233756  1.0000
  H   H6        1.0  0.926235918505313  0.5736793986206266  0.7067233996346047  1.0000
  H   H7        1.0  0.3704135928550585  0.8416338759684978  0.7657847055162392  1.0000
  H   H8        1.0  0.6296140291206312  0.34163239727040917  0.765776072282634  1.0000
  H   H9        1.0  0.37861186096393595  0.715557212007333  0.6115266553939945  1.0000
  H   H10       1.0  0.6213710189295013  0.21554436916265024  0.6115197421662444  1.0000
  H   H11       1.0  0.1471717957217749  0.06918863347328137  0.0483227175254086  1.0000
  H   H12       1.0  0.8528329448294159  0.5691815662505135  0.0483231452665294  1.0000
  H   H13       1.0  0.023660528595001996  0.19415491971481202  0.19519251137291604  1.0000
  H   H14       1.0  0.9763279298754881  0.6941527970629551  0.1951910927920295  1.0000
  H   H15       1.0  0.39004043633645574  0.4097852355323042  0.06495913041686663  1.0000
  H   H16       1.0  0.6099633749468368  0.909786471755062  0.0649570269766784  1.0000
  H   H17       1.0  0.49226250657878967  0.26831413982232993  0.9210766726339726  1.0000
  H   H18       1.0  0.5077425580558598  0.76831504957714  0.9210744173492815  1.0000
  H   H19       1.0  0.07576240497901669  0.4521534947721193  0.3767973749161158  1.0000
  H   H20       1.0  0.9242212291934847  0.9521545962122673  0.376796329349979  1.0000
  H   H21       1.0  0.9977588944898483  0.6316834651495425  0.3726247621065469  1.0000
  H   H22       1.0  0.0022215309491855  0.1316900208316625  0.3726284611302759  1.0000
  C   C1        1.0  0.7268498692433312  0.7515890789402918  0.48008968986992073  1.0000
  C   C2        1.0  0.2731196907015701  0.2515897387583905  0.4800911106461784  1.0000
  C   C3        1.0  0.7279674155172771  0.824356127873294  0.5723809029940128  1.0000
  C   C4        1.0  0.27202973674340564  0.32435117229267263  0.5723780941643284  1.0000
  C   C5        1.0  0.9231184549806386  0.9256805589894057  0.5997666614356518  1.0000
  C   C6        1.0  0.07688629340492528  0.42568060022169624  0.5997670599163528  1.0000
  C   C7        1.0  0.922695452700907  0.9947704140577825  0.686181989927718  1.0000
  C   C8        1.0  0.07733517711844232  0.494779500768921  0.6861833442169001  1.0000
  C   C9        1.0  0.7235265350354325  0.9634049217204038  0.746540068303716  1.0000
  C   C10       1.0  0.2765050878311825  0.4634055849202525  0.7465421484184773  1.0000
  C   C11       1.0  0.5270609612634445  0.8627742538877355  0.7192604871482828  1.0000
  C   C12       1.0  0.47295731979968986  0.3627756273119616  0.719255469809987  1.0000
  C   C13       1.0  0.5301072810762619  0.7937041290787334  0.6331049768946002  1.0000
  C   C14       1.0  0.46988702419803724  0.2936998352374118  0.6330997993239863  1.0000
  C   C15       1.0  0.9060611785774527  0.07881313504270078  0.8885175034010118  1.0000
  C   C16       1.0  0.0939662339837071  0.578810429679173  0.8885173017540923  1.0000
  C   C17       1.0  0.8280576243655344  0.15911948497106468  0.975235825749664  1.0000
  C   C18       1.0  0.1719402045558809  0.659111346874738  0.9752377540753159  1.0000
  C   C19       1.0  0.9782346246184089  0.14129937764243286  0.05272540802522491  1.0000
  C   C20       1.0  0.021768777826693505  0.6412975905792349  0.0527235824288397  1.0000
  C   C21       1.0  0.9101821171531768  0.2133018013469439  0.1349602516462198  1.0000
  C   C22       1.0  0.08981287884276411  0.7132911319640839  0.1349625311595233  1.0000
  C   C23       1.0  0.6991286572122206  0.3110326098066167  0.13905246766452004  1.0000
  C   C24       1.0  0.30086911655350695  0.8110362682173219  0.1390486735933507  1.0000
  C   C25       1.0  0.5524025183669607  0.3324031901834843  0.0612291345454707  1.0000
  C   C26       1.0  0.4475967987728424  0.8324027567841554  0.0612285059072519  1.0000
  C   C27       1.0  0.6120353328533028  0.25365860621278097  0.9804273986022735  1.0000
  C   C28       1.0  0.38797477548700937  0.7536545760151867  0.9804276470354409  1.0000
  C   C29       1.0  0.6298555300291538  0.3981235917935066  0.2241259918937217  1.0000
  C   C30       1.0  0.3701415435832089  0.8981240670569903  0.22412308979389917  1.0000
  N   N1        1.0  0.7056720377775036  0.03460894144437529  0.8333160192183728  1.0000
  N   N2        1.0  0.2943476211583658  0.5346102625397933  0.8333169242039349  1.0000
  O   O1        1.0  0.0923850444907188  0.5450059786015373  0.34092158492312313  1.0000
  O   O2        1.0  0.9076015324410491  0.0450098053599106  0.3409231668582038  1.0000
  O   O3        1.0  0.8979727538500271  0.7861394410767274  0.4228729108945686  1.0000
  O   O4        1.0  0.10200338093275717  0.28614178186448663  0.42287731008650553  1.0000
  O   O5        1.0  0.551606408042808  0.6525753196538061  0.4612430880576  1.0000
  O   O6        1.0  0.4483398953047697  0.15255617835251198  0.4612436525579255  1.0000
  O   O7        1.0  0.1345247596622841  0.05290179063610619  0.8693076779226416  1.0000
  O   O8        1.0  0.8654629367835368  0.5528834501718407  0.8693076889272789  1.0000
  O   O9        1.0  0.6111032853697083  0.3375068316031005  0.3004517880374351  1.0000
  O   O10       1.0  0.3888784791126695  0.8375118332994022  0.3004543429188474  1.0000
  O   O11       1.0  0.5875785727668088  0.5394430332389035  0.2172292752752014  1.0000
  O   O12       1.0  0.41241500213178023  0.0394374125526369  0.21722503408260965  1.0000
