data_image0
_chemical_formula_structural       Gd2Cu4H28C34Br4N4O14
_chemical_formula_sum              "Gd2 Cu4 H28 C34 Br4 N4 O14"
_cell_length_a       7.324921093980351
_cell_length_b       7.561949278917174
_cell_length_c       21.174033882957666
_cell_angle_alpha    90.08683600896194
_cell_angle_beta     88.59627051193189
_cell_angle_gamma    66.0643429062162

_space_group_name_H-M_alt    "P 1"
_space_group_IT_number       1

loop_
  _space_group_symop_operation_xyz
  'x, y, z'

loop_
  _atom_site_type_symbol
  _atom_site_label
  _atom_site_symmetry_multiplicity
  _atom_site_fract_x
  _atom_site_fract_y
  _atom_site_fract_z
  _atom_site_occupancy
  Gd  Gd1       1.0  0.24609145556999584  0.2506635090369898  0.486982883812523  1.0000
  Gd  Gd2       1.0  0.7539116791856134  0.7493832991882597  0.5130227884383061  1.0000
  Cu  Cu1       1.0  0.9835058178692864  0.647760622791779  0.035495379112049405  1.0000
  Cu  Cu2       1.0  0.016442647662259446  0.3521705485062299  0.9644932174563081  1.0000
  Cu  Cu3       1.0  0.003059532996317696  0.10901733261653133  0.0506706541868382  1.0000
  Cu  Cu4       1.0  0.9969457559904032  0.8909477096223027  0.949331129828245  1.0000
  H   H1        1.0  0.552266108943151  0.5861804063543374  0.7314478682288552  1.0000
  H   H2        1.0  0.44771861571629074  0.41379410524845645  0.2685488469434603  1.0000
  H   H3        1.0  0.6314056638919043  0.4395675812388333  0.8394168721757184  1.0000
  H   H4        1.0  0.3685768329429707  0.5604025937881403  0.16058038591075527  1.0000
  H   H5        1.0  0.3897605573171037  0.5837171929863771  0.9283975652421006  1.0000
  H   H6        1.0  0.6102329366899826  0.41625600077006203  0.0715995388908581  1.0000
  H   H7        1.0  0.9992492039494607  0.005691797135092692  0.8138598184485842  1.0000
  H   H8        1.0  0.0007469175856870158  0.9942978005171952  0.18614133639275818  1.0000
  H   H9        1.0  0.5145917013289322  0.8358836553122656  0.2749534770118273  1.0000
  H   H10       1.0  0.48540927140329876  0.1641072680796967  0.7250457199368796  1.0000
  H   H11       1.0  0.3650121725559431  0.0142808464313546  0.175912158125854  1.0000
  H   H12       1.0  0.6349835142973461  0.9857127506636376  0.8240851793576595  1.0000
  H   H13       1.0  0.565227128626994  0.9310457766599569  0.07536335259701589  1.0000
  H   H14       1.0  0.4347641618723017  0.0689229480649445  0.9246328780434822  1.0000
  H   H15       1.0  0.045022363839308424  0.5070895302183942  0.1616729018811967  1.0000
  H   H16       1.0  0.9549654390357394  0.49285842391783047  0.8383193335770046  1.0000
  H   H17       1.0  0.6948523743103507  0.6422641974712421  0.35639990196744975  1.0000
  H   H18       1.0  0.30515394263953505  0.3577590480414942  0.6436022029071322  1.0000
  H   H19       1.0  0.05958078219429554  0.4400253162144736  0.2669410652055859  1.0000
  H   H20       1.0  0.9404196423777623  0.5599702247468272  0.7330609242827961  1.0000
  H   H21       1.0  0.4903270400117705  0.7603822228261023  0.653138288382145  1.0000
  H   H22       1.0  0.509685545659096  0.2396297319715615  0.3468667007757773  1.0000
  H   H23       1.0  0.2901615260151617  0.8767140571124726  0.4409194297399138  1.0000
  H   H24       1.0  0.7098582495996768  0.1233188320291632  0.5590753364362939  1.0000
  H   H25       1.0  0.05348371231306719  0.9650987254586028  0.4358151296112567  1.0000
  H   H26       1.0  0.9465349060867185  0.034924293153025594  0.5641830609061884  1.0000
  H   H27       1.0  0.06729098791623042  0.031301939579570594  0.7018660716473305  1.0000
  H   H28       1.0  0.9327205079403317  0.9686839013177532  0.2981396770449791  1.0000
  C   C1        1.0  0.267701538673805  0.8095556850765888  0.763645085526008  1.0000
  C   C2        1.0  0.7322948582194259  0.19042365871347036  0.2363552291842126  1.0000
  C   C3        1.0  0.4489528605239174  0.6470421517828555  0.7715295303818691  1.0000
  C   C4        1.0  0.5510382692575534  0.35292388725130774  0.22846909286951697  1.0000
  C   C5        1.0  0.4938066329885375  0.5654730023685489  0.8307670990456089  1.0000
  C   C6        1.0  0.5061813982105934  0.4345002677039885  0.1692314825041095  1.0000
  C   C7        1.0  0.35874850519294926  0.6445344911984349  0.8812292853361186  1.0000
  C   C8        1.0  0.6412474245960456  0.3554490286419352  0.11876910055841709  1.0000
  C   C9        1.0  0.14041406649784702  0.8784932877470554  0.8170183416623188  1.0000
  C   C10       1.0  0.8595783474000741  0.1214890528442609  0.1829834032789179  1.0000
  C   C11       1.0  0.7952111115617059  0.6559407162773782  0.22643342844102676  1.0000
  C   C12       1.0  0.2047862899343472  0.3440457682000542  0.773565382403298  1.0000
  C   C13       1.0  0.5987698692522515  0.8006949992078276  0.2300942153580223  1.0000
  C   C14       1.0  0.40123613021202703  0.19930341603952684  0.769906736915928  1.0000
  C   C15       1.0  0.5153685042277162  0.8998622680845046  0.17564281327476997  1.0000
  C   C16       1.0  0.48462965338585234  0.1001255883317  0.8243550297056145  1.0000
  C   C17       1.0  0.6263665779441042  0.8548119615891566  0.11875775640874758  1.0000
  C   C18       1.0  0.3736183465670848  0.1451685836736516  0.8812412555748351  1.0000
  C   C19       1.0  0.8941904592116289  0.6205461571118818  0.167370784072304  1.0000
  C   C20       1.0  0.10579468531253873  0.37942087462322865  0.8326236426290805  1.0000
  C   C21       1.0  0.9848152366134145  0.43275651041582114  0.3870291211385037  1.0000
  C   C22       1.0  0.015194325025007172  0.5672975829402134  0.6129759305073534  1.0000
  C   C23       1.0  0.8448715854589681  0.5485612280304935  0.3393510232124726  1.0000
  C   C24       1.0  0.15514336583156316  0.4514543127606458  0.6606453967271904  1.0000
  C   C25       1.0  0.9061963627736419  0.5415702322335677  0.2785941878785607  1.0000
  C   C26       1.0  0.09380101184963513  0.4584322748546867  0.7214049270949374  1.0000
  C   C27       1.0  0.33905238714497465  0.8731688350895581  0.6528617884307977  1.0000
  C   C28       1.0  0.6609576075757531  0.1268459539366447  0.3471427271634653  1.0000
  C   C29       1.0  0.29481425262332556  0.9910144827189812  0.5958427876082624  1.0000
  C   C30       1.0  0.7052015168413776  0.009009214253296698  0.4041629875828292  1.0000
  C   C31       1.0  0.4544452332216196  0.551511983287611  0.4692435663297942  1.0000
  C   C32       1.0  0.5455633629479025  0.4485383173503338  0.5307676786041071  1.0000
  C   C33       1.0  0.21447705047896223  0.9112231114059879  0.703986518414517  1.0000
  C   C34       1.0  0.7855300601228026  0.08876954912767591  0.296014954608836  1.0000
  Br  Br1       1.0  0.24327098833163774  0.7765631978677235  0.0424934786176223  1.0000
  Br  Br2       1.0  0.7566888786687614  0.2234501005252412  0.9575012143387767  1.0000
  Br  Br3       1.0  0.22934720337917713  0.28930938001737166  0.05499915470582548  1.0000
  Br  Br4       1.0  0.7706485749861263  0.7106289676356494  0.9449826980549787  1.0000
  N   N1        1.0  0.18368478253783144  0.7990823372230337  0.8746990528715911  1.0000
  N   N2        1.0  0.8163063365820521  0.2008996361181588  0.1252989302378964  1.0000
  N   N3        1.0  0.8138257134676082  0.7160509158617997  0.11461673588741658  1.0000
  N   N4        1.0  0.18615903806460926  0.2839075731301719  0.8853796751557254  1.0000
  O   O1        1.0  0.5053256812604942  0.6867880899988208  0.45184655903825177  1.0000
  O   O2        1.0  0.4947021453243466  0.31324902605576455  0.5481613034845125  1.0000
  O   O3        1.0  0.44156045058495175  0.9632688391662542  0.5562657588111009  1.0000
  O   O4        1.0  0.5584523323816699  0.03676503944655  0.4437404148806507  1.0000
  O   O5        1.0  0.9284991145537521  0.4664527756259672  0.4467479648776518  1.0000
  O   O6        1.0  0.07151140444798199  0.5336051546000533  0.5532513656157008  1.0000
  O   O7        1.0  0.15627925469476622  0.30554860683634644  0.3730813431207878  1.0000
  O   O8        1.0  0.8437465793332282  0.6945217658531392  0.6269247738948492  1.0000
  O   O9        1.0  0.12375166698387835  0.12329899847443929  0.5842591096586317  1.0000
  O   O10       1.0  0.8762523735078815  0.8767201753738902  0.41574637094331723  1.0000
  O   O11       1.0  0.33608311552131925  0.497529930363605  0.44133362471959703  1.0000
  O   O12       1.0  0.6639010034878655  0.5025395765300119  0.5586838325823961  1.0000
  O   O13       1.0  0.1662282692933204  0.9947960459205802  0.44962637798009547  1.0000
  O   O14       1.0  0.8337917075673147  0.005239308152276602  0.5503636349075407  1.0000
