data_image0
_chemical_formula_structural       H36Pb4C24S4N8O8
_chemical_formula_sum              "H36 Pb4 C24 S4 N8 O8"
_cell_length_a       7.563708821060796
_cell_length_b       9.87092326406217
_cell_length_c       12.548464249713529
_cell_angle_alpha    106.14438552090573
_cell_angle_beta     90.00022280949081
_cell_angle_gamma    90.00032797810601

_space_group_name_H-M_alt    "P 1"
_space_group_IT_number       1

loop_
  _space_group_symop_operation_xyz
  'x, y, z'

loop_
  _atom_site_type_symbol
  _atom_site_label
  _atom_site_symmetry_multiplicity
  _atom_site_fract_x
  _atom_site_fract_y
  _atom_site_fract_z
  _atom_site_occupancy
  H   H1        1.0  0.3181737272899241  0.007881894329166497  0.9552384459154123  1.0000
  H   H2        1.0  0.8181749832554035  0.4921206830404754  0.5447660736830711  1.0000
  H   H3        1.0  0.6818241748050371  0.9921182051010289  0.044763789657587025  1.0000
  H   H4        1.0  0.1818255630256544  0.5078762431736265  0.4552338845001031  1.0000
  H   H5        1.0  0.527073873022708  0.16798279132920155  0.34944385316608617  1.0000
  H   H6        1.0  0.027077083285902904  0.3320178999816292  0.1505510917391248  1.0000
  H   H7        1.0  0.47292402907826414  0.8320215036113863  0.6505553015914953  1.0000
  H   H8        1.0  0.9729234629792459  0.6679800438949214  0.8494427103199909  1.0000
  H   H9        1.0  0.6287824072329898  0.0482359235531433  0.23292203395969574  1.0000
  H   H10       1.0  0.12877934085273776  0.4517632497494546  0.2670768098872358  1.0000
  H   H11       1.0  0.3712168169754193  0.9517694260493175  0.76707734798903  1.0000
  H   H12       1.0  0.8712159170028358  0.548231557884577  0.7329210980807231  1.0000
  H   H13       1.0  0.7797888061058487  0.28907976845145095  0.2958161042878444  1.0000
  H   H14       1.0  0.2797887987683865  0.21092130312788976  0.20418350682682976  1.0000
  H   H15       1.0  0.22021306228909762  0.710921362525667  0.7041823689104942  1.0000
  H   H16       1.0  0.7202117475165368  0.7890787685628879  0.7958139412662603  1.0000
  H   H17       1.0  0.8256435764798128  0.25478463680789787  0.42403044720241195  1.0000
  H   H18       1.0  0.3256443277354535  0.2452188048859512  0.07597058020459709  1.0000
  H   H19       1.0  0.17435696982444432  0.7452186081063629  0.5759692782852213  1.0000
  H   H20       1.0  0.6743575406547678  0.7547812714329891  0.9240276658049634  1.0000
  H   H21       1.0  0.07699705586824732  0.1778761682929968  0.3380962241312559  1.0000
  H   H22       1.0  0.576997775716066  0.3221258796914769  0.1619031160787756  1.0000
  H   H23       1.0  0.9230021683212614  0.8221249626767387  0.6619022490623577  1.0000
  H   H24       1.0  0.42300277058389923  0.6778752651553503  0.8380977508595177  1.0000
  H   H25       1.0  0.9875787857739339  0.11360369667299608  0.21067373835818154  1.0000
  H   H26       1.0  0.4875846215574883  0.386394321750707  0.289326505085583  1.0000
  H   H27       1.0  0.0124177942079839  0.88639638425564  0.7893253055560334  1.0000
  H   H28       1.0  0.5124106363169858  0.6136047045160565  0.7106723116374878  1.0000
  H   H29       1.0  0.41616721898426323  0.0779992463259163  0.6352452505783359  1.0000
  H   H30       1.0  0.9161673544477225  0.42200385074272617  0.8647548320066603  1.0000
  H   H31       1.0  0.5838293610139902  0.9220050486109839  0.3647539041768865  1.0000
  H   H32       1.0  0.0838345139648453  0.5779983580149095  0.13524785795098643  1.0000
  H   H33       1.0  0.3313189686549407  0.950232601273832  0.5339171104043102  1.0000
  H   H34       1.0  0.8313182557168801  0.5497723737761432  0.966081303812359  1.0000
  H   H35       1.0  0.6686789334460316  0.0497716936667558  0.4660820443532712  1.0000
  H   H36       1.0  0.16868229059682702  0.4502329804544799  0.03391887605283729  1.0000
  Pb  Pb1       1.0  0.9832945258971719  0.8841575269413224  0.3349531936118807  1.0000
  Pb  Pb2       1.0  0.4833001571019083  0.6158449473572886  0.1650493156353221  1.0000
  Pb  Pb3       1.0  0.016706020392902598  0.11584255399839088  0.6650458503094185  1.0000
  Pb  Pb4       1.0  0.5167056776119453  0.3841551567195296  0.8349537178659645  1.0000
  C   C1        1.0  0.2518189198659543  0.8158698203048473  0.06584842129878159  1.0000
  C   C2        1.0  0.7518229865768546  0.6841377119027712  0.43415861277768636  1.0000
  C   C3        1.0  0.7481829485491929  0.1841323930772631  0.934155066572977  1.0000
  C   C4        1.0  0.2481802039070615  0.3158592096942526  0.5658405474961227  1.0000
  C   C5        1.0  0.11963004466113601  0.9093393614528791  0.03123869188938499  1.0000
  C   C6        1.0  0.6196323030722722  0.5906600450336157  0.46876548117555206  1.0000
  C   C7        1.0  0.880373145852012  0.09066179727474119  0.9687645687959543  1.0000
  C   C8        1.0  0.38036956532397437  0.4093379497157627  0.531237097941087  1.0000
  C   C9        1.0  0.9385154068762207  0.9025656081344167  0.057247868341598035  1.0000
  C   C10       1.0  0.438517393679625  0.5974292333844032  0.4427528904253889  1.0000
  C   C11       1.0  0.061485139414294614  0.09743342739604799  0.9427525442191392  1.0000
  C   C12       1.0  0.5614871189220594  0.40256876137236475  0.5572496886959823  1.0000
  C   C13       1.0  0.17775588942821227  0.004214424831687299  0.9744349544424364  1.0000
  C   C14       1.0  0.6777530835688738  0.4957841948470048  0.5255667855506729  1.0000
  C   C15       1.0  0.8222446568674613  0.9957846199477134  0.025567053946517152  1.0000
  C   C16       1.0  0.3222487848222144  0.5042137906534379  0.4744341977377572  1.0000
  C   C17       1.0  0.6474946258884771  0.1055039516159155  0.32068909860464595  1.0000
  C   C18       1.0  0.14749585018722663  0.3944974309279559  0.17930946863754121  1.0000
  C   C19       1.0  0.35250459831778613  0.8945003479528282  0.6793108540694062  1.0000
  C   C20       1.0  0.8525020518896727  0.6055026361309712  0.8206871815367123  1.0000
  C   C21       1.0  0.8064567449843026  0.2042914534037337  0.3351304084765232  1.0000
  C   C22       1.0  0.3064558056961176  0.295710826438352  0.16487032311709976  1.0000
  C   C23       1.0  0.1935424792099312  0.7957107322241868  0.6648682919058685  1.0000
  C   C24       1.0  0.6935407742832211  0.7042892498658162  0.8351279228830036  1.0000
  S   S1        1.0  0.856712695387188  0.7802251835560908  0.12379217347102409  1.0000
  S   S2        1.0  0.35671253787396756  0.7197713148998017  0.37620954501687714  1.0000
  S   S3        1.0  0.14329049509974112  0.21977069725615186  0.8762091533563207  1.0000
  S   S4        1.0  0.6432906526228522  0.2802256298195545  0.6237936048274546  1.0000
  N   N1        1.0  0.9701947782279277  0.12798681458128408  0.29369495044881677  1.0000
  N   N2        1.0  0.4701973275977665  0.37201426606608823  0.20630511446749006  1.0000
  N   N3        1.0  0.029804445954710004  0.8720122116965568  0.7063038662813382  1.0000
  N   N4        1.0  0.529799252386738  0.6279858194870158  0.7936947273608224  1.0000
  N   N5        1.0  0.6772602477266433  0.0006619770654409992  0.3825133911679116  1.0000
  N   N6        1.0  0.17726583591861103  0.4993416949685494  0.11748813065852906  1.0000
  N   N7        1.0  0.32273633226945714  0.9993412678377424  0.6174863343126373  1.0000
  N   N8        1.0  0.8227360324935235  0.5006615591983348  0.8825131906596793  1.0000
  O   O1        1.0  0.3255155300833082  0.7193225742481104  0.9908848184866341  1.0000
  O   O2        1.0  0.8255083439214844  0.7806654845825349  0.5091083441138337  1.0000
  O   O3        1.0  0.6744850161930246  0.28067329730780693  0.009114912507769203  1.0000
  O   O4        1.0  0.17448691396073457  0.21933355555762551  0.4908928663515509  1.0000
  O   O5        1.0  0.28133793489521264  0.8404852783216226  0.16996083946739296  1.0000
  O   O6        1.0  0.7813385021061662  0.6595128898673223  0.3300378721655476  1.0000
  O   O7        1.0  0.7186652556179285  0.1595158804059977  0.8300424212179462  1.0000
  O   O8        1.0  0.21866468837603753  0.3404819362867356  0.669963227473019  1.0000
