data_image0
_chemical_formula_structural       Na12In4H24C24O48
_chemical_formula_sum              "Na12 In4 H24 C24 O48"
_cell_length_a       6.434103109012962
_cell_length_b       14.209664524031602
_cell_length_c       14.59809988302493
_cell_angle_alpha    89.99984363498366
_cell_angle_beta     89.99985979321464
_cell_angle_gamma    90.0001843127799

_space_group_name_H-M_alt    "P 1"
_space_group_IT_number       1

loop_
  _space_group_symop_operation_xyz
  'x, y, z'

loop_
  _atom_site_type_symbol
  _atom_site_label
  _atom_site_symmetry_multiplicity
  _atom_site_fract_x
  _atom_site_fract_y
  _atom_site_fract_z
  _atom_site_occupancy
  Na  Na1       1.0  0.2703711583886986  0.21788570240003932  0.5022580851697852  1.0000
  Na  Na2       1.0  0.2296259358829431  0.21788638236668595  0.9977424546857063  1.0000
  Na  Na3       1.0  0.7703696041576221  0.28211278153585806  0.4977420778919849  1.0000
  Na  Na4       1.0  0.7296271676843206  0.28211344990788945  0.0022584367788098998  1.0000
  Na  Na5       1.0  0.7296275565839921  0.7821140002668514  0.4977414386734295  1.0000
  Na  Na6       1.0  0.7703727790928382  0.7821147277920062  0.0022577541763055997  1.0000
  Na  Na7       1.0  0.22963066502688892  0.7178862173838498  0.502258815992647  1.0000
  Na  Na8       1.0  0.27037310150462457  0.7178862527591648  0.9977417720842394  1.0000
  Na  Na9       1.0  0.7500014483617221  0.9233710415974913  0.24999940970887014  1.0000
  Na  Na10      1.0  0.2500006027396465  0.5766285018843575  0.7500001382455108  1.0000
  Na  Na11      1.0  0.2499988208310739  0.0766286610714957  0.7499994291128615  1.0000
  Na  Na12      1.0  0.749999666446783  0.42337049703631635  0.2500000706184692  1.0000
  In  In1       1.0  0.2500001842313253  0.0647564601680202  0.2500001258182891  1.0000
  In  In2       1.0  0.7499998572627787  0.4352426979399483  0.7500000589328761  1.0000
  In  In3       1.0  0.7500000849601206  0.9352439462454141  0.7500000830438294  1.0000
  In  In4       1.0  0.2500004119211495  0.5647555972343382  0.2500001499320348  1.0000
  H   H1        1.0  0.17165776735016894  0.9263240160986186  0.4127380165787286  1.0000
  H   H2        1.0  0.3283456336280253  0.9263245883131644  0.08726132742946648  1.0000
  H   H3        1.0  0.6716588867488156  0.5736761173893113  0.5872616147938672  1.0000
  H   H4        1.0  0.8283418144871109  0.5736764764036764  0.9127367670625828  1.0000
  H   H5        1.0  0.8283425018437924  0.0736770940612033  0.587262192282459  1.0000
  H   H6        1.0  0.6716561897829434  0.073675114356945  0.9127375113914409  1.0000
  H   H7        1.0  0.328335165564333  0.4263221777814293  0.4127379090536891  1.0000
  H   H8        1.0  0.1716569004919393  0.4263239300115273  0.08726138673838338  1.0000
  H   H9        1.0  0.5028364438034529  0.24370812459179805  0.22454712706689145  1.0000
  H   H10       1.0  0.9971709338293309  0.24370841172866164  0.2754534891265336  1.0000
  H   H11       1.0  0.0028351814126211  0.2562899709283428  0.7754540058858196  1.0000
  H   H12       1.0  0.4971637408016249  0.25628899398419946  0.7245471174648088  1.0000
  H   H13       1.0  0.49716693382049465  0.7562922818219706  0.7754544518348894  1.0000
  H   H14       1.0  0.0028355522298114  0.7562905871965243  0.7245467197341353  1.0000
  H   H15       1.0  0.9971666419825382  0.7437069167533394  0.22454688800078054  1.0000
  H   H16       1.0  0.5028334199534683  0.7437114124269825  0.2754530913989654  1.0000
  H   H17       1.0  0.7208408134738422  0.0689072692766572  0.41245936911298736  1.0000
  H   H18       1.0  0.7791591013717608  0.0689084730432015  0.08754102417162807  1.0000
  H   H19       1.0  0.22084029939436786  0.43109255024310034  0.5875408466861884  1.0000
  H   H20       1.0  0.2791598687596135  0.43109213489405834  0.9124577594874167  1.0000
  H   H21       1.0  0.2791579014974985  0.9310931371346811  0.5875415247706213  1.0000
  H   H22       1.0  0.2208411678216109  0.9310919333711993  0.9124584996698315  1.0000
  H   H23       1.0  0.7791568613645766  0.5689078561700073  0.41245799213626794  1.0000
  H   H24       1.0  0.7208404004262408  0.5689061602811946  0.08754176435683549  1.0000
  C   C1        1.0  0.3366908616262875  0.9114694795034881  0.39695027722557796  1.0000
  C   C2        1.0  0.1633108792591784  0.9114704713865152  0.10304842103221286  1.0000
  C   C3        1.0  0.8366919981320463  0.5885308935844977  0.6030491784201004  1.0000
  C   C4        1.0  0.6633088089803536  0.5885303537301072  0.8969491641669333  1.0000
  C   C5        1.0  0.6633062991262975  0.0885302231613068  0.6030499316391271  1.0000
  C   C6        1.0  0.8366924983724715  0.08852993503110441  0.8969504177869396  1.0000
  C   C7        1.0  0.1633004999654375  0.41146810533150097  0.39695034542736346  1.0000
  C   C8        1.0  0.33669146021244256  0.41146934893887294  0.1030496746547982  1.0000
  C   C9        1.0  0.5032154441400679  0.23945105591703006  0.3005679851301508  1.0000
  C   C10       1.0  0.9967919031461392  0.23945085292507431  0.19943332733871694  1.0000
  C   C11       1.0  0.0032146395510465994  0.2605484476464568  0.6994331474168973  1.0000
  C   C12       1.0  0.4967843130178835  0.2605479597290028  0.8005679646752242  1.0000
  C   C13       1.0  0.496789487704568  0.7605500542442485  0.699433593769875  1.0000
  C   C14       1.0  0.0032161371317584995  0.760548849746655  0.8005675665408489  1.0000
  C   C15       1.0  0.9967871838485465  0.7394491437825792  0.3005670614481133  1.0000
  C   C16       1.0  0.5032128477372098  0.7394524466821792  0.19943224418855007  1.0000
  C   C17       1.0  0.8843120381989279  0.08686279677157671  0.3956803623291307  1.0000
  C   C18       1.0  0.6156880046289217  0.08686441968198719  0.10431998348705919  1.0000
  C   C19       1.0  0.3843128560099913  0.4131365563352388  0.604319679406423  1.0000
  C   C20       1.0  0.1156871841578919  0.4131366546662818  0.8956803442769186  1.0000
  C   C21       1.0  0.11568823099251799  0.9131376096418576  0.604319846532988  1.0000
  C   C22       1.0  0.3843122645694664  0.9131373942251815  0.8956795403525387  1.0000
  C   C23       1.0  0.615687413185313  0.5868638500801281  0.39567915941437787  1.0000
  C   C24       1.0  0.8843115308084392  0.5868623442522961  0.10432054960854487  1.0000
  O   O1        1.0  0.41924662294726994  0.9583940345035274  0.3303572579373863  1.0000
  O   O2        1.0  0.08075545240343729  0.9583954226691347  0.1696406312478018  1.0000
  O   O3        1.0  0.9192454963307949  0.541605754694352  0.669641424784558  1.0000
  O   O4        1.0  0.5807534220950998  0.5416045788446624  0.8303570418571053  1.0000
  O   O5        1.0  0.5807536462436005  0.0416056681644932  0.6696422659050041  1.0000
  O   O6        1.0  0.9192479252212706  0.041603576254758  0.8303588925938639  1.0000
  O   O7        1.0  0.0807470017686072  0.4583932442226129  0.3303574140422468  1.0000
  O   O8        1.0  0.419246847095188  0.45839442007793707  0.16964179696555695  1.0000
  O   O9        1.0  0.39046745851760534  0.1741538140219703  0.3374722494228166  1.0000
  O   O10       1.0  0.1095367981284028  0.17415456026593287  0.16252839802504576  1.0000
  O   O11       1.0  0.8904652894273185  0.32584554801834303  0.6625284707807138  1.0000
  O   O12       1.0  0.6095336453518172  0.3258450976573711  0.8374719362918268  1.0000
  O   O13       1.0  0.6095374733270306  0.8258472961393011  0.6625293294772092  1.0000
  O   O14       1.0  0.8904665795038297  0.8258465498971079  0.8374711258138274  1.0000
  O   O15       1.0  0.10953187131581639  0.6741520434063447  0.3374724231074424  1.0000
  O   O16       1.0  0.3904666238396288  0.6741553087560633  0.16252827257029168  1.0000
  O   O17       1.0  0.9547166146200537  0.04371977663495131  0.32418340566615456  1.0000
  O   O18       1.0  0.5452862291301983  0.04372039216058001  0.17581773922479013  1.0000
  O   O19       1.0  0.4547157837055096  0.4562803824315864  0.6758172461233513  1.0000
  O   O20       1.0  0.045284563974391304  0.4562798762292672  0.8241826635042386  1.0000
  O   O21       1.0  0.04528365456946659  0.9562806297775239  0.6758174882166228  1.0000
  O   O22       1.0  0.4547155942844441  0.956281421746745  0.8241824696346425  1.0000
  O   O23       1.0  0.545282931267181  0.5437193202353043  0.32418227771986335  1.0000
  O   O24       1.0  0.9547157052164722  0.5437198264387534  0.17581686033815194  1.0000
  O   O25       1.0  0.4311496815351177  0.8509909271338785  0.4426343346169687  1.0000
  O   O26       1.0  0.0688531824964969  0.8509919105813353  0.057365208543913596  1.0000
  O   O27       1.0  0.931149951766379  0.6490102868361091  0.5573663904899888  1.0000
  O   O28       1.0  0.5688497322004551  0.6490087773987059  0.9426317922136744  1.0000
  O   O29       1.0  0.5688490334356473  0.1490087755320459  0.5573658742469049  1.0000
  O   O30       1.0  0.9311486409214139  0.14900919958250816  0.9426329452544733  1.0000
  O   O31       1.0  0.0688425463347713  0.3509908233171047  0.4426345033959932  1.0000
  O   O32       1.0  0.4311489827716528  0.35099022152276405  0.057367046609812185  1.0000
  O   O33       1.0  0.6092069868509427  0.29710478858460476  0.34520927878962465  1.0000
  O   O34       1.0  0.8908007713734136  0.2971052612231021  0.15479188126290205  1.0000
  O   O35       1.0  0.10920757655889449  0.20289486886259306  0.6547910558764443  1.0000
  O   O36       1.0  0.3907909650743946  0.2028941012936514  0.8452102086311013  1.0000
  O   O37       1.0  0.3908010534244468  0.7028942103407445  0.6547916150908788  1.0000
  O   O38       1.0  0.1092072689050596  0.7028951451940486  0.8452096976363989  1.0000
  O   O39       1.0  0.8907973552820678  0.7971041300614702  0.3452091529850562  1.0000
  O   O40       1.0  0.6092046414675423  0.7971077126091616  0.15479000023164247  1.0000
  O   O41       1.0  0.9801358745674377  0.144370137544179  0.444060504351448  1.0000
  O   O42       1.0  0.5198630239281812  0.14437105388419982  0.055941059479373195  1.0000
  O   O43       1.0  0.4801350003041094  0.3556300584267832  0.5559401203717016  1.0000
  O   O44       1.0  0.019863075758891596  0.35563058508754614  0.9440607403587787  1.0000
  O   O45       1.0  0.0198628404064181  0.8556309726135468  0.5559403895312229  1.0000
  O   O46       1.0  0.4801372452657802  0.855630056275615  0.9440591493818145  1.0000
  O   O47       1.0  0.5198621604592689  0.6443710517336783  0.4440580334291652  1.0000
  O   O48       1.0  0.9801356392149642  0.6443705250701798  0.055940153523891895  1.0000
