data_image0
_chemical_formula_structural       Zn4H88C103N16O9F10
_chemical_formula_sum              "Zn4 H88 C103 N16 O9 F10"
_cell_length_a       15.70244834257987
_cell_length_b       17.500382596394964
_cell_length_c       19.475416531437144
_cell_angle_alpha    108.57787493239722
_cell_angle_beta     113.61012094095297
_cell_angle_gamma    99.22364657264477

_space_group_name_H-M_alt    "P 1"
_space_group_IT_number       1

loop_
  _space_group_symop_operation_xyz
  'x, y, z'

loop_
  _atom_site_type_symbol
  _atom_site_label
  _atom_site_symmetry_multiplicity
  _atom_site_fract_x
  _atom_site_fract_y
  _atom_site_fract_z
  _atom_site_occupancy
  Zn  Zn1       1.0  0.6314219211692913  0.10721941533917351  0.9950940664730865  1.0000
  Zn  Zn2       1.0  0.3695797115600713  0.007835036354094896  0.9989601424636305  1.0000
  Zn  Zn3       1.0  0.6524848809452807  0.9989829359008268  0.11423698393878845  1.0000
  Zn  Zn4       1.0  0.35575651104257117  0.041403732358873006  0.8576907368216949  1.0000
  H   H1        1.0  0.3156836024543352  0.9344075300501232  0.11000849371124856  1.0000
  H   H2        1.0  0.6247624228673346  0.9907379531333405  0.6863696400047703  1.0000
  H   H3        1.0  0.31348774516175854  0.9556769346081566  0.575778404904341  1.0000
  H   H4        1.0  0.20944961988781335  0.8840521780642235  0.29103329445000287  1.0000
  H   H5        1.0  0.9296969921326194  0.26677396004187415  0.4131047250351828  1.0000
  H   H6        1.0  0.06685933473372775  0.33238849853074026  0.5564975515583797  1.0000
  H   H7        1.0  0.25135978551540455  0.6194968599335339  0.761261269220249  1.0000
  H   H8        1.0  0.10387125335307713  0.7745704257889728  0.6573720998940474  1.0000
  H   H9        1.0  0.8409070144290993  0.5802400694785207  0.3901049376990573  1.0000
  H   H10       1.0  0.5866566059389129  0.7097826500791982  0.2002623765437763  1.0000
  H   H11       1.0  0.5742868094185314  0.5687558413108961  0.20457117297485905  1.0000
  H   H12       1.0  0.10763794487492356  0.9814233812892966  0.7396590877639468  1.0000
  H   H13       1.0  0.5313395274641692  0.4148576935229045  0.13413571418862355  1.0000
  H   H14       1.0  0.3475635797545282  0.059893626445507706  0.7069229245258982  1.0000
  H   H15       1.0  0.8881753163010941  0.7968585116615827  0.672375616140812  1.0000
  H   H16       1.0  0.932618887989179  0.875549519167933  0.053762985824271116  1.0000
  H   H17       1.0  0.8707392943642279  0.9851188065394184  0.8758447645175454  1.0000
  H   H18       1.0  0.4119570594664878  0.7299470182456886  0.9470762433260019  1.0000
  H   H19       1.0  0.9149151656762909  0.19020943011575753  0.9690187711380176  1.0000
  H   H20       1.0  0.9630131827237065  0.12268958243827652  0.014744777403009876  1.0000
  H   H21       1.0  0.8502174963517536  0.23539019569786754  0.06969362841392998  1.0000
  H   H22       1.0  0.9025233593829755  0.1719365810877278  0.11704568948641758  1.0000
  H   H23       1.0  0.13665045258164102  0.9763581273589353  0.9686405444202535  1.0000
  H   H24       1.0  0.07288693089645189  0.260696205139311  0.15457415474107714  1.0000
  H   H25       1.0  0.013446584679272228  0.3241072984160312  0.19692887949840104  1.0000
  H   H26       1.0  0.019266836963474514  0.3252672925103326  0.10807250430527664  1.0000
  H   H27       1.0  0.7687697505731635  0.8484331855069698  0.4013099993830383  1.0000
  H   H28       1.0  0.6398574160040341  0.8051620640928406  0.3643191925561171  1.0000
  H   H29       1.0  0.8079039022370651  0.8259979047964805  0.5279772933930077  1.0000
  H   H30       1.0  0.6822305491319796  0.7957815263115223  0.5021323006126581  1.0000
  H   H31       1.0  0.6419842590960912  0.6648041925194975  0.3785195133236814  1.0000
  H   H32       1.0  0.7377561874947389  0.6670748837652881  0.4684497470120023  1.0000
  H   H33       1.0  0.7663397592068011  0.6951610188952628  0.39866085559153686  1.0000
  H   H34       1.0  0.7567941447001587  0.30560080277749097  0.16779563213528823  1.0000
  H   H35       1.0  0.35174276290922524  0.4729809980863138  0.7370570042839547  1.0000
  H   H36       1.0  0.312309429585163  0.5308968562649953  0.6763338127411559  1.0000
  H   H37       1.0  0.26387477506996493  0.3362871325833723  0.6083526254260648  1.0000
  H   H38       1.0  0.2216476417036687  0.39289762440220233  0.54812361705995  1.0000
  H   H39       1.0  0.3964960303340562  0.473973394183453  0.5930889293162026  1.0000
  H   H40       1.0  0.3710684048551017  0.3621736956791537  0.5448384116567483  1.0000
  H   H41       1.0  0.4408970924113048  0.4181012160178028  0.6540848496553126  1.0000
  H   H42       1.0  0.4996333522315694  0.5300278635376116  0.8475238929871125  1.0000
  H   H43       1.0  0.5861858049476538  0.6218266655949167  0.9399951154482553  1.0000
  H   H44       1.0  0.41931417605655247  0.6323826809345192  0.7961007657945984  1.0000
  H   H45       1.0  0.6329003840447954  0.022685678673347795  0.25852014471708185  1.0000
  H   H46       1.0  0.5195115773946102  0.7181806193777476  0.8834068594624613  1.0000
  H   H47       1.0  0.6371272827722264  0.6611211661077051  0.8379583372402736  1.0000
  H   H48       1.0  0.5513890765110147  0.6859304283681881  0.7633923859516116  1.0000
  H   H49       1.0  0.5342868587386179  0.5779451308054535  0.7481797399869522  1.0000
  H   H50       1.0  0.4513801128574144  0.22442416270014576  0.796199130389475  1.0000
  H   H51       1.0  0.4505659267284726  0.32932957076845776  0.8067643844581909  1.0000
  H   H52       1.0  0.2681866417094765  0.168006917865803  0.6976605621293926  1.0000
  H   H53       1.0  0.27391807234730703  0.2711659586224471  0.7022540508249123  1.0000
  H   H54       1.0  0.39812356115743347  0.26707885725938496  0.6483479051824476  1.0000
  H   H55       1.0  0.2856271863486626  0.18174505190608412  0.5779462025994704  1.0000
  H   H56       1.0  0.30626286764510274  0.9140783821967562  0.2210269969814079  1.0000
  H   H57       1.0  0.38936641978801845  0.1626647430436634  0.6424159202581379  1.0000
  H   H58       1.0  0.8617267494897547  0.019317672836280105  0.6953435031318379  1.0000
  H   H59       1.0  0.9875593398678646  0.028425043899709106  0.7370900564365501  1.0000
  H   H60       1.0  0.8839288050833076  0.0965077933274472  0.8351807147347543  1.0000
  H   H61       1.0  0.008988801642594534  0.10217119605682971  0.8809605286993403  1.0000
  H   H62       1.0  0.04659366252752753  0.192356222060404  0.8119786611974008  1.0000
  H   H63       1.0  0.9930888107172464  0.24067908936488183  0.8712745125884355  1.0000
  H   H64       1.0  0.9208725241353051  0.1848101131849162  0.7621660977776942  1.0000
  H   H65       1.0  0.2964991825120649  0.8117275055801018  0.5915132034857821  1.0000
  H   H66       1.0  0.24973851680124423  0.7327298583929576  0.6186708685674916  1.0000
  H   H67       1.0  0.6159212751761063  0.9431014597781486  0.3308926143832452  1.0000
  H   H68       1.0  0.46658299683547017  0.8440754472855262  0.7027807872502552  1.0000
  H   H69       1.0  0.4208946420116178  0.7669483544167549  0.7314052800529824  1.0000
  H   H70       1.0  0.36294459044031413  0.6506853530128326  0.589651337459202  1.0000
  H   H71       1.0  0.49109964144864904  0.7062979873076927  0.6380209802462746  1.0000
  H   H72       1.0  0.4064610425556552  0.7281108803430953  0.5598495010205725  1.0000
  H   H73       1.0  0.759903517355248  0.7788766181649296  0.9727633647719999  1.0000
  H   H74       1.0  0.6750008992953769  0.781113124384234  0.012816676594148726  1.0000
  H   H75       1.0  0.8892595039318963  0.7862582758906029  0.10298160448418525  1.0000
  H   H76       1.0  0.8107340442001318  0.7950358470759157  0.14727620273105668  1.0000
  H   H77       1.0  0.7013195532497818  0.6458610870517489  0.051731231563863535  1.0000
  H   H78       1.0  0.28082522379338565  0.7945596909591331  0.9064562414390238  1.0000
  H   H79       1.0  0.8242496335620547  0.646300732304411  0.09709579614712308  1.0000
  H   H80       1.0  0.7661933320263472  0.6360170456870051  0.9940272520932611  1.0000
  H   H81       1.0  0.6325780680278754  0.3727601913098226  0.999454485498781  1.0000
  H   H82       1.0  0.5797731390238636  0.274227950297103  0.9087789867695406  1.0000
  H   H83       1.0  0.7994636924347844  0.35622554522927885  0.03700762075512654  1.0000
  H   H84       1.0  0.745703816651684  0.25947357813370797  0.9462562562964578  1.0000
  H   H85       1.0  0.689663230689  0.3397973143487505  0.8581636521498412  1.0000
  H   H86       1.0  0.8191015786235099  0.381981939981607  0.9233083690621557  1.0000
  H   H87       1.0  0.7428681160020361  0.4368693583458807  0.9488888885867156  1.0000
  H   H88       1.0  0.7022804090799256  0.9503250950849846  0.5966689960434693  1.0000
  C   C1        1.0  0.7840222265467106  0.0314048893607293  0.9749194969708554  1.0000
  C   C2        1.0  0.7584561969697887  0.25447600575029833  0.18782641394436456  1.0000
  C   C3        1.0  0.7734079947774787  0.6679362516765011  0.05571934741687582  1.0000
  C   C4        1.0  0.6413128119822601  0.3110033774307297  0.9720253971975411  1.0000
  C   C5        1.0  0.7393172716293394  0.3227325009375193  0.9726529663110812  1.0000
  C   C6        1.0  0.7481693071312135  0.3731304025772815  0.923046276610947  1.0000
  C   C7        1.0  0.40081527829115515  0.19337942270943395  0.999090779271164  1.0000
  C   C8        1.0  0.2976551736065004  0.8231804162705957  0.8695014631501436  1.0000
  C   C9        1.0  0.5567487092712825  0.005843358847123201  0.2123878001815599  1.0000
  C   C10       1.0  0.4682767299348286  0.2614745731335121  0.0062374342560575285  1.0000
  C   C11       1.0  0.4704979139398518  0.9634255983867206  0.2093094912556097  1.0000
  C   C12       1.0  0.797958470997607  0.26049485984649573  0.26937468127678715  1.0000
  C   C13       1.0  0.07514371023285085  0.9643793072489544  0.838118857375008  1.0000
  C   C14       1.0  0.37290725962633087  0.9162451572186541  0.2709696929945836  1.0000
  C   C15       1.0  0.46279934181870896  0.9354440923396014  0.2702141505959333  1.0000
  C   C16       1.0  0.26293714481634817  0.7872350884662823  0.7835311687361682  1.0000
  C   C17       1.0  0.5466884788895712  0.9331891405555268  0.3327032306229541  1.0000
  C   C18       1.0  0.5452502133873198  0.9245291498259859  0.40126361613555883  1.0000
  C   C19       1.0  0.4569423058658302  0.9177015196951572  0.40740401571217444  1.0000
  C   C20       1.0  0.6121610659198924  0.8197702072622735  0.12519475729172336  1.0000
  C   C21       1.0  0.36827379738019056  0.9076327188186896  0.3385199137875078  1.0000
  C   C22       1.0  0.6321902374020923  0.9298217225494129  0.4704895041836466  1.0000
  C   C23       1.0  0.6344058960333497  0.9426384137215038  0.5443065306922181  1.0000
  C   C24       1.0  0.5496842142068418  0.9472622747093951  0.5544098327193867  1.0000
  C   C25       1.0  0.4588557194693977  0.9286684309587799  0.4833243435373192  1.0000
  C   C26       1.0  0.3724834363614207  0.9283918932440329  0.4916674839690175  1.0000
  C   C27       1.0  0.5342270655221386  0.7433847681815777  0.06641112987000514  1.0000
  C   C28       1.0  0.2830960940378518  0.9067060762008695  0.41772264522398234  1.0000
  C   C29       1.0  0.279186854326703  0.8968509386515251  0.3442800700336762  1.0000
  C   C30       1.0  0.5540938973974362  0.9727128642014478  0.6319277355166051  1.0000
  C   C31       1.0  0.4709479951539422  0.9800729165149988  0.6408083759729736  1.0000
  C   C32       1.0  0.4173339276803461  0.055357853632571605  0.7457917099215977  1.0000
  C   C33       1.0  0.3794227419485806  0.9538907746654813  0.5700232904903758  1.0000
  C   C34       1.0  0.845480840718473  0.41625159583833965  0.35915659930653737  1.0000
  C   C35       1.0  0.8533029506586659  0.3350785627113311  0.34883630948469624  1.0000
  C   C36       1.0  0.9215079703823083  0.3287706526653267  0.41868889079096777  1.0000
  C   C37       1.0  0.9833550299214907  0.4003010234562653  0.49392964311517334  1.0000
  C   C38       1.0  0.47996353408676384  0.01882306353578401  0.7227342156951766  1.0000
  C   C39       1.0  0.97652798001063  0.48247129781189113  0.5011160569121176  1.0000
  C   C40       1.0  0.9040602031922661  0.4904191357931893  0.432772105212152  1.0000
  C   C41       1.0  0.05968049619276173  0.39466407271780196  0.5616529439823523  1.0000
  C   C42       1.0  0.12839158471428644  0.4661260287579907  0.6306622515913674  1.0000
  C   C43       1.0  0.1223866232541795  0.5502803482772336  0.6411865191768129  1.0000
  C   C44       1.0  0.4799118638266223  0.7685661065092971  0.00431088248208072  1.0000
  C   C45       1.0  0.044367752517821664  0.556433189181668  0.5747012583758108  1.0000
  C   C46       1.0  0.038275483641164974  0.6389931153220089  0.5820317188808204  1.0000
  C   C47       1.0  0.9608071866253456  0.6423449545154015  0.5131751621927452  1.0000
  C   C48       1.0  0.8964414822148828  0.5729814026567724  0.44102215132753764  1.0000
  C   C49       1.0  0.5467760003096204  0.22994685827861622  0.012134468109110357  1.0000
  C   C50       1.0  0.19194520016116468  0.6251299317888055  0.711334339365614  1.0000
  C   C51       1.0  0.1871340833958398  0.7060113898253845  0.7166137719627201  1.0000
  C   C52       1.0  0.10865029735200694  0.7118989144794199  0.6525693934419152  1.0000
  C   C53       1.0  0.5189274748902976  0.6595293092905125  0.06680527666949852  1.0000
  C   C54       1.0  0.45974052205249905  0.3428633605459623  0.002937098029626534  1.0000
  C   C55       1.0  0.41788911764533776  0.4244433827925461  0.921673677725778  1.0000
  C   C56       1.0  0.5554434816611717  0.031897409558347106  0.7997369126612313  1.0000
  C   C57       1.0  0.41719306559528485  0.3461168675435289  0.9244277552884982  1.0000
  C   C58       1.0  0.49901378418325504  0.4173557711462338  0.07412512187683987  1.0000
  C   C59       1.0  0.502569282605137  0.49758802766557153  0.07169904211589553  1.0000
  C   C60       1.0  0.3952110972710087  0.9605735062399887  0.13736917248643732  1.0000
  C   C61       1.0  0.4636338875483332  0.5030714719739892  0.9933097655379797  1.0000
  C   C62       1.0  0.47425166584213935  0.5852890974470811  0.9927136607074091  1.0000
  C   C63       1.0  0.5534060307318854  0.6517609739424799  0.14311330822123847  1.0000
  C   C64       1.0  0.5462974950933912  0.5736390744203915  0.14556968784231125  1.0000
  C   C65       1.0  0.9947675640799218  0.7746540919994302  0.7701029973961513  1.0000
  C   C66       1.0  0.8907046745696409  0.9337891393633769  0.96734091876035  1.0000
  C   C67       1.0  0.9789144361103084  0.8330909446430609  0.9626736326474373  1.0000
  C   C68       1.0  0.3067620996048319  0.8547438531643294  0.7708375187205405  1.0000
  C   C69       1.0  0.935354900045404  0.8814746998773729  0.0007355515206912283  1.0000
  C   C70       1.0  0.9022693144113776  0.9431318976193667  0.9012931477312451  1.0000
  C   C71       1.0  0.7786033579336549  0.174263112273934  0.2548456990597857  1.0000
  C   C72       1.0  0.9476405303653267  0.895702633419411  0.8653698075466283  1.0000
  C   C73       1.0  0.983310041359573  0.8354268893217595  0.8931963478317756  1.0000
  C   C74       1.0  0.02833591258815442  0.7880085640594744  0.8491348389867213  1.0000
  C   C75       1.0  0.9484498416094596  0.8207186678566812  0.7354928020648118  1.0000
  C   C76       1.0  0.9675355914775565  0.910963976209324  0.7966655570854685  1.0000
  C   C77       1.0  0.7744783792881693  0.9407219463688464  0.031141393182636767  1.0000
  C   C78       1.0  0.825598791132265  0.9698151687443753  0.9932580026731942  1.0000
  C   C79       1.0  0.9058257385749898  0.15342296469290062  0.0034620541011707263  1.0000
  C   C80       1.0  0.9120269490152922  0.21027209309446  0.08389548633532252  1.0000
  C   C81       1.0  0.0097775898501027  0.2840764249616043  0.1387774356698515  1.0000
  C   C82       1.0  0.1310436739572083  0.9875855198579802  0.8022933843678787  1.0000
  C   C83       1.0  0.7122651225987655  0.8405661581145552  0.4205843601092811  1.0000
  C   C84       1.0  0.7324729237364311  0.7930530619275162  0.4756885325167988  1.0000
  C   C85       1.0  0.7188132253847855  0.6998529203858651  0.4275997014213076  1.0000
  C   C86       1.0  0.293260160350357  0.4691881636899423  0.6798809431502235  1.0000
  C   C87       1.0  0.2829159640678471  0.39761063668067453  0.6045674076504214  1.0000
  C   C88       1.0  0.3779686114549606  0.41375580381025395  0.5988536584706808  1.0000
  C   C89       1.0  0.5109280239251675  0.5959761967301065  0.8877397257501017  1.0000
  C   C90       1.0  0.4978572278069463  0.6513140908414385  0.8403343553545567  1.0000
  C   C91       1.0  0.5583027728918637  0.643516482840326  0.7950062042144739  1.0000
  C   C92       1.0  0.4052341590010259  0.26582440144046166  0.7923776396606997  1.0000
  C   C93       1.0  0.14639333692325324  0.9848098841811392  0.9191454993212531  1.0000
  C   C94       1.0  0.3167854535365676  0.2273066774596231  0.7065347007307495  1.0000
  C   C95       1.0  0.3491616498820703  0.20864809146026891  0.6402638369922968  1.0000
  C   C96       1.0  0.9252531839148761  0.0232925569954148  0.7499469118952079  1.0000
  C   C97       1.0  0.9491560794194317  0.10183686426045574  0.8261573211789116  1.0000
  C   C98       1.0  0.978950443874126  0.18433150367432924  0.8173710290039935  1.0000
  C   C99       1.0  0.30858261677273213  0.7929106533839773  0.6424442920569648  1.0000
  C   C100      1.0  0.4093424773764339  0.7828048554107525  0.6786472438261271  1.0000
  C   C101      1.0  0.4178852377533175  0.7130950363380181  0.6129503416345088  1.0000
  C   C102      1.0  0.7535083909561779  0.799751729405017  0.029714059591967486  1.0000
  C   C103      1.0  0.8118511130813602  0.7651273188687782  0.08882841673316505  1.0000
  N   N1        1.0  0.7114967605954946  0.0331920924130458  0.9946357454933049  1.0000
  N   N2        1.0  0.6064501847242669  0.8816484172683163  0.0993994751821464  1.0000
  N   N3        1.0  0.4535420348697058  0.08741370490518113  0.8291625270492914  1.0000
  N   N4        1.0  0.5224206572070147  0.8502179245289911  0.023773985804070034  1.0000
  N   N5        1.0  0.5420491902952379  0.07223277707326761  0.8633318027481353  1.0000
  N   N6        1.0  0.36299859796068296  0.9245511978339068  0.8434496885393372  1.0000
  N   N7        1.0  0.705007740033864  0.9771987358866312  0.029701252348801017  1.0000
  N   N8        1.0  0.5266428950692871  0.15129381719283694  0.008294926358836243  1.0000
  N   N9        1.0  0.4352646207856311  0.9968867772174408  0.10102433772602404  1.0000
  N   N10       1.0  0.7339095908442275  0.12230631180705837  0.17458536796809926  1.0000
  N   N11       1.0  0.22756258280631417  0.020044436771556203  0.8585867061364639  1.0000
  N   N12       1.0  0.23711970460838913  0.0166340307536998  0.9306642307991878  1.0000
  N   N13       1.0  0.7211743867067996  0.17269384002990057  0.1320037477743982  1.0000
  N   N14       1.0  0.43262335165180577  0.12464833990748052  0.9975160711624013  1.0000
  N   N15       1.0  0.5358588956809031  0.024630542339508604  0.14669779297682348  1.0000
  N   N16       1.0  0.3554728347026595  0.9052616304771988  0.9042700629896813  1.0000
  O   O1        1.0  0.8093525666905778  0.08767942642305122  0.9460312036878452  1.0000
  O   O2        1.0  0.7153971563718287  0.9268915628738836  0.4628219542969634  1.0000
  O   O3        1.0  0.2067248607707909  0.45811088005940803  0.6907508594349139  1.0000
  O   O4        1.0  0.4413791622829918  0.5932882875822401  0.9188612910878361  1.0000
  O   O5        1.0  0.37416066920136615  0.2711775666028516  0.8542560250045883  1.0000
  O   O6        1.0  0.8954964763316652  0.9441015661818212  0.7548455192159339  1.0000
  O   O7        1.0  0.2975245873824619  0.8614662353886975  0.7008320406026487  1.0000
  O   O8        1.0  0.7961814726595408  0.8924825760747056  0.07384003876359221  1.0000
  O   O9        1.0  0.6366633897170928  0.26316191719796217  0.02041972705048782  1.0000
  F   F1        1.0  0.7978223239564386  0.1398145242058604  0.3101810090070672  1.0000
  F   F2        1.0  0.6347887121479162  0.007267553395578799  0.8122790081790613  1.0000
  F   F3        1.0  0.31392480506902115  0.19238859064552122  0.9954881637367022  1.0000
  F   F4        1.0  0.19872673985499045  0.8995978216074507  0.4240781655145229  1.0000
  F   F5        1.0  0.7779959279449217  0.4246896973651674  0.2929165571504556  1.0000
  F   F6        1.0  0.6882862603897381  0.8345994408808082  0.19880009553114783  1.0000
  F   F7        1.0  0.954488715091145  0.7215253792617985  0.5210774694602877  1.0000
  F   F8        1.0  0.3714085940061762  0.42346490839195644  0.845072248786849  1.0000
  F   F9        1.0  0.10892256999544246  0.770651472859356  0.8940453266835107  1.0000
  F   F10       1.0  0.01750810625220108  0.7800585844107033  0.9947002959133897  1.0000
