data_image0
_chemical_formula_structural       Li4P2H48C44S4O18F6
_chemical_formula_sum              "Li4 P2 H48 C44 S4 O18 F6"
_cell_length_a       10.075130349171785
_cell_length_b       10.74923302525709
_cell_length_c       13.1228
_cell_angle_alpha    104.79239765572119
_cell_angle_beta     91.95368726664094
_cell_angle_gamma    109.18452327219728

_space_group_name_H-M_alt    "P 1"
_space_group_IT_number       1

loop_
  _space_group_symop_operation_xyz
  'x, y, z'

loop_
  _atom_site_type_symbol
  _atom_site_label
  _atom_site_symmetry_multiplicity
  _atom_site_fract_x
  _atom_site_fract_y
  _atom_site_fract_z
  _atom_site_occupancy
  Li  Li1       1.0  0.3289182731963792  0.28859420116803136  0.4549923379261999  1.0000
  Li  Li2       1.0  0.6710828927011931  0.7114061091251287  0.5450073764677938  1.0000
  Li  Li3       1.0  0.894757867844291  0.2787771498693488  0.4681877595560309  1.0000
  Li  Li4       1.0  0.1052409418600178  0.7212221336430034  0.5318124404609537  1.0000
  P   P1        1.0  0.4219311827146086  0.4883112824361717  0.7195726734500383  1.0000
  P   P2        1.0  0.5780699831829638  0.5116890278569883  0.28042780297644754  1.0000
  H   H1        1.0  0.0801009401819996  0.4509015505026568  0.4085764727295427  1.0000
  H   H2        1.0  0.9198992325952915  0.5490987597905032  0.5914232156703818  1.0000
  H   H3        1.0  0.841007240045549  0.0228479265242498  0.4100704777304074  1.0000
  H   H4        1.0  0.1589939258520232  0.9771523837689102  0.5899307607285709  1.0000
  H   H5        1.0  0.9564070824057822  0.18484724161668  0.7853302608062764  1.0000
  H   H6        1.0  0.04359246720392919  0.815154095457288  0.21466733992346584  1.0000
  H   H7        1.0  0.9706229397575896  0.323517069986238  0.9724646834986432  1.0000
  H   H8        1.0  0.029375869946726106  0.676482213526114  0.02753475448584906  1.0000
  H   H9        1.0  0.18059103208062774  0.5383196148753697  0.048120787102995194  1.0000
  H   H10       1.0  0.8194090239588477  0.4616776150753736  0.9518805401243927  1.0000
  H   H11       1.0  0.3725836048831753  0.6059095150781246  0.9414418371503005  1.0000
  H   H12       1.0  0.6274188073495567  0.3940887416534196  0.05855976648658162  1.0000
  H   H13       1.0  0.4300260322314173  0.762084929431495  0.7433818561222338  1.0000
  H   H14       1.0  0.5699731474255927  0.237915380861665  0.2566185683161137  1.0000
  H   H15       1.0  0.5576589737401179  0.9871737644482507  0.8726734697455073  1.0000
  H   H16       1.0  0.4423415689898675  0.0128275726257172  0.12732644307578062  1.0000
  H   H17       1.0  0.7947018589794581  0.8012638046960063  0.026812469549270163  1.0000
  H   H18       1.0  0.2052973206775519  0.1987365055971537  0.9731879548890777  1.0000
  H   H19       1.0  0.661496297984378  0.5758022482461981  0.9010104317886843  1.0000
  H   H20       1.0  0.3385025117199305  0.4241970352661539  0.09898900619580793  1.0000
  H   H21       1.0  0.4218610378878651  0.3400513213263423  0.8812356825721823  1.0000
  H   H22       1.0  0.5781403812245856  0.6599469354052018  0.11876284694066902  1.0000
  H   H23       1.0  0.5486340052140904  0.19244131246754387  0.9145755892299476  1.0000
  H   H24       1.0  0.4513670439456661  0.8075559174831923  0.0854219538290408  1.0000
  H   H25       1.0  0.7231388576746768  0.1393505840448057  0.7944017563247243  1.0000
  H   H26       1.0  0.2768629313904825  0.8606486994675464  0.20559623557699078  1.0000
  H   H27       1.0  0.7682903792770902  0.24058090383744  0.6431514001817717  1.0000
  H   H28       1.0  0.23171214969345752  0.759420433236528  0.3568478025951621  1.0000
  H   H29       1.0  0.014071315243334909  0.3613395678042863  0.21267928390665966  1.0000
  H   H30       1.0  0.9859263846028838  0.638656635365642  0.7873202428462422  1.0000
  H   H31       1.0  0.9577814364888797  0.49681816142472707  0.2859212897608075  1.0000
  H   H32       1.0  0.042217626430314674  0.503179068526009  0.714076963342535  1.0000
  H   H33       1.0  0.8392332947322887  0.3231371610875371  0.24957230535301286  1.0000
  H   H34       1.0  0.16076613813960708  0.676861095644007  0.7504284582691768  1.0000
  H   H35       1.0  0.6112595774714223  0.9519254061141282  0.31581233278664206  1.0000
  H   H36       1.0  0.38874221159372985  0.0480738773982239  0.684188707245042  1.0000
  H   H37       1.0  0.5882343474431835  0.0926690214212869  0.4116211958121809  1.0000
  H   H38       1.0  0.4117650854287121  0.9073292353102573  0.5883788057775093  1.0000
  H   H39       1.0  0.6029613759757311  0.9495227390250207  0.4511047787439538  1.0000
  H   H40       1.0  0.3970390500164386  0.05047551770652349  0.5488952488398057  1.0000
  H   H41       1.0  0.13395040161722696  0.049457977926479685  0.3775897525187162  1.0000
  H   H42       1.0  0.866048778039783  0.9505423323666804  0.6224106719196316  1.0000
  H   H43       1.0  0.10775144577471002  0.0354875982622289  0.19026235204619013  1.0000
  H   H44       1.0  0.8922464875471334  0.964514765592547  0.8097384692467459  1.0000
  H   H45       1.0  0.1832503082401402  0.21841475976923866  0.23797013974710526  1.0000
  H   H46       1.0  0.8167466319614293  0.78158760408553  0.7620314175842539  1.0000
  H   H47       1.0  0.0173970881471277  0.1304483944454304  0.2752215099522246  1.0000
  H   H48       1.0  0.9826004752220214  0.8695529426285376  0.7247798489518404  1.0000
  C   C1        1.0  0.27640436448404426  0.4371426876847124  0.8007904181231355  1.0000
  C   C2        1.0  0.7235960615081255  0.5628555690468316  0.19921037149312332  1.0000
  C   C3        1.0  0.1546951840404063  0.3191758407329388  0.7588816376468942  1.0000
  C   C4        1.0  0.845305981857166  0.6808244695602212  0.2411188387795989  1.0000
  C   C5        1.0  0.0466950081918043  0.2783479554918884  0.8204388915771548  1.0000
  C   C6        1.0  0.9533045414179001  0.7216533815820725  0.17956023321757192  1.0000
  C   C7        1.0  0.05478038313363239  0.3560393252769599  0.924733596135191  1.0000
  C   C8        1.0  0.9452194196909576  0.6439599582353921  0.07526586784337755  1.0000
  C   C9        1.0  0.17194121745632174  0.47554737022050375  0.9667907832167231  1.0000
  C   C10       1.0  0.8280598317034349  0.5244498597302325  0.033209045939742124  1.0000
  C   C11       1.0  0.2807735234472731  0.514197453369249  0.905790492161927  1.0000
  C   C12       1.0  0.7192275257124835  0.48579977658149426  0.09421162309202201  1.0000
  C   C13       1.0  0.5334275805733455  0.6519575539435252  0.8147717431279065  1.0000
  C   C14       1.0  0.46657259220394565  0.34804275634963483  0.1852279452720182  1.0000
  C   C15       1.0  0.5078726961944611  0.7700147576063472  0.8068829205434157  1.0000
  C   C16       1.0  0.4921264834625489  0.22998555268681287  0.19311597982994752  1.0000
  C   C17       1.0  0.5809614192575695  0.8974433896974858  0.8791836524031924  1.0000
  C   C18       1.0  0.4190397466399958  0.10255692059568129  0.12081606199080144  1.0000
  C   C19       1.0  0.6834897345949927  0.9088837814525235  0.9589276093585897  1.0000
  C   C20       1.0  0.3165114313025795  0.09111652884063658  0.0410728670678964  1.0000
  C   C21       1.0  0.7134728417099794  0.792728175844843  0.9657122369693386  1.0000
  C   C22       1.0  0.2865280709727074  0.20727418800993289  0.034288662305805004  1.0000
  C   C23       1.0  0.6385688785849339  0.6656363278585005  0.8941073015733995  1.0000
  C   C24       1.0  0.36143129419235726  0.33436398243465953  0.10589238682652541  1.0000
  C   C25       1.0  0.7638399477896699  0.0437634515691414  0.03868073629290341  1.0000
  C   C26       1.0  0.23615985503491999  0.9562358319432106  0.9613194897181503  1.0000
  C   C27       1.0  0.5193829561450087  0.3761139168406658  0.7427225022114714  1.0000
  C   C28       1.0  0.48061820975256353  0.6238863934524942  0.2572772121825224  1.0000
  C   C29       1.0  0.497216974685756  0.3185792810838919  0.8280887779932302  1.0000
  C   C30       1.0  0.5027851843320974  0.6814210292092681  0.17191020036234053  1.0000
  C   C31       1.0  0.5695731205098441  0.2347323603590041  0.8472354263666163  1.0000
  C   C32       1.0  0.43042866855530804  0.765266923153348  0.15276256553509177  1.0000
  C   C33       1.0  0.6674063031545218  0.20625356788747237  0.7809694190945751  1.0000
  C   C34       1.0  0.3325958558633318  0.7937467424056877  0.21902879722849636  1.0000
  C   C35       1.0  0.6920817993701718  0.26207347969603484  0.6954984369863908  1.0000
  C   C36       1.0  0.307920729600376  0.7379278573779331  0.3045000037580508  1.0000
  C   C37       1.0  0.6185930526095405  0.3457951331624328  0.6765336998391406  1.0000
  C   C38       1.0  0.381409106408313  0.6542051771307271  0.3234660405489224  1.0000
  C   C39       1.0  0.9502288346350485  0.38990255630201887  0.27518649972942916  1.0000
  C   C40       1.0  0.049769235163864785  0.6100946736487174  0.7248132514448358  1.0000
  C   C41       1.0  0.6399370307799402  0.0156563537498542  0.39876037413242943  1.0000
  C   C42       1.0  0.3600633952122295  0.98434190298169  0.6012396534513301  1.0000
  C   C43       1.0  0.1217214044217201  0.1253298921209947  0.25833986478400567  1.0000
  C   C44       1.0  0.8782781451879914  0.8746714449529732  0.7416607840757053  1.0000
  S   S1        1.0  0.1203965802230869  0.2220885814977933  0.6223114243590829  1.0000
  S   S2        1.0  0.8796025994339234  0.7779117287953667  0.37768976211175703  1.0000
  S   S3        1.0  0.648812199953852  0.4053638216984865  0.5608917569772558  1.0000
  S   S4        1.0  0.3511879728234391  0.5946364885946736  0.4391079314226688  1.0000
  O   O1        1.0  0.0379355534302164  0.2854810017602674  0.5724527704818386  1.0000
  O   O2        1.0  0.9620632562740924  0.7145182817520848  0.4275481915676381  1.0000
  O   O3        1.0  0.04123655259828501  0.0787438201125568  0.6194618270770107  1.0000
  O   O4        1.0  0.9587638733938917  0.9212544366189874  0.3805382005067487  1.0000
  O   O5        1.0  0.2580569814182496  0.23628382615884647  0.5833274956099501  1.0000
  O   O6        1.0  0.7419441844793228  0.7637164841343136  0.41667298081653575  1.0000
  O   O7        1.0  0.5296856080566315  0.3141651503932649  0.4796462066851889  1.0000
  O   O8        1.0  0.47031419476796543  0.6858341331190871  0.5203532572933726  1.0000
  O   O9        1.0  0.6606539972616617  0.5499253183403852  0.5934901089951198  1.0000
  O   O10       1.0  0.3393451823953484  0.4500749919527749  0.4065095534107358  1.0000
  O   O11       1.0  0.7843358285089226  0.3909190693012548  0.5310944758033784  1.0000
  O   O12       1.0  0.21566471422106304  0.6090822677727061  0.46890467498541716  1.0000
  O   O13       1.0  0.9951304067194827  0.3708413973951322  0.3727556145962795  1.0000
  O   O14       1.0  0.004868402984826022  0.6291578861172198  0.6272445854207122  1.0000
  O   O15       1.0  0.7897839875227604  0.0882364086761314  0.42221212974948236  1.0000
  O   O16       1.0  0.21021618525453087  0.9117639016170287  0.5777890827154268  1.0000
  O   O17       1.0  0.19951017675658284  0.1200008997310604  0.35007665024036083  1.0000
  O   O18       1.0  0.8004883797328404  0.8800004373429076  0.649923972625281  1.0000
  F   F1        1.0  0.7341730198543531  0.1516041861992363  0.018833249504616806  1.0000
  F   F2        1.0  0.265826159802657  0.8483961240939237  0.9811664129012386  1.0000
  F   F3        1.0  0.9077422059996181  0.0766194106222358  0.04185455249218961  1.0000
  F   F4        1.0  0.09225635048981215  0.923381926451732  0.9581475944384368  1.0000
  F   F5        1.0  0.7347508057058435  0.043361980273481  0.1401329183678399  1.0000
  F   F6        1.0  0.265245024637629  0.9566373032388711  0.8598656796019597  1.0000
