data_image0
_chemical_formula_structural       Zn2H34C36N8O10
_chemical_formula_sum              "Zn2 H34 C36 N8 O10"
_cell_length_a       9.666960087695982
_cell_length_b       9.961120977125148
_cell_length_c       10.672211211063656
_cell_angle_alpha    83.47712344918462
_cell_angle_beta     64.47999164785791
_cell_angle_gamma    71.08570572856064

_space_group_name_H-M_alt    "P 1"
_space_group_IT_number       1

loop_
  _space_group_symop_operation_xyz
  'x, y, z'

loop_
  _atom_site_type_symbol
  _atom_site_label
  _atom_site_symmetry_multiplicity
  _atom_site_fract_x
  _atom_site_fract_y
  _atom_site_fract_z
  _atom_site_occupancy
  Zn  Zn1       1.0  0.8378786034331682  0.18225100430708355  0.3656937348535577  1.0000
  Zn  Zn2       1.0  0.1621219863990362  0.8177482605546018  0.6343056398575229  1.0000
  H   H1        1.0  0.6052498918762339  0.4983646683855979  0.7550295555178579  1.0000
  H   H2        1.0  0.3947472654464335  0.5016345790179244  0.24497022299538423  1.0000
  H   H3        1.0  0.5737362079690485  0.33783011904372967  0.1574609483902663  1.0000
  H   H4        1.0  0.4262640023861479  0.662170207431963  0.8425384704702024  1.0000
  H   H5        1.0  0.8117967984744469  0.13527280819885593  0.04184040166539656  1.0000
  H   H6        1.0  0.18820531207622782  0.8647286175912684  0.958156294166734  1.0000
  H   H7        1.0  0.6606312109827854  0.0117326450733302  0.2796922321313247  1.0000
  H   H8        1.0  0.33936709917691843  0.9882665820879379  0.7203099097574891  1.0000
  H   H9        1.0  0.46796534693289976  0.39720189810719114  0.5087667757747667  1.0000
  H   H10       1.0  0.5320348699226755  0.6027984088222669  0.49123451656791417  1.0000
  H   H11       1.0  0.21679752256964943  0.3281486022393879  0.4910445916250267  1.0000
  H   H12       1.0  0.7832011684722745  0.6718527670001038  0.5089562549736966  1.0000
  H   H13       1.0  0.2044478369339089  0.13983180989428234  0.37217386285855963  1.0000
  H   H14       1.0  0.7955516098118449  0.8601674458903118  0.627825958700278  1.0000
  H   H15       1.0  0.326410804743375  0.975125073540518  0.4008769158430424  1.0000
  H   H16       1.0  0.6735875054163287  0.0248741536207433  0.5991252260457641  1.0000
  H   H17       1.0  0.3293495966051551  0.9918393264451951  0.16162373327897947  1.0000
  H   H18       1.0  0.6706525222908936  0.008158866333346297  0.8383770239171681  1.0000
  H   H19       1.0  0.4182922794046176  0.13128667131497454  0.1250024616181946  1.0000
  H   H20       1.0  0.5817098394914382  0.8687115214635664  0.8749982955779602  1.0000
  H   H21       1.0  0.5290247036638362  0.7533028696231554  0.10713211718864803  1.0000
  H   H22       1.0  0.47097780120962796  0.24669424199514373  0.8928704693403304  1.0000
  H   H23       1.0  0.4921496399889449  0.7850873795686084  0.28067993764472726  1.0000
  H   H24       1.0  0.5078540047207625  0.21490975089989922  0.7193212652953845  1.0000
  H   H25       1.0  0.7916639429041653  0.7551168474825899  0.19641007722026418  1.0000
  H   H26       1.0  0.20833893635112594  0.24488242576017427  0.803589340536412  1.0000
  H   H27       1.0  0.7420678339082442  0.6000723659328813  0.189364657342466  1.0000
  H   H28       1.0  0.2579365711607053  0.39992584499984923  0.8106352061581744  1.0000
  H   H29       1.0  0.9535810052924065  0.8540000974626879  0.9706172027530184  1.0000
  H   H30       1.0  0.04641920181258293  0.14600023878612228  0.029381279366340583  1.0000
  H   H31       1.0  0.8099299087097832  0.5032860924808491  0.944588473668119  1.0000
  H   H32       1.0  0.1900714465768445  0.49671102960658686  0.05541268622640419  1.0000
  H   H33       1.0  0.022479380501898984  0.5538157139835035  0.680831400748012  1.0000
  H   H34       1.0  0.9775212125804982  0.44618354110507147  0.31916891070417114  1.0000
  C   C1        1.0  0.85551552366838  0.29048161938543154  0.5982609085072497  1.0000
  C   C2        1.0  0.1444854437958513  0.7095197973275942  0.40173623417263826  1.0000
  C   C3        1.0  0.7825324260880676  0.3038431784882292  0.7545374460588973  1.0000
  C   C4        1.0  0.21746664583607614  0.6961603328294929  0.2454621052497428  1.0000
  C   C5        1.0  0.648533209955076  0.4203523761177335  0.820552085009794  1.0000
  C   C6        1.0  0.3514639441173984  0.579646881058906  0.17944675676233854  1.0000
  C   C7        1.0  0.5704018439456461  0.4375875808404074  0.9660477161225103  1.0000
  C   C8        1.0  0.4295930318595326  0.5624148423280387  0.033952641686653365  1.0000
  C   C9        1.0  0.6310382125432809  0.3313115756616583  0.04444628129412823  1.0000
  C   C10       1.0  0.3689604719982498  0.6686898131240684  0.9555526918223831  1.0000
  C   C11       1.0  0.7663816056176671  0.21658392236408724  0.9796923490819863  1.0000
  C   C12       1.0  0.2336159404928252  0.7834206512636686  0.020306756482689522  1.0000
  C   C13       1.0  0.844723220607591  0.20165921355587096  0.834431121473905  1.0000
  C   C14       1.0  0.1552754671841399  0.7983421654567451  0.16556878838370884  1.0000
  C   C15       1.0  0.9889893180858568  0.0742146161705364  0.7726234444734101  1.0000
  C   C16       1.0  0.011008986978659242  0.9257878342291972  0.22737557279248924  1.0000
  C   C17       1.0  0.5747953835860216  0.1055776841620286  0.34222625446690097  1.0000
  C   C18       1.0  0.42520292657368225  0.8944215429992397  0.657775887421913  1.0000
  C   C19       1.0  0.47059668883554195  0.3072975195378476  0.4584501494181622  1.0000
  C   C20       1.0  0.5294023849335903  0.6927027783145263  0.5415515897722756  1.0000
  C   C21       1.0  0.34584504920595555  0.2757131915063908  0.4511142835527621  1.0000
  C   C22       1.0  0.654152498749518  0.7242881686560098  0.5488870098937181  1.0000
  C   C23       1.0  0.3295566945399457  0.071595203209462  0.3400727795456362  1.0000
  C   C24       1.0  0.6704427554560013  0.9284040428020149  0.6599279787543039  1.0000
  C   C25       1.0  0.4073947294969713  0.0351264184626601  0.18495074366626338  1.0000
  C   C26       1.0  0.5926062430624413  0.9648717750119006  0.8150495236365314  1.0000
  C   C27       1.0  0.5716679462067231  0.7944546701001087  0.17100513104767848  1.0000
  C   C28       1.0  0.4283349395489608  0.2055445835964136  0.8289961601912165  1.0000
  C   C29       1.0  0.7425197143991226  0.7051810739299639  0.14552936173664224  1.0000
  C   C30       1.0  0.25748202501991807  0.2948181804625847  0.8544714396089004  1.0000
  C   C31       1.0  0.9468580640904631  0.7658500647563427  0.9244277035006335  1.0000
  C   C32       1.0  0.05314061395068137  0.23415134357561132  0.075569396133659  1.0000
  C   C33       1.0  0.8725119655719811  0.5821911273616251  0.908950757088611  1.0000
  C   C34       1.0  0.12749053280108305  0.4178060038029017  0.0910499559581481  1.0000
  C   C35       1.0  0.9801773839741368  0.6060070627341005  0.7802013680607518  1.0000
  C   C36       1.0  0.019822066021816902  0.3939921832773763  0.2197993902391886  1.0000
  N   N1        1.0  0.6129760135827738  0.20063469522248312  0.38951060473879534  1.0000
  N   N2        1.0  0.38702343966337344  0.7993645410158762  0.6104910903022541  1.0000
  N   N3        1.0  0.414467199089124  0.147775863884398  0.3769828288072077  1.0000
  N   N4        1.0  0.5855307315935576  0.8522244248908778  0.6230193572309873  1.0000
  N   N5        1.0  0.8528812152772287  0.6839893843542272  0.9983662542171884  1.0000
  N   N6        1.0  0.14712014141460372  0.3160109414254464  0.0016336545366328636  1.0000
  N   N7        1.0  0.026544022173695184  0.7203302112993627  0.7914265655045652  1.0000
  N   N8        1.0  0.9734573247675512  0.27967014379966315  0.20857053302592726  1.0000
  O   O1        1.0  0.7627862777806129  0.26433068510929303  0.551662716751835  1.0000
  O   O2        1.0  0.2372101233984409  0.7356770929067195  0.4483346477787932  1.0000
  O   O3        1.0  0.9889654399071762  0.308642598788083  0.5275042078843907  1.0000
  O   O4        1.0  0.011038201552338449  0.691354541453542  0.47249605831461844  1.0000
  O   O5        1.0  0.005678387914159102  0.013614509488171197  0.6639382554576868  1.0000
  O   O6        1.0  0.9943206761043938  0.9863858176835409  0.33606067350942914  1.0000
  O   O7        1.0  0.0815915188705247  0.0301462480412056  0.8328620568905549  1.0000
  O   O8        1.0  0.9184079260302485  0.9698562212087438  0.16713557678647806  1.0000
  O   O9        1.0  0.5679418175262114  0.9382160457240899  0.13769715471347868  1.0000
  O   O10       1.0  0.43205992514302244  0.06178319889534829  0.8623045833731734  1.0000
