data_image0
_chemical_formula_structural       Zn2H24C12N4O18
_chemical_formula_sum              "Zn2 H24 C12 N4 O18"
_cell_length_a       4.990185154156167
_cell_length_b       4.9903252688650825
_cell_length_c       24.003128510855888
_cell_angle_alpha    94.1430950570978
_cell_angle_beta     94.14124128517145
_cell_angle_gamma    81.04435275215722

_space_group_name_H-M_alt    "P 1"
_space_group_IT_number       1

loop_
  _space_group_symop_operation_xyz
  'x, y, z'

loop_
  _atom_site_type_symbol
  _atom_site_label
  _atom_site_symmetry_multiplicity
  _atom_site_fract_x
  _atom_site_fract_y
  _atom_site_fract_z
  _atom_site_occupancy
  Zn  Zn1       1.0  0.10892629283753759  0.8910781044885996  0.7499966364785493  1.0000
  Zn  Zn2       1.0  0.8910808427284707  0.10892993403568599  0.250004323213453  1.0000
  H   H1        1.0  0.7910651906702597  0.05207057474314782  0.9212346969292186  1.0000
  H   H2        1.0  0.9479296979801788  0.20895574930090535  0.5787741835161527  1.0000
  H   H3        1.0  0.20892812050688284  0.947921179583169  0.07876593933345083  1.0000
  H   H4        1.0  0.0520820481257473  0.7910502499016022  0.4212326385286432  1.0000
  H   H5        1.0  0.5173158706561337  0.8892547896181642  0.8916834653406625  1.0000
  H   H6        1.0  0.11079200943895266  0.4826635873537912  0.6083224659526181  1.0000
  H   H7        1.0  0.48266282583693954  0.11074665847556994  0.1083146174401293  1.0000
  H   H8        1.0  0.8892175944552815  0.5173343283192654  0.39168091212222583  1.0000
  H   H9        1.0  0.26097562313878336  0.27990145640357883  0.8256358339793907  1.0000
  H   H10       1.0  0.7201094257918966  0.7390439824260614  0.6743641639392309  1.0000
  H   H11       1.0  0.7390376685330152  0.720099672384201  0.1743642840974786  1.0000
  H   H12       1.0  0.2798973091221413  0.260973950657885  0.3256348138972882  1.0000
  H   H13       1.0  0.5505417343061082  0.076256452264623  0.8095806599306387  1.0000
  H   H14       1.0  0.9237477637995041  0.4494877063485492  0.6904199185951612  1.0000
  H   H15       1.0  0.4494615698252387  0.9237482290819303  0.1904218896040817  1.0000
  H   H16       1.0  0.0762630622509448  0.5505317850799615  0.3095799534638104  1.0000
  H   H17       1.0  0.5999533635808874  0.6003431855202097  0.9610542464998844  1.0000
  H   H18       1.0  0.3996617664653144  0.400028183271843  0.5389482324811184  1.0000
  H   H19       1.0  0.40004003043352276  0.3996548296836765  0.0389489584988283  1.0000
  H   H20       1.0  0.6003356910730845  0.5999693033174155  0.4610550104946968  1.0000
  H   H21       1.0  0.40111939801074936  0.4069260860516765  0.7641133658763837  1.0000
  H   H22       1.0  0.5930658327779809  0.5988785447848813  0.7358820535950059  1.0000
  H   H23       1.0  0.5988917873636338  0.5930669952224082  0.235883725769348  1.0000
  H   H24       1.0  0.4069371288143416  0.40112167451727043  0.2641154431384933  1.0000
  C   C1        1.0  0.9000523999752802  0.7587334632765066  0.8541870445825029  1.0000
  C   C2        1.0  0.2412854655634575  0.0999744665253104  0.6458134307662817  1.0000
  C   C3        1.0  0.0999406016890205  0.2412723955436037  0.1458137398541979  1.0000
  C   C4        1.0  0.758725250037294  0.900036677066446  0.3541830163112963  1.0000
  C   C5        1.0  0.7342498697020118  0.8548134314734813  0.9051226516523343  1.0000
  C   C6        1.0  0.1451646518146887  0.2657638363075706  0.5948767320138728  1.0000
  C   C7        1.0  0.26572310183774317  0.1451685882338367  0.09487432740797891  1.0000
  C   C8        1.0  0.8548261551199519  0.7342380048542128  0.4051210683271338  1.0000
  C   C9        1.0  0.00606299405507122  0.6030660291979618  0.9779729583607024  1.0000
  C   C10       1.0  0.3969175473423761  0.9939466868790781  0.5220300949243679  1.0000
  C   C11       1.0  0.9939323627808819  0.3969131191446636  0.02202464711248811  1.0000
  C   C12       1.0  0.6030718576834744  0.0060601687604418045  0.4779760795398218  1.0000
  N   N1        1.0  0.7698229284644782  0.6647725308459799  0.9483021688881552  1.0000
  N   N2        1.0  0.33522887899354703  0.23018190884749867  0.5516994778556565  1.0000
  N   N3        1.0  0.2301543663010222  0.33520716141354273  0.051697332214431  1.0000
  N   N4        1.0  0.6647862758776099  0.769824964400279  0.44830030517410796  1.0000
  O   O1        1.0  0.3575112726923989  0.15265978033257002  0.79698986180518  1.0000
  O   O2        1.0  0.8473330663220151  0.6425043886369368  0.7030115873729343  1.0000
  O   O3        1.0  0.642503978912856  0.8473410121163953  0.20300944018261194  1.0000
  O   O4        1.0  0.15267614522210243  0.35750137065235077  0.29698937013989735  1.0000
  O   O5        1.0  0.4112807480384645  0.5887016357599181  0.7499911558646418  1.0000
  O   O6        1.0  0.588711681885563  0.41128511628570424  0.24999816451457957  1.0000
  O   O7        1.0  0.8624773352428219  0.9324581815345001  0.8149996804970173  1.0000
  O   O8        1.0  0.0675864398678456  0.13752342678773744  0.6850020448279468  1.0000
  O   O9        1.0  0.13752379346944107  0.06754662005635483  0.18500117989389514  1.0000
  O   O10       1.0  0.9324451901798623  0.8624712573630975  0.3149977842716325  1.0000
  O   O11       1.0  0.05381985856524811  0.5384273764458172  0.8526110126205352  1.0000
  O   O12       1.0  0.46157536036781005  0.9461923373474337  0.6473849912625624  1.0000
  O   O13       1.0  0.9461775354464519  0.46156798716850045  0.1473909565711153  1.0000
  O   O14       1.0  0.5384071619649475  0.05382275865697754  0.35261411274699833  1.0000
  O   O15       1.0  0.2175860942582801  0.6988750764662445  0.97193517516763  1.0000
  O   O16       1.0  0.30108948118873263  0.7824313280021831  0.5280667326619479  1.0000
  O   O17       1.0  0.7823896136133044  0.3010929706132403  0.028066267634159207  1.0000
  O   O18       1.0  0.6989197303553851  0.21757443128710474  0.4719342248508838  1.0000
