data_image0
_chemical_formula_structural       Cd4H64C36S16N8O8
_chemical_formula_sum              "Cd4 H64 C36 S16 N8 O8"
_cell_length_a       9.73183553781501
_cell_length_b       11.763204779945998
_cell_length_c       13.3667
_cell_angle_alpha    90.63736219067044
_cell_angle_beta     90.99075559405645
_cell_angle_gamma    105.25867918443868

_space_group_name_H-M_alt    "P 1"
_space_group_IT_number       1

loop_
  _space_group_symop_operation_xyz
  'x, y, z'

loop_
  _atom_site_type_symbol
  _atom_site_label
  _atom_site_symmetry_multiplicity
  _atom_site_fract_x
  _atom_site_fract_y
  _atom_site_fract_z
  _atom_site_occupancy
  Cd  Cd1       1.0  0.0651205826818071  0.0212223053020395  0.2735114188261534  1.0000
  Cd  Cd2       1.0  0.934880043211578  0.9787782550211048  0.7264890434151566  1.0000
  Cd  Cd3       1.0  0.4999999687062626  0.0  0.49999977516770133  1.0000
  Cd  Cd4       1.0  0.4999999687062626  0.0  0.9999997751677014  1.0000
  H   H1        1.0  0.051673997445277606  0.6870303831169196  0.0030759042948317987  1.0000
  H   H2        1.0  0.9483264426494673  0.3129728210713481  0.9969245814893168  1.0000
  H   H3        1.0  0.9134772016652519  0.7509132146743411  0.9598728899877713  1.0000
  H   H4        1.0  0.08652295779269542  0.2490891082255473  0.0401283317639454  1.0000
  H   H5        1.0  0.874596189340366  0.5412247470137075  0.8930792297097481  1.0000
  H   H6        1.0  0.1254052784634041  0.4587784571745601  0.10692052088446499  1.0000
  H   H7        1.0  0.7334304127025106  0.5586469368528384  0.9699579805223518  1.0000
  H   H8        1.0  0.2665718021734946  0.4413553860470572  0.03004102272169009  1.0000
  H   H9        1.0  0.8629207206565112  0.4899725404132553  0.018350902481984097  1.0000
  H   H10       1.0  0.1370797194382334  0.5100306637750123  0.9816488351743544  1.0000
  H   H11       1.0  0.2635108544310825  0.3085461095754738  0.5785059813603013  1.0000
  H   H12       1.0  0.7364897714623028  0.6914544507476776  0.4214952290088263  1.0000
  H   H13       1.0  0.119142790999085  0.3567023501227666  0.5271805194947774  1.0000
  H   H14       1.0  0.8808568071852676  0.6432982102003777  0.47282067793646826  1.0000
  H   H15       1.0  0.2747587251291037  0.520083520241954  0.6275833764880686  1.0000
  H   H16       1.0  0.7252400311448639  0.4799143962160812  0.3724192807180912  1.0000
  H   H17       1.0  0.2963827781348058  0.558924542690221  0.49885610583524437  1.0000
  H   H18       1.0  0.703617567121789  0.4410751363445513  0.5011465886292683  1.0000
  H   H19       1.0  0.4288185994354379  0.5075489557175956  0.5639007995208232  1.0000
  H   H20       1.0  0.5711807181121246  0.4924507233171767  0.43610113387800437  1.0000
  H   H21       1.0  0.1579791540065969  0.6775935472224717  0.2196733864755274  1.0000
  H   H22       1.0  0.8420181990833983  0.3223999627936962  0.7803262174182137  1.0000
  H   H23       1.0  0.08568919969116001  0.7087409221774124  0.3351836602555309  1.0000
  H   H24       1.0  0.9143051651099016  0.2912561129922437  0.6648129480164116  1.0000
  H   H25       1.0  0.9680954343888359  0.5002483628384766  0.2709093336351174  1.0000
  H   H26       1.0  0.03190556310183723  0.4997469097544354  0.7290925777761572  1.0000
  H   H27       1.0  0.05449928773683869  0.5002360248012607  0.3892499792366024  1.0000
  H   H28       1.0  0.9455030180996574  0.4997601290800234  0.6107497128893512  1.0000
  H   H29       1.0  0.1373045796939962  0.4674679605289924  0.27907590567713203  1.0000
  H   H30       1.0  0.8626985680528777  0.5325308372174078  0.7209268154407693  1.0000
  H   H31       1.0  0.38583424277922523  0.5779550838094565  0.1519322233607454  1.0000
  H   H32       1.0  0.614167130186388  0.4220445952253158  0.8480674915304007  1.0000
  H   H33       1.0  0.5278242921035883  0.6536189783326094  0.2339430416993125  1.0000
  H   H34       1.0  0.4721770808620249  0.3463807007021629  0.766053680680592  1.0000
  H   H35       1.0  0.4989329099625834  0.43346521124662724  0.2343687840912949  1.0000
  H   H36       1.0  0.5010705184210948  0.566534467788145  0.7656317048034182  1.0000
  H   H37       1.0  0.6684650351984089  0.5096825548678083  0.18679765888383318  1.0000
  H   H38       1.0  0.3315358713317735  0.490318886743708  0.8132020673899092  1.0000
  H   H39       1.0  0.5269970179613495  0.43460912355433834  0.10352139041317089  1.0000
  H   H40       1.0  0.4730056633500936  0.565391436768806  0.8964783495760853  1.0000
  H   H41       1.0  0.7409339220739142  0.9609022016700592  0.345786610733839  1.0000
  H   H42       1.0  0.2590643677646156  0.0390974773647201  0.6542130653436756  1.0000
  H   H43       1.0  0.8262896511964826  0.0925123656316771  0.4150828920251897  1.0000
  H   H44       1.0  0.17371097469690971  0.9074881946914672  0.5849160739605068  1.0000
  H   H45       1.0  0.8365436138443059  0.0879472918612976  0.1008092213568546  1.0000
  H   H46       1.0  0.16345673141228906  0.9120523871734819  0.8991897324686063  1.0000
  H   H47       1.0  0.7484507837944463  0.9588276488408171  0.16665813721400008  1.0000
  H   H48       1.0  0.2515511504447616  0.0411737927707065  0.8333423501254271  1.0000
  H   H49       1.0  0.9460186437680633  0.2664134750553089  0.32934539394909723  1.0000
  H   H50       1.0  0.053981235053093664  0.7335879665562075  0.6706535712589596  1.0000
  H   H51       1.0  0.9522000833457653  0.2665386180042262  0.19563674116034946  1.0000
  H   H52       1.0  0.047798206492771646  0.7334610610305462  0.8043629349171721  1.0000
  H   H53       1.0  0.4541249857131718  0.0756418623138373  0.2462653696733952  1.0000
  H   H54       1.0  0.545875359543416  0.9243578167209421  0.753734332279876  1.0000
  H   H55       1.0  0.5271382433796674  0.9509383553287591  0.24984894150672687  1.0000
  H   H56       1.0  0.47286182124012305  0.0490604424176482  0.7501507482863089  1.0000
  H   H57       1.0  0.5688737890639075  0.2518669291761739  0.3395747611151235  1.0000
  H   H58       1.0  0.4311255284836548  0.7481327498585983  0.6604241797724625  1.0000
  H   H59       1.0  0.7281711066600566  0.2586131916688927  0.41151086791492014  1.0000
  H   H60       1.0  0.2718295192333287  0.7413873686542516  0.5884880980707763  1.0000
  H   H61       1.0  0.7370038146304837  0.2556168112018469  0.09808603102355559  1.0000
  H   H62       1.0  0.26299372813581817  0.7443837491212976  0.9019143924041372  1.0000
  H   H63       1.0  0.5739702829117235  0.24857531710429012  0.1608236028922931  1.0000
  H   H64       1.0  0.4260262321455528  0.7514252432188613  0.839175311341897  1.0000
  C   C1        1.0  0.9501656224929746  0.8005535448412004  0.15274841227894595  1.0000
  C   C2        1.0  0.0498342563281824  0.199447896770323  0.8472520491847318  1.0000
  C   C3        1.0  0.9363779225850593  0.6794416089399391  0.004159168078736299  1.0000
  C   C4        1.0  0.063622236872888  0.3205607139599564  0.9958405574173596  1.0000
  C   C5        1.0  0.8464207059651941  0.5599115856676065  0.9695755982167141  1.0000
  C   C6        1.0  0.15357945349275332  0.44009073723228903  0.0304241272793888  1.0000
  C   C7        1.0  0.21996609897863104  0.2397016244799701  0.386871854108044  1.0000
  C   C8        1.0  0.7800353688251392  0.7603015797082974  0.6131278964861693  1.0000
  C   C9        1.0  0.23577458664517081  0.3721037457233862  0.5278359843587807  1.0000
  C   C10       1.0  0.7642250115391889  0.6278968145997652  0.472165213072465  1.0000
  C   C11       1.0  0.3138497837650505  0.4971858857434839  0.5555066341007588  1.0000
  C   C12       1.0  0.6861485060734793  0.5028137932912955  0.444495286360194  1.0000
  C   C13       1.0  0.349014700929331  0.7811678445077845  0.38329262080945625  1.0000
  C   C14       1.0  0.6509835889091988  0.21883183452698768  0.6167063071402552  1.0000
  C   C15       1.0  0.14350292523210584  0.6518687396245042  0.2984249021492076  1.0000
  C   C16       1.0  0.8564968587508943  0.348129176833524  0.7015755236113961  1.0000
  C   C17       1.0  0.07221864238139371  0.5223484313596884  0.309992956883029  1.0000
  C   C18       1.0  0.9277842247286902  0.47764948509833977  0.6900082558190163  1.0000
  C   C19       1.0  0.5425800598543945  0.7648358083856337  0.0565975455565564  1.0000
  C   C20       1.0  0.4574207518376313  0.2351621080723945  0.9434006487584978  1.0000
  C   C21       1.0  0.5011776598848457  0.5973143454916965  0.16636005493320738  1.0000
  C   C22       1.0  0.4988224047349519  0.4026844522547108  0.8336381386042004  1.0000
  C   C23       1.0  0.5529259604152231  0.4874723253000184  0.17292149833340179  1.0000
  C   C24       1.0  0.44707513191359993  0.5125264724463889  0.8270782043975089  1.0000
  C   C25       1.0  0.7663012770896814  0.057550774599860695  0.346187856019732  1.0000
  C   C26       1.0  0.23369804045788106  0.9424489044349187  0.6538118329956644  1.0000
  C   C27       1.0  0.7726040872790634  0.05535901041704961  0.166591082123027  1.0000
  C   C28       1.0  0.2273955109052963  0.9446415499060947  0.8334086190525979  1.0000
  C   C29       1.0  0.8861021443611748  0.2326909754754496  0.2600623962356536  1.0000
  C   C30       1.0  0.11389642611415952  0.7673095848476947  0.7399380401299068  1.0000
  C   C31       1.0  0.5531331182377244  0.0474952742678028  0.24992502068324995  1.0000
  C   C32       1.0  0.44686694638207325  0.9525035234786047  0.7500746691097788  1.0000
  C   C33       1.0  0.6683855479772944  0.22454346447020157  0.3423345980019903  1.0000
  C   C34       1.0  0.3316140502070652  0.7754570958529428  0.6576651031736418  1.0000
  C   C35       1.0  0.6740924727289368  0.2223490564222814  0.16406196409636914  1.0000
  C   C36       1.0  0.3259040423283396  0.77765150390087  0.8359384463934417  1.0000
  S   S1        1.0  0.8847398376239397  0.8099974310426319  0.2690535805608789  1.0000
  S   S2        1.0  0.11525929412498213  0.1900048918572637  0.730947628252963  1.0000
  S   S3        1.0  0.07176923681862485  0.9119025681501255  0.0983766502879533  1.0000
  S   S4        1.0  0.9282306420025321  0.0880988734613908  0.9016230630479071  1.0000
  S   S5        1.0  0.2602855328744127  0.22470209637728536  0.2642171969501845  1.0000
  S   S6        1.0  0.7397166820015926  0.7753002265226101  0.7357825544216681  1.0000
  S   S7        1.0  0.11583404454869142  0.1292286018134661  0.4544017355829695  1.0000
  S   S8        1.0  0.8841676090537192  0.8707719585096784  0.5455979914684121  1.0000
  S   S9        1.0  0.5165329613688101  0.793798469464754  0.429253980778185  1.0000
  S   S10       1.0  0.4834631782135121  0.2061976844165301  0.5707471299761336  1.0000
  S   S11       1.0  0.2662211114657467  0.8922419058444433  0.3914907740260744  1.0000
  S   S12       1.0  0.7337782060818155  0.1077577731903361  0.6085089149893149  1.0000
  S   S13       1.0  0.6581166788759703  0.8479413019275341  0.9747386221925395  1.0000
  S   S14       1.0  0.3418836663806246  0.1520583771072381  0.0252610797607318  1.0000
  S   S15       1.0  0.3972511080477971  0.8022967332423221  0.10156576904500268  1.0000
  S   S16       1.0  0.6027510119900583  0.19770206450407807  0.898434694751593  1.0000
  N   N1        1.0  0.8557800161915167  0.1020241110378066  0.25896635560176406  1.0000
  N   N2        1.0  0.1442185542838104  0.8979764492853448  0.7410340807637963  1.0000
  N   N3        1.0  0.6322276736937057  0.093775251869701  0.3436793044521663  1.0000
  N   N4        1.0  0.36777164385385663  0.9062244271650711  0.6563211326910334  1.0000
  N   N5        1.0  0.6386202157561344  0.0914521757193683  0.16096417801576732  1.0000
  N   N6        1.0  0.36137882115463077  0.9085466220270321  0.8390354988393867  1.0000
  N   N7        1.0  0.7547559931869047  0.2710323074164265  0.2555874620876962  1.0000
  N   N8        1.0  0.24524126894260695  0.7289673716183458  0.744412949179754  1.0000
  O   O1        1.0  0.8985885214028855  0.6956088441363946  0.1071424430355634  1.0000
  O   O2        1.0  0.1014106103460293  0.3043934787634939  0.8928572695226576  1.0000
  O   O3        1.0  0.2757088645974477  0.3471809105445445  0.42651993012395195  1.0000
  O   O4        1.0  0.7242926032063224  0.6528222936437231  0.5734813167258821  1.0000
  O   O5        1.0  0.2859091192659591  0.6752528453046835  0.343485621465966  1.0000
  O   O6        1.0  0.7140909453538314  0.3247459524417167  0.6565133201992522  1.0000
  O   O7        1.0  0.5740965644113203  0.6651814817819144  0.08282491957879759  1.0000
  O   O8        1.0  0.42590060288003434  0.3348146720993697  0.9171709672187304  1.0000
