data_image0
_chemical_formula_structural       Zn2H36C54N4O16
_chemical_formula_sum              "Zn2 H36 C54 N4 O16"
_cell_length_a       9.81683858402162
_cell_length_b       10.026761113450208
_cell_length_c       14.0184
_cell_angle_alpha    96.29532192249951
_cell_angle_beta     107.0041451171991
_cell_angle_gamma    110.52662540802008

_space_group_name_H-M_alt    "P 1"
_space_group_IT_number       1

loop_
  _space_group_symop_operation_xyz
  'x, y, z'

loop_
  _atom_site_type_symbol
  _atom_site_label
  _atom_site_symmetry_multiplicity
  _atom_site_fract_x
  _atom_site_fract_y
  _atom_site_fract_z
  _atom_site_occupancy
  Zn  Zn1       1.0  0.9924770551225492  0.3481389431114721  0.161693540100174  1.0000
  Zn  Zn2       1.0  0.007524586147241036  0.651864819563272  0.8383057357632709  1.0000
  H   H1        1.0  0.6345262640947668  0.5123928605688306  0.7423090425072304  1.0000
  H   H2        1.0  0.3654681768352788  0.4876065174706596  0.2576926949911567  1.0000
  H   H3        1.0  0.1743874483203243  0.22292472180843959  0.7197288910475521  1.0000
  H   H4        1.0  0.8256048621583005  0.7770746562310507  0.28026813006410123  1.0000
  H   H5        1.0  0.10693671638334482  0.1317615778980041  0.5322594670255327  1.0000
  H   H6        1.0  0.8930551255424818  0.8682367039826673  0.4677366588104946  1.0000
  H   H7        1.0  0.5663000440034622  0.4231710139176812  0.5567690886131871  1.0000
  H   H8        1.0  0.43369865782943867  0.576828364121809  0.44323423482879326  1.0000
  H   H9        1.0  0.9810797808182983  0.8352039581281048  0.16220512600514786  1.0000
  H   H10       1.0  0.018928379925903002  0.164797612229016  0.83779388634904  1.0000
  H   H11       1.0  0.3950566586982803  0.03810248036850079  0.5071833315514951  1.0000
  H   H12       1.0  0.6049451106916378  0.9618990899886198  0.49281865199858294  1.0000
  H   H13       1.0  0.31134220929403256  0.7781302571687617  0.4151160607607877  1.0000
  H   H14       1.0  0.6886620309799838  0.2218746016647941  0.5848859733723302  1.0000
  H   H15       1.0  0.9965489685696414  0.40597337828760516  0.39593973278017813  1.0000
  H   H16       1.0  0.003451010801519797  0.5940314805459508  0.6040600020611748  1.0000
  H   H17       1.0  0.795259362782339  0.3782087716922788  0.4789522378248776  1.0000
  H   H18       1.0  0.2047384019449794  0.621788414029588  0.5210443016286561  1.0000
  H   H19       1.0  0.5137080730306707  0.28346009230183  0.3657657783172469  1.0000
  H   H20       1.0  0.48628994793690333  0.7165327087847757  0.6342318964205376  1.0000
  H   H21       1.0  0.3126913832906056  0.1893526658174665  0.18562712665772108  1.0000
  H   H22       1.0  0.6873082556478849  0.8106489045396472  0.8143708538537953  1.0000
  H   H23       1.0  0.2513735352831645  0.1116076019470498  0.997699681888257  1.0000
  H   H24       1.0  0.7486298960053901  0.8883928722512522  0.002300415987569705  1.0000
  H   H25       1.0  0.3413007750877313  0.07980365012277699  0.851375550964633  1.0000
  H   H26       1.0  0.6587013786625775  0.9201913432814522  0.14862171537827612  1.0000
  H   H27       1.0  0.5678360467101343  0.11372318845772608  0.7908130781428966  1.0000
  H   H28       1.0  0.4321681093714673  0.8862739972641336  0.20918833694462793  1.0000
  H   H29       1.0  0.8367623315833727  0.21925258978212978  0.9203786254987636  1.0000
  H   H30       1.0  0.1632400344794718  0.7807478844161722  0.07962268092455106  1.0000
  H   H31       1.0  0.21645203100311514  0.40899329581969107  0.07743568837576481  1.0000
  H   H32       1.0  0.7835436032727757  0.5910038899021686  0.9225639815209163  1.0000
  H   H33       1.0  0.06670765047884691  0.382367598231923  0.9831655180759995  1.0000
  H   H34       1.0  0.9332925851325697  0.617632875966379  0.016834638701432404  1.0000
  H   H35       1.0  0.3684659393425846  0.4314711284559536  0.9646733175933732  1.0000
  H   H36       1.0  0.631514229028113  0.568517287995398  0.0353253506389706  1.0000
  C   C1        1.0  0.44981089836177557  0.427177474382205  0.8550337041000733  1.0000
  C   C2        1.0  0.5501940667052878  0.5728240959749087  0.1449725006374294  1.0000
  C   C3        1.0  0.4089049692408295  0.3731817873720829  0.7439510552884059  1.0000
  C   C4        1.0  0.5910892154489673  0.6268219753026614  0.256052400318417  1.0000
  C   C5        1.0  0.5188720252995083  0.42918454117031496  0.6976035046947828  1.0000
  C   C6        1.0  0.48112535506742665  0.5708192215044292  0.30240060535860647  1.0000
  C   C7        1.0  0.259968487284894  0.2659917054447405  0.6838896071090801  1.0000
  C   C8        1.0  0.7400299583077513  0.7340120572300037  0.31610901430779853  1.0000
  C   C9        1.0  0.2222455695273524  0.2143089135317879  0.5794704064639973  1.0000
  C   C10       1.0  0.7777478061769827  0.7856904645077022  0.42052825949285483  1.0000
  C   C11       1.0  0.4811133362992521  0.3792621803123594  0.5928413861986641  1.0000
  C   C12       1.0  0.5188811046308004  0.6207371977271308  0.4071617779960661  1.0000
  C   C13       1.0  0.33345182707235205  0.2715634806954057  0.5343408180932059  1.0000
  C   C14       1.0  0.6665462780876297  0.7284369935028963  0.4656560489938357  1.0000
  C   C15       1.0  0.0384632405000431  0.1126357989144182  0.23070116653559586  1.0000
  C   C16       1.0  0.961541852687141  0.8873635791250721  0.7692984723623227  1.0000
  C   C17       1.0  0.12237800345350541  0.026975372249381697  0.28527483763839  1.0000
  C   C18       1.0  0.8776283672719387  0.9730294865841813  0.7147262060961026  1.0000
  C   C19       1.0  0.24021506424498537  0.0827391634261971  0.3828781539382504  1.0000
  C   C20       1.0  0.7597914346005794  0.9172635030897354  0.6171234574383675  1.0000
  C   C21       1.0  0.07559646778832274  0.8804522978039202  0.2365272147766575  1.0000
  C   C22       1.0  0.9244125019413333  0.1195536571884546  0.7634715937903139  1.0000
  C   C23       1.0  0.3061682130334091  0.9928447494616676  0.4305463197552869  1.0000
  C   C24       1.0  0.6938344934620916  0.0071590132130837  0.5694560276497  1.0000
  C   C25       1.0  0.25925793680836046  0.8483984217700922  0.3795678943949739  1.0000
  C   C26       1.0  0.7407458349128576  0.1516053409046521  0.6204332444625251  1.0000
  C   C27       1.0  0.14373024527127848  0.7907031987633175  0.2811660773781099  1.0000
  C   C28       1.0  0.8562745916756569  0.20930056391142668  0.7188359929764091  1.0000
  C   C29       1.0  0.08877900948004222  0.6344380867411061  0.2262736033318831  1.0000
  C   C30       1.0  0.911222035116829  0.3655667720924498  0.7737263496583324  1.0000
  C   C31       1.0  0.8727236945101993  0.3631519342255983  0.34996844570574137  1.0000
  C   C32       1.0  0.12727700965400862  0.6368496361315152  0.6500290396064584  1.0000
  C   C33       1.0  0.7594815416264565  0.3476062099279531  0.3955661841276665  1.0000
  C   C34       1.0  0.2405186939849528  0.6523942642703489  0.6044318326052577  1.0000
  C   C35       1.0  0.6043332002567183  0.2940961212723536  0.33334300864305544  1.0000
  C   C36       1.0  0.39566490490326345  0.7059043529259483  0.6666545717921509  1.0000
  C   C37       1.0  0.562122097542229  0.25361168780141696  0.22555090745441222  1.0000
  C   C38       1.0  0.4378792032948979  0.746388786396885  0.7744466140791958  1.0000
  C   C39       1.0  0.684688617444074  0.271874789798531  0.1871299136553972  1.0000
  C   C40       1.0  0.3153134081860999  0.7281223959233287  0.812870351786245  1.0000
  C   C41       1.0  0.4048311995248995  0.1969457579208225  0.15516483975904555  1.0000
  C   C42       1.0  0.5951740217824196  0.8030514278010372  0.8448346534328195  1.0000
  C   C43       1.0  0.3709886857570694  0.1561028805177642  0.051764882097359105  1.0000
  C   C44       1.0  0.629012402767522  0.8438921128864649  0.9482343061412095  1.0000
  C   C45       1.0  0.6490869731971003  0.229882041799776  0.07828821980664466  1.0000
  C   C46       1.0  0.35091598953866315  0.7701173362397142  0.9217116961417346  1.0000
  C   C47       1.0  0.491807500078238  0.1703047141096619  0.010787061673610814  1.0000
  C   C48       1.0  0.5081902646490876  0.8296924716121978  0.9892109044762663  1.0000
  C   C49       1.0  0.46173371845566186  0.1275030009063016  0.904507015875872  1.0000
  C   C50       1.0  0.5382677105015929  0.8724952809743768  0.09549178664802581  1.0000
  C   C51       1.0  0.5854579923016914  0.1455863328579454  0.8717875344512436  1.0000
  C   C52       1.0  0.4145421591173175  0.8544064682286603  0.12821271662875947  1.0000
  C   C53       1.0  0.7377574033970263  0.2055122390508544  0.9442925635005182  1.0000
  C   C54       1.0  0.2622427480219756  0.7944805620357513  0.055707687579492  1.0000
  N   N1        1.0  0.7691144489839062  0.24729890919260808  0.04441984197822536  1.0000
  N   N2        1.0  0.23088710809347654  0.7526971803704328  0.9555795281877978  1.0000
  N   N3        1.0  0.836041585065246  0.3271069439506462  0.24894986357318066  1.0000
  N   N4        1.0  0.1639607809975985  0.6728935302476557  0.7510485894574473  1.0000
  O   O1        1.0  0.14347749338988788  0.5519093858071642  0.2734703852998024  1.0000
  O   O2        1.0  0.8565246164326937  0.44809547302639874  0.7265340659282913  1.0000
  O   O3        1.0  0.9872139549046182  0.5855494036445847  0.1358179183783932  1.0000
  O   O4        1.0  0.012789220143680799  0.4144554551889712  0.8641824709095333  1.0000
  O   O5        1.0  0.8952906577623595  0.0467193848039642  0.18191641581896795  1.0000
  O   O6        1.0  0.10471903676035049  0.9532832817119683  0.8180837099596943  1.0000
  O   O7        1.0  0.1219810205629699  0.2472035433758109  0.23645569351704415  1.0000
  O   O8        1.0  0.8780284177194845  0.7528035077753756  0.7635461503700612  1.0000
  O   O9        1.0  0.2966381718814759  0.23018677395001666  0.4294352240029369  1.0000
  O   O10       1.0  0.7033640660612406  0.7698158925659158  0.5705655147782522  1.0000
  O   O11       1.0  0.5864570027483822  0.5042067465471973  0.9148430155263371  1.0000
  O   O12       1.0  0.4135264894195885  0.4957794775865239  0.08515758814286303  1.0000
  O   O13       1.0  0.10233851578720991  0.3568468287284858  0.05021963788662732  1.0000
  O   O14       1.0  0.8976597174928999  0.6431514531521856  0.9497785101907041  1.0000
  O   O15       1.0  0.3312788695825191  0.3887373770990479  0.8875081190004722  1.0000
  O   O16       1.0  0.6687130162710275  0.6112510393523038  0.11249223552110985  1.0000
