data_image0
_chemical_formula_structural       H10Pb2C16N2O14
_chemical_formula_sum              "H10 Pb2 C16 N2 O14"
_cell_length_a       7.0940409176749375
_cell_length_b       7.486154364495238
_cell_length_c       9.763904750732582
_cell_angle_alpha    89.11202088459588
_cell_angle_beta     82.45371954642057
_cell_angle_gamma    76.84195288367799

_space_group_name_H-M_alt    "P 1"
_space_group_IT_number       1

loop_
  _space_group_symop_operation_xyz
  'x, y, z'

loop_
  _atom_site_type_symbol
  _atom_site_label
  _atom_site_symmetry_multiplicity
  _atom_site_fract_x
  _atom_site_fract_y
  _atom_site_fract_z
  _atom_site_occupancy
  H   H1        1.0  0.755579246551676  0.1784128788084516  0.661064544458931  1.0000
  H   H2        1.0  0.24440478692790887  0.821586529204211  0.3389342035625589  1.0000
  H   H3        1.0  0.7381919783666432  0.7603121364776869  0.3652766385107569  1.0000
  H   H4        1.0  0.2618232496561673  0.23968735596397286  0.6347234886554034  1.0000
  H   H5        1.0  0.7601942705608021  0.5304513271551768  0.5524972188548318  1.0000
  H   H6        1.0  0.2398249961939882  0.4695550155586758  0.44750141174665  1.0000
  H   H7        1.0  0.7390170531939475  0.765131728472717  0.11696187371303783  1.0000
  H   H8        1.0  0.2609845513519246  0.2348661947915787  0.8830261515202126  1.0000
  H   H9        1.0  0.5199196180258383  0.7537597670263734  0.1443781945975502  1.0000
  H   H10       1.0  0.4800779161220488  0.2462368800611543  0.8556173776918925  1.0000
  Pb  Pb1       1.0  0.7701123834657935  0.3600538085010284  0.087412219271144  1.0000
  Pb  Pb2       1.0  0.2298767009368844  0.6399427742187598  0.9125799927838045  1.0000
  C   C1        1.0  0.7742382360887561  0.7234148461026704  0.7115295288124841  1.0000
  C   C2        1.0  0.22576578578716772  0.2765778324312222  0.2884757913663165  1.0000
  C   C3        1.0  0.7708805223206737  0.9074835376894723  0.7433200294750507  1.0000
  C   C4        1.0  0.22911078246089994  0.09253241413311739  0.2566829157150821  1.0000
  C   C5        1.0  0.7594762075964849  0.03587291410129719  0.6379065668222668  1.0000
  C   C6        1.0  0.2405052926995736  0.9641362392785452  0.3621024733481804  1.0000
  C   C7        1.0  0.7516566527241292  0.9798877563717807  0.5037686435993579  1.0000
  C   C8        1.0  0.24833899529414077  0.0201159065068879  0.49623823682740914  1.0000
  C   C9        1.0  0.7511490847421384  0.7990135262606017  0.47043015549623146  1.0000
  C   C10       1.0  0.24885663345631306  0.20099006012773654  0.52956970348896  1.0000
  C   C11       1.0  0.7624780622322687  0.6717121266199795  0.5759117790562983  1.0000
  C   C12       1.0  0.2375355102119983  0.32828866540552326  0.4240833478977137  1.0000
  C   C13       1.0  0.7784902769812944  0.5802098962368517  0.8217228418332853  1.0000
  C   C14       1.0  0.22151507163540163  0.41978398491021096  0.17827004999656282  1.0000
  C   C15       1.0  0.7758572870254666  0.9714465062175889  0.8885171607920342  1.0000
  C   C16       1.0  0.22413188040881946  0.0285544350270825  0.1114923804994703  1.0000
  N   N1        1.0  0.7395755406847683  0.11565102684035367  0.3949512740836454  1.0000
  N   N2        1.0  0.26042125507770214  0.884353966552183  0.6050524100663353  1.0000
  O   O1        1.0  0.6153676462178481  0.559262209765265  0.8823241385808842  1.0000
  O   O2        1.0  0.3846380992020499  0.4407191512973654  0.11765664736721962  1.0000
  O   O3        1.0  0.9408088969513742  0.48284726082438567  0.8476628363468707  1.0000
  O   O4        1.0  0.059195764834399256  0.5171493783210934  0.152331091066209  1.0000
  O   O5        1.0  0.8659431149619222  0.8599471821127692  0.9696097978684153  1.0000
  O   O6        1.0  0.13405748453689628  0.1400537265289685  0.0303956755207864  1.0000
  O   O7        1.0  0.6871858683525005  0.13706806801180696  0.9186913428865183  1.0000
  O   O8        1.0  0.312802877945522  0.8629287562982029  0.08131830752695632  1.0000
  O   O9        1.0  0.7543142858682189  0.2737358437450723  0.4216989793896602  1.0000
  O   O10       1.0  0.24569199983010037  0.7262650699119816  0.5783059987270818  1.0000
  O   O11       1.0  0.7151919067521746  0.06706205213475869  0.27808928638394553  1.0000
  O   O12       1.0  0.28480534992357304  0.9329470297700694  0.7219122370724733  1.0000
  O   O13       1.0  0.6512316253690427  0.6965650813809957  0.17091440762779803  1.0000
  O   O14       1.0  0.348774851103343  0.30343014449113775  0.8290763137110629  1.0000
