data_image0
_chemical_formula_structural       Al6H62C84O37
_chemical_formula_sum              "Al6 H62 C84 O37"
_cell_length_a       13.433442566356629
_cell_length_b       13.641650276916081
_cell_length_c       27.48836322391175
_cell_angle_alpha    89.54435876565663
_cell_angle_beta     90.19844734267151
_cell_angle_gamma    59.05600504651628

_space_group_name_H-M_alt    "P 1"
_space_group_IT_number       1

loop_
  _space_group_symop_operation_xyz
  'x, y, z'

loop_
  _atom_site_type_symbol
  _atom_site_label
  _atom_site_symmetry_multiplicity
  _atom_site_fract_x
  _atom_site_fract_y
  _atom_site_fract_z
  _atom_site_occupancy
  Al  Al1       1.0  0.8451184323802888  0.5689504366688495  0.4957004669645285  1.0000
  Al  Al2       1.0  0.5961196291435795  0.5904030529712542  0.49725128946987246  1.0000
  Al  Al3       1.0  0.6022050983385295  0.8066786329838678  0.49855282497823344  1.0000
  Al  Al4       1.0  0.8345507677465063  0.0736743080188376  0.9871664142453795  1.0000
  Al  Al5       1.0  0.07499360947125668  0.0719782141425895  0.9832034661392868  1.0000
  Al  Al6       1.0  0.08724261902816  0.8463815714617411  0.9855012593850178  1.0000
  H   H1        1.0  0.3735635612375886  0.962410610178743  0.203399064051716  1.0000
  H   H2        1.0  0.45446136725273306  0.929922295988639  0.6267712802204244  1.0000
  H   H3        1.0  0.9397021226544877  0.6058659647435432  0.6293677895600283  1.0000
  H   H4        1.0  0.6141391608552238  0.42810307782029605  0.62475488551231  1.0000
  H   H5        1.0  0.37120185672816314  0.667030302164676  0.7804902622012051  1.0000
  H   H6        1.0  0.6832636823978221  0.9514358030132966  0.7821623526282906  1.0000
  H   H7        1.0  0.9789208880039479  0.33034887263880097  0.7708244056491155  1.0000
  H   H8        1.0  0.3134761695769369  0.6963237746991169  0.8673461236996757  1.0000
  H   H9        1.0  0.7192409733089346  0.9770810765782868  0.8689058044303978  1.0000
  H   H10       1.0  0.009369886781350053  0.2793385102710744  0.8590628799701464  1.0000
  H   H11       1.0  0.3966780510818919  0.9576611533980566  0.7135533252148606  1.0000
  H   H12       1.0  0.9774121732958957  0.6554339967762387  0.2012703699588414  1.0000
  H   H13       1.0  0.9768054349041858  0.635531919312939  0.7152936634769915  1.0000
  H   H14       1.0  0.6557732242643793  0.3562177944424504  0.7104271530942725  1.0000
  H   H15       1.0  0.25221720173666273  0.025971742437981504  0.7656210444677427  1.0000
  H   H16       1.0  0.04961456470839205  0.7145504726379954  0.7642862047862025  1.0000
  H   H17       1.0  0.7432782577940459  0.20482210833578304  0.7614332336488374  1.0000
  H   H18       1.0  0.20274044888225257  0.0520949006693527  0.8532628721203537  1.0000
  H   H19       1.0  0.08269374654225452  0.7352181597379754  0.8517698945190588  1.0000
  H   H20       1.0  0.7682553157837543  0.16209573521052079  0.8504117841498982  1.0000
  H   H21       1.0  0.31029544271213877  0.6946163172979211  0.7024602567995402  1.0000
  H   H22       1.0  0.705021754607486  0.9895242603270658  0.7031923708087151  1.0000
  H   H23       1.0  0.6866014860244078  0.35200110584370486  0.1845778916607088  1.0000
  H   H24       1.0  0.012282378144583064  0.2650488963129333  0.6933144505577573  1.0000
  H   H25       1.0  0.4521115703202269  0.9033603202475574  0.2825123355835757  1.0000
  H   H26       1.0  0.9766830940777639  0.6631389815501194  0.2873473713643264  1.0000
  H   H27       1.0  0.6622568908178507  0.3560791061267495  0.2701793026952402  1.0000
  H   H28       1.0  0.37493126237036717  0.6634689853614261  0.6164586799198731  1.0000
  H   H29       1.0  0.6657478134529952  0.9567169694954243  0.6180636840690781  1.0000
  H   H30       1.0  0.9670019964217217  0.34326756848798107  0.6083208963158526  1.0000
  H   H31       1.0  0.16106106802369888  0.9254052241856737  0.30159646157773773  1.0000
  H   H32       1.0  0.8730151209989925  0.9720905290696531  0.295381884701591  1.0000
  H   H33       1.0  0.9794716550756133  0.1709937603003908  0.2975469505596493  1.0000
  H   H34       1.0  0.5248042224237606  0.7581079070954644  0.2674907473347261  1.0000
  H   H35       1.0  0.22666916549011512  0.007280933360533501  0.2910581535849488  1.0000
  H   H36       1.0  0.9905132333383402  0.8354216597025543  0.31208149695798676  1.0000
  H   H37       1.0  0.8463177931146714  0.17524027534314968  0.30393904911804276  1.0000
  H   H38       1.0  0.16623501157285148  0.022348794929783394  0.20997113816829233  1.0000
  H   H39       1.0  0.049192052140185114  0.7873223174931638  0.2302943601352965  1.0000
  H   H40       1.0  0.828159140474227  0.15774907718012088  0.2193485544895708  1.0000
  H   H41       1.0  0.12970239703976463  0.9157409085112461  0.2183387194913067  1.0000
  H   H42       1.0  0.9625004763066292  0.9361094732748969  0.2193103853670095  1.0000
  H   H43       1.0  0.9783565848162463  0.10614979546582501  0.2186780123656362  1.0000
  H   H44       1.0  0.26675398392348615  0.724062182488659  0.2822406141475611  1.0000
  H   H45       1.0  0.8399380502229477  0.6753068085225421  0.2819719747005323  1.0000
  H   H46       1.0  0.6755748444397012  0.0013751108915158994  0.2822559946706846  1.0000
  H   H47       1.0  0.9792033989402567  0.35748183811752915  0.2906965453239465  1.0000
  H   H48       1.0  0.27697918356582096  0.6287335250092454  0.2063961704434902  1.0000
  H   H49       1.0  0.6656894176728512  0.10161498654181861  0.2107800679500329  1.0000
  H   H50       1.0  0.11114546276154867  0.26251378068406683  0.23187977107338043  1.0000
  H   H51       1.0  0.49876939223510397  0.5831308930979445  0.260964557717358  1.0000
  H   H52       1.0  0.6168324251296864  0.8806918443590915  0.2306876720889974  1.0000
  H   H53       1.0  0.855046485825177  0.5264889143592127  0.2319171903177164  1.0000
  H   H54       1.0  0.44905841710133376  0.6473027585414854  0.1601810619605644  1.0000
  H   H55       1.0  0.6984492290363205  0.9319760974005148  0.14613801732936343  1.0000
  H   H56       1.0  0.6626751391528244  0.4860225114669204  0.2672827650649694  1.0000
  H   H57       1.0  0.9523492318174506  0.38802761111408296  0.15124107707224968  1.0000
  H   H58       1.0  0.4806696539372266  0.8226420418075833  0.186301326317853  1.0000
  H   H59       1.0  0.8254205409683234  0.7157035361915262  0.1977408271385812  1.0000
  H   H60       1.0  0.7241124709955996  0.45855811062849466  0.18669039313063246  1.0000
  H   H61       1.0  0.03804285312678955  0.5100082823493892  0.516246930135722  1.0000
  H   H62       1.0  0.6405516440994246  0.19839338651390645  0.9641089667531233  1.0000
  C   C1        1.0  0.762751545029424  0.783467676414908  0.43167556320159417  1.0000
  C   C2        1.0  0.2846487973234843  0.8633361804012477  0.1443074449052517  1.0000
  C   C3        1.0  0.9018501809710668  0.8434798404809739  0.1494834108005918  1.0000
  C   C4        1.0  0.8904623762021158  0.2573397936838616  0.14562210342755583  1.0000
  C   C5        1.0  0.37338475568493823  0.8106438976790853  0.3423610286672911  1.0000
  C   C6        1.0  0.8077060234597654  0.8307933763539308  0.34402077911216367  1.0000
  C   C7        1.0  0.8036960775020461  0.372662620482096  0.3389491254934427  1.0000
  C   C8        1.0  0.4008175438766483  0.7991655393013773  0.3851584876217373  1.0000
  C   C9        1.0  0.7885272868519307  0.8170399182031076  0.3859255314373513  1.0000
  C   C10       1.0  0.7841833520817828  0.40450649461951116  0.3807949103536075  1.0000
  C   C11       1.0  0.917182081324725  0.19655472770417498  0.0533656000514213  1.0000
  C   C12       1.0  0.7620865058288826  0.45920438626846044  0.42724460812089393  1.0000
  C   C13       1.0  0.21751907995103176  0.8951764343976264  0.0523308475129625  1.0000
  C   C14       1.0  0.9275308274061371  0.8762634895678614  0.0565804919282442  1.0000
  C   C15       1.0  0.41752614039778246  0.7956225431163446  0.6162042510303322  1.0000
  C   C16       1.0  0.8006554269044982  0.7793225597916659  0.618727959045458  1.0000
  C   C17       1.0  0.7882465328911719  0.3901563484718834  0.6119040887761713  1.0000
  C   C18       1.0  0.42160706527835845  0.8797360420856606  0.643679059570296  1.0000
  C   C19       1.0  0.8896101594304111  0.6895494541474959  0.64608520058664  1.0000
  C   C20       1.0  0.7011430181605717  0.39120618272774965  0.6401894269036532  1.0000
  C   C21       1.0  0.38844743445750374  0.895203770860533  0.6921593455364885  1.0000
  C   C22       1.0  0.9102190887852044  0.7070399431220621  0.6938411560286825  1.0000
  C   C23       1.0  0.45706880801323996  0.769695348383969  0.43191166912058776  1.0000
  C   C24       1.0  0.7252093148590856  0.35022048360878694  0.6878137067382538  1.0000
  C   C25       1.0  0.3490049117287697  0.8283356606153588  0.714589644082892  1.0000
  C   C26       1.0  0.8433433521120858  0.8146596579059276  0.7155947186273579  1.0000
  C   C27       1.0  0.8366454437220693  0.30662715302840127  0.7081445726216131  1.0000
  C   C28       1.0  0.7750004831000791  0.7555523196205344  0.5689411398582749  1.0000
  C   C29       1.0  0.7602475609523437  0.44716336272237805  0.5633765696133324  1.0000
  C   C30       1.0  0.4652651177084833  0.7714598921792939  0.5661596454552438  1.0000
  C   C31       1.0  0.3432511057618867  0.7456250015789151  0.6863390650610697  1.0000
  C   C32       1.0  0.755681540616308  0.904666648787888  0.6874811473972571  1.0000
  C   C33       1.0  0.9244487529690203  0.302031321454855  0.6786820470129982  1.0000
  C   C34       1.0  0.3413577165671811  0.7268371310652596  0.21298904019597134  1.0000
  C   C35       1.0  0.3778168456671761  0.7287399354248336  0.6379788903659289  1.0000
  C   C36       1.0  0.7340533307578666  0.8872508975701974  0.639745131473937  1.0000
  C   C37       1.0  0.9005304846928293  0.3439564614174557  0.6312193865209679  1.0000
  C   C38       1.0  0.33258322320887856  0.7521630883897998  0.7959952339875542  1.0000
  C   C39       1.0  0.7713953175949865  0.9054147953033718  0.7969872044557746  1.0000
  C   C40       1.0  0.9344394832651656  0.2911724480559315  0.7879107724560797  1.0000
  C   C41       1.0  0.30207617153877914  0.7675918556911867  0.8448263552655604  1.0000
  C   C42       1.0  0.7904535390193882  0.9189200660456862  0.8455407476547094  1.0000
  C   C43       1.0  0.9504622150751413  0.2644993534632505  0.8373021329294161  1.0000
  C   C44       1.0  0.24092091288092368  0.9678960388240296  0.836982756026444  1.0000
  C   C45       1.0  0.7519759681627604  0.9358351994259307  0.21172415448350532  1.0000
  C   C46       1.0  0.9954766871655422  0.7815236835489329  0.8361366585090835  1.0000
  C   C47       1.0  0.8132626948567108  0.19960488633260098  0.8324319183359564  1.0000
  C   C48       1.0  0.2694135443264755  0.9524465997581258  0.7879996052617528  1.0000
  C   C49       1.0  0.9762907222610905  0.7698894801634849  0.787351721515222  1.0000
  C   C50       1.0  0.7993303362461219  0.22421789929181554  0.7829091038361327  1.0000
  C   C51       1.0  0.3165296280130149  0.8442773484930868  0.7664812306178846  1.0000
  C   C52       1.0  0.8638919606182681  0.8307271784270682  0.7669049255767887  1.0000
  C   C53       1.0  0.8580563601777697  0.27224953927402845  0.7598640462795174  1.0000
  C   C54       1.0  0.2566358579542296  0.875615385942943  0.8658855477511694  1.0000
  C   C55       1.0  0.9026467978492009  0.85634067749195  0.8656202768609161  1.0000
  C   C56       1.0  0.9476786542935823  0.3298141655371083  0.215746164667749  1.0000
  C   C57       1.0  0.8885417550413447  0.22016156985278454  0.8600728194280123  1.0000
  C   C58       1.0  0.9061369833044423  0.1878372152950405  0.9123589980788225  1.0000
  C   C59       1.0  0.21458806944143993  0.8963544857170761  0.9166732797160009  1.0000
  C   C60       1.0  0.9234853696454476  0.8769279002092601  0.9166020234956278  1.0000
  C   C61       1.0  0.4411336120014722  0.8385444179937948  0.2640868377553645  1.0000
  C   C62       1.0  0.8894750865185227  0.7152051310055612  0.271307507275111  1.0000
  C   C63       1.0  0.7123667251769558  0.3950643907200018  0.2584847962194132  1.0000
  C   C64       1.0  0.2265063748428202  0.9304184328018295  0.2795838410323626  1.0000
  C   C65       1.0  0.9177162574425282  0.8808753809050881  0.2863472897392469  1.0000
  C   C66       1.0  0.8912319959972945  0.20888111677711407  0.2824571819235615  1.0000
  C   C67       1.0  0.3474429600950869  0.7184986789966173  0.2698423066382318  1.0000
  C   C68       1.0  0.19743572874529045  0.9362974253277156  0.2247098853695135  1.0000
  C   C69       1.0  0.9609780706795802  0.8615897560752117  0.23332424038308372  1.0000
  C   C70       1.0  0.8940449382526338  0.1796235309955349  0.2281916985701642  1.0000
  C   C71       1.0  0.26554990412698476  0.8736747097415715  0.10068904565518719  1.0000
  C   C72       1.0  0.9136061317778111  0.8488427617844817  0.10585456949493731  1.0000
  C   C73       1.0  0.9015047746434417  0.23936531166203423  0.10214415207244798  1.0000
  C   C74       1.0  0.3477628288080864  0.8245448223354614  0.29061760807389453  1.0000
  C   C75       1.0  0.83311028770359  0.8364936131291143  0.2931917312388137  1.0000
  C   C76       1.0  0.8267866483095927  0.3403304301054248  0.2883605128384161  1.0000
  C   C77       1.0  0.4062491092659855  0.8712775677736173  0.21026368097690104  1.0000
  C   C78       1.0  0.7196489400629102  0.9172842994810749  0.2642213331315872  1.0000
  C   C79       1.0  0.8943479196932244  0.723530605436025  0.21556484470016102  1.0000
  C   C80       1.0  0.7403120257317325  0.3786807912007789  0.2038610591567576  1.0000
  C   C81       1.0  0.30693462564759233  0.8499383575265467  0.1963384953737659  1.0000
  C   C82       1.0  0.8795212521309848  0.8404270304733713  0.2008225881875205  1.0000
  C   C83       1.0  0.8695607521157809  0.2845695622496224  0.1967126059861215  1.0000
  C   C84       1.0  0.9030042293272372  0.385418995145244  0.2665205791794207  1.0000
  O   O1        1.0  0.8348780305220342  0.48541062334123797  0.441522032429269  1.0000
  O   O2        1.0  0.8347785057757587  0.4642414871307423  0.5437437346262683  1.0000
  O   O3        1.0  0.4835852985945479  0.6796386310202321  0.546061676906902  1.0000
  O   O4        1.0  0.6823473571055484  0.8344925224179037  0.5475028884154014  1.0000
  O   O5        1.0  0.8440676304658934  0.6579897554031362  0.5516673585682171  1.0000
  O   O6        1.0  0.6581189260383126  0.4799964863956203  0.545692460299918  1.0000
  O   O7        1.0  0.490901034725695  0.8419064728309136  0.5471906883572046  1.0000
  O   O8        1.0  0.679311099047268  0.6564732378689796  0.49742659219607077  1.0000
  O   O9        1.0  0.0008371939529396296  0.9965996077209384  0.9854723365138085  1.0000
  O   O10       1.0  0.84493751609331  0.17097475954413713  0.038191252374154806  1.0000
  O   O11       1.0  0.1909048072084473  0.9903969317469431  0.0321316070967512  1.0000
  O   O12       1.0  0.4807822339655841  0.6730866240073752  0.450200754074487  1.0000
  O   O13       1.0  0.020131886242467145  0.8032956582982107  0.03408063553722939  1.0000
  O   O14       1.0  0.8453344838348398  0.9659113542010613  0.9370058341488628  1.0000
  O   O15       1.0  0.9969486968522357  0.17823745309556926  0.9334255655624801  1.0000
  O   O16       1.0  0.2009656776662751  0.8202958882133656  0.9380068660652086  1.0000
  O   O17       1.0  0.8340566667735628  0.16764235599156763  0.9326740061216868  1.0000
  O   O18       1.0  0.1881312974210729  0.9924106212011592  0.9355131313868342  1.0000
  O   O19       1.0  0.022793610084036672  0.8042778542548985  0.9361416058413211  1.0000
  O   O20       1.0  0.25737287026020544  0.7038349668877896  0.1939665652623361  1.0000
  O   O21       1.0  0.7471136005705359  0.0421459791793097  0.20758287483964472  1.0000
  O   O22       1.0  0.06269051566043513  0.23433850861557207  0.2191655138681483  1.0000
  O   O23       1.0  0.6644267795265363  0.8556542702073454  0.4512483249901251  1.0000
  O   O24       1.0  0.44048655617822136  0.6125136486407567  0.286615593634032  1.0000
  O   O25       1.0  0.6468326695491199  0.8705833306238658  0.2639833223047177  1.0000
  O   O26       1.0  0.8367295177556214  0.5064071389214675  0.2635363997920521  1.0000
  O   O27       1.0  0.453785475091024  0.6449447366037049  0.19567682567748076  1.0000
  O   O28       1.0  0.6709405216163873  0.9337268088457833  0.1792916587211906  1.0000
  O   O29       1.0  0.9440248859622499  0.4152617335052469  0.1847094874619302  1.0000
  O   O30       1.0  0.8487780133830533  0.972043120370614  0.0403264631627351  1.0000
  O   O31       1.0  0.0066016635877516995  0.18387310929631434  0.030200375400831096  1.0000
  O   O32       1.0  0.19941856253323234  0.8194830319002402  0.0341506721005587  1.0000
  O   O33       1.0  0.8351546002376935  0.6853758300220458  0.4481230964941503  1.0000
  O   O34       1.0  0.6691071230632414  0.47975728650767013  0.4494835826254189  1.0000
  O   O35       1.0  0.4845335592144551  0.8379304930511109  0.4508243537021457  1.0000
  O   O36       1.0  0.997342184254918  0.48735958426305365  0.4942864645098978  1.0000
  O   O37       1.0  0.6826089244834888  0.1451971960663556  0.9903574704403724  1.0000
