data_image0
_chemical_formula_structural       Ag4H20C20N8O8
_chemical_formula_sum              "Ag4 H20 C20 N8 O8"
_cell_length_a       5.081295497744064
_cell_length_b       8.862718479618758
_cell_length_c       13.54645567184495
_cell_angle_alpha    90.00009202745507
_cell_angle_beta     90.0011388708411
_cell_angle_gamma    106.02131217094505

_space_group_name_H-M_alt    "P 1"
_space_group_IT_number       1

loop_
  _space_group_symop_operation_xyz
  'x, y, z'

loop_
  _atom_site_type_symbol
  _atom_site_label
  _atom_site_symmetry_multiplicity
  _atom_site_fract_x
  _atom_site_fract_y
  _atom_site_fract_z
  _atom_site_occupancy
  Ag  Ag1       1.0  0.19291190459205154  0.26981619833435394  0.3155719481113833  1.0000
  Ag  Ag2       1.0  0.3070921864760977  0.7301917129325446  0.8155757437947242  1.0000
  Ag  Ag3       1.0  0.807085127930428  0.7301812232637842  0.6844228945866531  1.0000
  Ag  Ag4       1.0  0.6929101539872278  0.2698127574178102  0.18442205172814846  1.0000
  H   H1        1.0  0.5221787133809387  0.7602448131256097  0.475929739834143  1.0000
  H   H2        1.0  0.9778491546033836  0.2397667229821536  0.9759326535167147  1.0000
  H   H3        1.0  0.47781827190944887  0.23976081527464302  0.5240746994749371  1.0000
  H   H4        1.0  0.022162529946591375  0.760228393231003  0.024068833035542494  1.0000
  H   H5        1.0  0.622705130951715  0.0767556440075623  0.4218151483138897  1.0000
  H   H6        1.0  0.8773073126261368  0.9232505300338049  0.9218189352573346  1.0000
  H   H7        1.0  0.37728483021049913  0.923247620667702  0.5781863381672209  1.0000
  H   H8        1.0  0.12268835334034382  0.07673985347019399  0.07818328943633188  1.0000
  H   H9        1.0  0.23491230891274048  0.8959258726880607  0.2992338889263735  1.0000
  H   H10       1.0  0.2650992098781018  0.10408304043805572  0.7992329298132858  1.0000
  H   H11       1.0  0.7650759835910251  0.1040738702690618  0.7007675975467292  1.0000
  H   H12       1.0  0.7349278892330846  0.8959238412712124  0.20075896019406506  1.0000
  H   H13       1.0  0.9858381214187163  0.6187282981882304  0.4793587429736518  1.0000
  H   H14       1.0  0.5141697445085569  0.3812738448119077  0.9793578417042282  1.0000
  H   H15       1.0  0.014167349613551069  0.3812703185404231  0.5206412671580265  1.0000
  H   H16       1.0  0.4858323890926643  0.6187177284586484  0.020638477409050893  1.0000
  H   H17       1.0  0.11001261617069255  0.6249148006278062  0.35731637431015867  1.0000
  H   H18       1.0  0.3899906717157791  0.3750947675848479  0.8573151474213956  1.0000
  H   H19       1.0  0.8899660778554549  0.3750896061320717  0.64267994472884  1.0000
  H   H20       1.0  0.610010858114265  0.624903838520659  0.1426804334936094  1.0000
  C   C1        1.0  0.6806736363693916  0.8363697459609368  0.43084843922589033  1.0000
  C   C2        1.0  0.8193379039725315  0.16364591024370873  0.9308494099515555  1.0000
  C   C3        1.0  0.31930985704394743  0.16363232892593518  0.5691552618332452  1.0000
  C   C4        1.0  0.18066225914171252  0.8363456577370982  0.06914838555575639  1.0000
  C   C5        1.0  0.7341141963506531  0.9920182946462643  0.4050567358167  1.0000
  C   C6        1.0  0.7658888198002884  0.0079782793417138  0.9050564023828326  1.0000
  C   C7        1.0  0.26587353993362944  0.007980274404808098  0.5949447506537238  1.0000
  C   C8        1.0  0.2341098815176111  0.9920226640007571  0.09494286952606497  1.0000
  C   C9        1.0  0.053933688431918494  0.9047097245923368  0.3383268806431585  1.0000
  C   C10       1.0  0.44608221880896093  0.09529965615913481  0.8383286559380065  1.0000
  C   C11       1.0  0.9460551603141598  0.095291192275198  0.6616753440330853  1.0000
  C   C12       1.0  0.5539277493254178  0.9047001450376017  0.16166544860637083  1.0000
  C   C13       1.0  0.9313685668498835  0.6300416955781073  0.40148505276671637  1.0000
  C   C14       1.0  0.5686522178739254  0.36995957424773007  0.901495592516312  1.0000
  C   C15       1.0  0.06862932369777044  0.3699533834933248  0.5985075753314675  1.0000
  C   C16       1.0  0.4313661889985242  0.6300414221231705  0.0985110614664393  1.0000
  C   C17       1.0  0.6965770211640958  0.4881617186488398  0.3736458644873081  1.0000
  C   C18       1.0  0.8034282004169101  0.5118473915934912  0.8736537953783665  1.0000
  C   C19       1.0  0.30341576853309243  0.5118392087938303  0.6263526692003794  1.0000
  C   C20       1.0  0.19658399282369035  0.48815710527107836  0.1263476911814365  1.0000
  N   N1        1.0  0.8843803091013883  0.7831129719857088  0.38772049606245657  1.0000
  N   N2        1.0  0.6156334105214966  0.21689163552549223  0.8877208423075158  1.0000
  N   N3        1.0  0.11560237374715857  0.21688323866941772  0.6122832049902269  1.0000
  N   N4        1.0  0.38439515063715385  0.7831058708701305  0.11227769150346487  1.0000
  N   N5        1.0  0.9678365925044402  0.033346173152629915  0.3474404190711339  1.0000
  N   N6        1.0  0.5321832811802665  0.9666720502086861  0.8474455307826787  1.0000
  N   N7        1.0  0.0321519543446415  0.9666582601302026  0.6525610674057347  1.0000
  N   N8        1.0  0.46783199494061734  0.0333347997489923  0.15255300298748148  1.0000
  O   O1        1.0  0.47873189574329444  0.5080659588393815  0.3353753241110127  1.0000
  O   O2        1.0  0.021271704053155916  0.4919468716692849  0.8353827288407841  1.0000
  O   O3        1.0  0.5212767056296386  0.4919268042239225  0.6646195186247252  1.0000
  O   O4        1.0  0.9787249792032569  0.5080622731200676  0.1646165430660815  1.0000
  O   O5        1.0  0.7387126976495183  0.35653604677391826  0.39151481199439786  1.0000
  O   O6        1.0  0.7612905461644177  0.643470921682571  0.8915240856207302  1.0000
  O   O7        1.0  0.26128347712172234  0.6434637174033071  0.6084911037091913  1.0000
  O   O8        1.0  0.23870674120558996  0.3565311903373001  0.1084869974915179  1.0000
