data_image0
_chemical_formula_structural       Nd4P4H28C12O40
_chemical_formula_sum              "Nd4 P4 H28 C12 O40"
_cell_length_a       6.905117311882065
_cell_length_b       10.192060210691869
_cell_length_c       13.385829179082778
_cell_angle_alpha    89.99970876708602
_cell_angle_beta     89.99977543408713
_cell_angle_gamma    100.50784836519585

_space_group_name_H-M_alt    "P 1"
_space_group_IT_number       1

loop_
  _space_group_symop_operation_xyz
  'x, y, z'

loop_
  _atom_site_type_symbol
  _atom_site_label
  _atom_site_symmetry_multiplicity
  _atom_site_fract_x
  _atom_site_fract_y
  _atom_site_fract_z
  _atom_site_occupancy
  Nd  Nd1       1.0  0.1585501907026625  0.2793003064329155  0.8976508273562588  1.0000
  Nd  Nd2       1.0  0.8414539260468673  0.22069980267793451  0.39765205863459835  1.0000
  Nd  Nd3       1.0  0.8414527639576262  0.7206985880853906  0.10234702253313088  1.0000
  Nd  Nd4       1.0  0.15854348623340536  0.7793000607111364  0.6023502736109022  1.0000
  P   P1        1.0  0.779837347598168  0.07374734790150227  0.053145542162141596  1.0000
  P   P2        1.0  0.22016292878182506  0.4262504767945501  0.5531421265751604  1.0000
  P   P3        1.0  0.22017114939278312  0.9262505777045503  0.9468582841927853  1.0000
  P   P4        1.0  0.779832517226538  0.5737473836457098  0.446854229206714  1.0000
  H   H1        1.0  0.5432216516263111  0.19761757051735168  0.05455674830505328  1.0000
  H   H2        1.0  0.4567863781910618  0.30238227492827713  0.5545533081479519  1.0000
  H   H3        1.0  0.45678948752551213  0.802379371735995  0.9454411015794619  1.0000
  H   H4        1.0  0.5432170926562494  0.6976186153186247  0.44544454173708903  1.0000
  H   H5        1.0  0.9030757803158665  0.9885343847211981  0.2555771486549574  1.0000
  H   H6        1.0  0.09692089196291682  0.5114590711427596  0.7555770688550183  1.0000
  H   H7        1.0  0.09692085768740101  0.011462485077949197  0.7444244365383809  1.0000
  H   H8        1.0  0.9030752298674258  0.4885358029396584  0.24442152810790668  1.0000
  H   H9        1.0  0.7907906118930657  0.34641959477055206  0.949460049243413  1.0000
  H   H10       1.0  0.20920215209033444  0.1535660968372241  0.4494725769733349  1.0000
  H   H11       1.0  0.20921037647767804  0.6535772967841281  0.050535559475797194  1.0000
  H   H12       1.0  0.7907931954171873  0.8464257836167377  0.5505349847003912  1.0000
  H   H13       1.0  0.8755007475445498  0.48740288364034257  0.8996099590568816  1.0000
  H   H14       1.0  0.12449149173897213  0.012596154122377398  0.3996075144797757  1.0000
  H   H15       1.0  0.12449299024663672  0.51259397168279  0.1003886379047714  1.0000
  H   H16       1.0  0.8755047285358162  0.98740469989891  0.6003918295303308  1.0000
  H   H17       1.0  0.602176026125754  0.3264552860358094  0.8161573741819907  1.0000
  H   H18       1.0  0.3978255415374294  0.17354943946766344  0.3161671881720665  1.0000
  H   H19       1.0  0.3978216442832831  0.6735455752472034  0.18383748747444884  1.0000
  H   H20       1.0  0.6021706787091716  0.8264514145299057  0.6838381323075564  1.0000
  H   H21       1.0  0.46027120081659945  0.34130131478986664  0.7245008643773331  1.0000
  H   H22       1.0  0.5397272990694547  0.15870013212988712  0.2245081956600785  1.0000
  H   H23       1.0  0.5397272438694359  0.6587025400830695  0.2754947443312616  1.0000
  H   H24       1.0  0.4602698551032134  0.8412987333830273  0.7754971248223581  1.0000
  H   H25       1.0  0.0952233764280663  0.0959300881729277  0.1362452924303739  1.0000
  H   H26       1.0  0.9047766320382638  0.404069072782143  0.6362472464138875  1.0000
  H   H27       1.0  0.9047828349752154  0.9040757986186422  0.8637577868530854  1.0000
  H   H28       1.0  0.09521933013949277  0.5959307833718838  0.36375284465707836  1.0000
  C   C1        1.0  0.9588175890903302  0.1334917782119547  0.1537210043965374  1.0000
  C   C2        1.0  0.04118489663109412  0.366506260696049  0.6537204340443026  1.0000
  C   C3        1.0  0.04118298151316686  0.8665090975322514  0.8462805807850201  1.0000
  C   C4        1.0  0.9588122575697683  0.6334926048405833  0.3462789099686176  1.0000
  C   C5        1.0  0.00444012918918448  0.284485917034459  0.1588652181284971  1.0000
  C   C6        1.0  0.9955530911359389  0.21551004186446224  0.6588632184760002  1.0000
  C   C7        1.0  0.9955553167839285  0.715511943376157  0.8411386082402643  1.0000
  C   C8        1.0  0.004439196556248243  0.7844868062265888  0.3411323902524401  1.0000
  C   C9        1.0  0.4530507482597842  0.555060491698832  0.9746792132703845  1.0000
  C   C10       1.0  0.5469653875587001  0.9449472782025405  0.47468095479535316  1.0000
  C   C11       1.0  0.5469598135144977  0.444945416851219  0.025317142480254497  1.0000
  C   C12       1.0  0.4530560992807154  0.0550616746420332  0.5253168950553757  1.0000
  O   O1        1.0  0.5847518357759895  0.1209989156735602  0.09223251465936498  1.0000
  O   O2        1.0  0.415251328584006  0.3790055911468357  0.592226628238862  1.0000
  O   O3        1.0  0.4152584678765833  0.8790059949884887  0.9077698175629649  1.0000
  O   O4        1.0  0.5847502744182053  0.6209992760753024  0.4077697275231742  1.0000
  O   O5        1.0  0.849582766610361  0.14082186361513038  0.9553464551319308  1.0000
  O   O6        1.0  0.1504194541017299  0.3591837603481166  0.45534636892185887  1.0000
  O   O7        1.0  0.15042769669832987  0.8591780649782663  0.044653635923666  1.0000
  O   O8        1.0  0.8495792486601984  0.6408210923742883  0.5446529750780087  1.0000
  O   O9        1.0  0.7485935524962742  0.9233388710246617  0.058014029700189  1.0000
  O   O10       1.0  0.2514070486002069  0.5766641355334272  0.5580156176713302  1.0000
  O   O11       1.0  0.2514159768792936  0.0766630460474644  0.9419875554699715  1.0000
  O   O12       1.0  0.7485887539179148  0.4233407026862821  0.4419874616250609  1.0000
  O   O13       1.0  0.8720988803575269  0.08015005457611579  0.2448250044211377  1.0000
  O   O14       1.0  0.1279035200479868  0.4198502549593286  0.7448240483055314  1.0000
  O   O15       1.0  0.12790024013640539  0.91985081392712  0.7551758337032766  1.0000
  O   O16       1.0  0.8720967924725687  0.5801496229294755  0.2551752957021378  1.0000
  O   O17       1.0  0.0798440763250312  0.3480646840314492  0.08241626076685549  1.0000
  O   O18       1.0  0.920161724280476  0.15193293731915244  0.5824228797879059  1.0000
  O   O19       1.0  0.9201564942855145  0.6519361917186826  0.9175838302973317  1.0000
  O   O20       1.0  0.07983926406207328  0.8480639542118097  0.41757870540082104  1.0000
  O   O21       1.0  0.9599763598923448  0.33920127248294557  0.239455307064496  1.0000
  O   O22       1.0  0.040022158554769816  0.1607950736998589  0.7394592593690348  1.0000
  O   O23       1.0  0.0400213104955398  0.6607995887822752  0.7605440369440686  1.0000
  O   O24       1.0  0.9599752537290345  0.8392047896921752  0.2605423258177737  1.0000
  O   O25       1.0  0.3006041184701544  0.5195465960414792  0.9228776446290752  1.0000
  O   O26       1.0  0.6993920075914275  0.9804495236020824  0.4228886421105358  1.0000
  O   O27       1.0  0.6993961940962238  0.4804532818858576  0.07711198761563051  1.0000
  O   O28       1.0  0.3005976379152173  0.019548307820926397  0.5771181724991407  1.0000
  O   O29       1.0  0.5355458629236766  0.6749887695824484  0.9928137474717572  1.0000
  O   O30       1.0  0.4644498613827679  0.8250077929582885  0.4928198552897527  1.0000
  O   O31       1.0  0.46445631748427035  0.3250071313666894  0.0071781259546454985  1.0000
  O   O32       1.0  0.5355523189652659  0.17498810794046443  0.5071847181343685  1.0000
  O   O33       1.0  0.8499344118520685  0.38790074016917225  0.8882541366183503  1.0000
  O   O34       1.0  0.1500668933129745  0.11209942900610059  0.38825947628387775  1.0000
  O   O35       1.0  0.1500656425820281  0.6120981398612669  0.11174371327411589  1.0000
  O   O36       1.0  0.8499317109727899  0.8878994437507544  0.6117458441970173  1.0000
  O   O37       1.0  0.4665845995550484  0.3008716448061293  0.7911333405410517  1.0000
  O   O38       1.0  0.5334201656477688  0.19912233175161728  0.2911420249487903  1.0000
  O   O39       1.0  0.5334154548896209  0.699127235233199  0.208862268175352  1.0000
  O   O40       1.0  0.46657740626042715  0.8008725495450975  0.7088640425994938  1.0000
