data_image0
_chemical_formula_structural       Cd4H32C64N32
_chemical_formula_sum              "Cd4 H32 C64 N32"
_cell_length_a       9.840931396589209
_cell_length_b       10.941425999057913
_cell_length_c       14.772316707046933
_cell_angle_alpha    89.9998411044114
_cell_angle_beta     96.84875053697402
_cell_angle_gamma    89.99968599521006

_space_group_name_H-M_alt    "P 1"
_space_group_IT_number       1

loop_
  _space_group_symop_operation_xyz
  'x, y, z'

loop_
  _atom_site_type_symbol
  _atom_site_label
  _atom_site_symmetry_multiplicity
  _atom_site_fract_x
  _atom_site_fract_y
  _atom_site_fract_z
  _atom_site_occupancy
  Cd  Cd1       1.0  0.3527160815842408  0.0736599748132605  0.7632720938011912  1.0000
  Cd  Cd2       1.0  0.6472842248244107  0.5736581096081323  0.7367269394474221  1.0000
  Cd  Cd3       1.0  0.6472845023880609  0.9263406613021627  0.23672663042851375  1.0000
  Cd  Cd4       1.0  0.35271326193213076  0.426340698598935  0.2632721599348358  1.0000
  H   H1        1.0  0.3689287667881374  0.7719565261781655  0.7394082444222646  1.0000
  H   H2        1.0  0.6310734193329213  0.2719561155161614  0.7605878715664856  1.0000
  H   H3        1.0  0.6310749144089202  0.22804319597266703  0.26059010465848326  1.0000
  H   H4        1.0  0.3689241233521087  0.7280445206085489  0.23940987887863224  1.0000
  H   H5        1.0  0.2232319754340182  0.598527144477501  0.6733714732590028  1.0000
  H   H6        1.0  0.7767744181525273  0.09852485944662698  0.8266253957073528  1.0000
  H   H7        1.0  0.776772784773364  0.4014753195459163  0.3266256266558115  1.0000
  H   H8        1.0  0.22322107836883026  0.9014739487681921  0.17337215519535218  1.0000
  H   H9        1.0  0.9889544510751165  0.6445495714139539  0.5925738299253422  1.0000
  H   H10       1.0  0.011046385212665709  0.14454619355070258  0.9074257921314623  1.0000
  H   H11       1.0  0.011047128011789203  0.3554519786552532  0.4074256685429488  1.0000
  H   H12       1.0  0.9889500504948002  0.85545170070025  0.09257388194696148  1.0000
  H   H13       1.0  0.8120568348139231  0.8014181420335048  0.5384010808169888  1.0000
  H   H14       1.0  0.1879470363201108  0.30141734938167275  0.961599204455389  1.0000
  H   H15       1.0  0.1879468184129038  0.1985824940738112  0.4615979427299378  1.0000
  H   H16       1.0  0.8120483763025135  0.6985805448719873  0.03840036985062767  1.0000
  H   H17       1.0  0.7365226504667463  0.018080775897765005  0.5314406370370219  1.0000
  H   H18       1.0  0.2634779927396238  0.5180781232276105  0.9685592160645056  1.0000
  H   H19       1.0  0.26348307689699624  0.9819198602053092  0.46855791158733234  1.0000
  H   H20       1.0  0.7365152338801194  0.48191885706795995  0.03144353103477467  1.0000
  H   H21       1.0  0.7849741697360598  0.23834620802739445  0.5696838994661134  1.0000
  H   H22       1.0  0.21502715795994473  0.7383421065937552  0.930313553607945  1.0000
  H   H23       1.0  0.2150305625100799  0.7616544280795522  0.4303138749184612  1.0000
  H   H24       1.0  0.7849721512403461  0.26165304576795023  0.06969114106290418  1.0000
  H   H25       1.0  0.9471869392163654  0.3953690881195371  0.6396040095800543  1.0000
  H   H26       1.0  0.0528123907957152  0.8953660427397594  0.8603915840437819  1.0000
  H   H27       1.0  0.0528156629583734  0.6046315479893137  0.36039558866183796  1.0000
  H   H28       1.0  0.947190015620329  0.1046309375303096  0.1396127354745075  1.0000
  H   H29       1.0  0.17803001787865472  0.3270196031781083  0.7176891130522518  1.0000
  H   H30       1.0  0.8219654446344933  0.8270148818845228  0.7823116560122753  1.0000
  H   H31       1.0  0.8219703982872064  0.6729819468879512  0.2823136579805094  1.0000
  H   H32       1.0  0.1780369897427931  0.17298392630200962  0.21769198903625409  1.0000
  C   C1        1.0  0.46499347110052014  0.21142848408030085  0.41587225151536694  1.0000
  C   C2        1.0  0.5350016952321255  0.7114295602564127  0.08412467852385666  1.0000
  C   C3        1.0  0.535002964600949  0.7885712380859572  0.5841274225606695  1.0000
  C   C4        1.0  0.4650018740959751  0.2885701618897443  0.9158763684263815  1.0000
  C   C5        1.0  0.4911311693720676  0.1456734610187098  0.565975263511504  1.0000
  C   C6        1.0  0.5088635769573386  0.6456724677002511  0.9340224080331294  1.0000
  C   C7        1.0  0.5088673124900822  0.8543290030150885  0.4340246101057516  1.0000
  C   C8        1.0  0.4911308405296993  0.3543309103031831  0.06597639202593798  1.0000
  C   C9        1.0  0.6118450861774177  0.9322190413792625  0.8888275764657363  1.0000
  C   C10       1.0  0.3881609678058169  0.4322185483538163  0.6111733404408142  1.0000
  C   C11       1.0  0.3881524005851277  0.0677779389125064  0.11117152291891588  1.0000
  C   C12       1.0  0.6118447595699196  0.5677784319186614  0.3888252081883222  1.0000
  C   C13       1.0  0.7380073295820465  0.9439573511908891  0.02983194223374138  1.0000
  C   C14       1.0  0.26199830803609814  0.4439552481951807  0.4701723215013941  1.0000
  C   C15       1.0  0.2619881110138209  0.056038715148638105  0.9701669576072973  1.0000
  C   C16       1.0  0.7380094375120834  0.5560508716472228  0.5298271011279778  1.0000
  C   C17       1.0  0.2672604807357573  0.7885652813182772  0.7033381267359856  1.0000
  C   C18       1.0  0.732741568421048  0.2885633232701252  0.7966586202768509  1.0000
  C   C19       1.0  0.7327422333109511  0.21143444083759994  0.29665877363760257  1.0000
  C   C20       1.0  0.2672549232148995  0.7114363988984707  0.20333970486444025  1.0000
  C   C21       1.0  0.1847094588978564  0.6917070633228591  0.6659977240307667  1.0000
  C   C22       1.0  0.8152910958569991  0.19170638931046824  0.834001100200197  1.0000
  C   C23       1.0  0.815294222299201  0.3082926588279733  0.33400062504998107  1.0000
  C   C24       1.0  0.1847043447268746  0.8082933328596623  0.16599779963605948  1.0000
  C   C25       1.0  0.0564723086297505  0.7173467152631048  0.6213251133891047  1.0000
  C   C26       1.0  0.9435290170426002  0.21734433135013378  0.8786757669502163  1.0000
  C   C27       1.0  0.943531316635827  0.28265209292774063  0.378674584627582  1.0000
  C   C28       1.0  0.0564663676157835  0.7826526489447045  0.12132448182437368  1.0000
  C   C29       1.0  0.009922340718908605  0.8397294269834459  0.6149082024345276  1.0000
  C   C30       1.0  0.990079204849991  0.33972679011517226  0.8850924575478629  1.0000
  C   C31       1.0  0.9900812845316693  0.16027395099565206  0.3850914955761836  1.0000
  C   C32       1.0  0.009916151838155  0.6602711041361431  0.11490846569290618  1.0000
  C   C33       1.0  0.8781337337578349  0.8732294014542531  0.5701584452478199  1.0000
  C   C34       1.0  0.1218665409025093  0.3732263091374007  0.9298427018006448  1.0000
  C   C35       1.0  0.1218688684199023  0.12677032069694147  0.4298411529952659  1.0000
  C   C36       1.0  0.878129838879474  0.6267688432382668  0.07015832121611962  1.0000
  C   C37       1.0  0.8364638912814755  0.9924424912341011  0.5663479075936309  1.0000
  C   C38       1.0  0.1635356569179578  0.49244192145646787  0.9336515786782441  1.0000
  C   C39       1.0  0.16353879477999564  0.007562714666505598  0.4336496672401608  1.0000
  C   C40       1.0  0.8364596158504654  0.507561456537246  0.06635136795747337  1.0000
  C   C41       1.0  0.9237370287577988  0.08742579926433791  0.6066926725317072  1.0000
  C   C42       1.0  0.07626307544239812  0.5874225175033345  0.8933090225795082  1.0000
  C   C43       1.0  0.07626659650777161  0.9125730089265075  0.39330702548497937  1.0000
  C   C44       1.0  0.9237342155464605  0.4125753767379052  0.10669479807556571  1.0000
  C   C45       1.0  0.8856515614121462  0.2120860672824278  0.6031693799423435  1.0000
  C   C46       1.0  0.11434573441395912  0.712083498869255  0.8968304406010714  1.0000
  C   C47       1.0  0.11435507715546579  0.7879182246438745  0.3968319663191337  1.0000
  C   C48       1.0  0.8856525237282542  0.2879134814092907  0.10317482876235569  1.0000
  C   C49       1.0  0.9763631747186636  0.29930657971222974  0.6416171319832812  1.0000
  C   C50       1.0  0.023636562012463  0.7993018575774615  0.858384108662804  1.0000
  C   C51       1.0  0.023635335116722396  0.7006940564074354  0.3583820671689892  1.0000
  C   C52       1.0  0.9763627751430658  0.2006969506160203  0.14161991153588355  1.0000
  C   C53       1.0  0.1042651034243889  0.26151558643624645  0.6848481412966833  1.0000
  C   C54       1.0  0.8957317840941953  0.7615140369028381  0.8151535733493913  1.0000
  C   C55       1.0  0.8957363637875488  0.7384877915435839  0.31515405503871097  1.0000
  C   C56       1.0  0.104268576143177  0.23848568524558542  0.18485054662050254  1.0000
  C   C57       1.0  0.05596920437970003  0.057889658841624184  0.6510008116695614  1.0000
  C   C58       1.0  0.9440290474899343  0.5578877470587925  0.8490007611559205  1.0000
  C   C59       1.0  0.9440354439677137  0.9421100633041704  0.3489989861183317  1.0000
  C   C60       1.0  0.0559672483783231  0.4421110611439687  0.1510022852581798  1.0000
  C   C61       1.0  0.10007651971365308  0.9316102079987729  0.654907894237837  1.0000
  C   C62       1.0  0.8999243948849696  0.43160633432546547  0.8450931998710798  1.0000
  C   C63       1.0  0.8999250873344876  0.0683931699868978  0.345090929760694  1.0000
  C   C64       1.0  0.1000719569207718  0.5683915599219773  0.15490849760946895  1.0000
  N   N1        1.0  0.41333607337927697  0.25225248576198567  0.34611975867839817  1.0000
  N   N2        1.0  0.5866577180344309  0.7522557932043059  0.15387898819987098  1.0000
  N   N3        1.0  0.5866592553356257  0.7477472364034624  0.653881839027349  1.0000
  N   N4        1.0  0.4133417309960663  0.24774118707854598  0.8461223341317134  1.0000
  N   N5        1.0  0.5326983188942904  0.16262193410721437  0.4870576649550243  1.0000
  N   N6        1.0  0.4672991300302983  0.6626199493921091  0.01294161570368149  1.0000
  N   N7        1.0  0.4673022091465313  0.8373777880482222  0.5129424082106266  1.0000
  N   N8        1.0  0.5327034162129607  0.3373797727567549  0.9870593314741496  1.0000
  N   N9        1.0  0.4679088871436222  0.12564674053110989  0.6409859923389616  1.0000
  N   N10       1.0  0.5320849115968898  0.6256468220665925  0.8590129807526665  1.0000
  N   N11       1.0  0.5320946262439961  0.8743548095280147  0.35901640354363445  1.0000
  N   N12       1.0  0.46790646459987073  0.37435746990377794  0.14098484552062723  1.0000
  N   N13       1.0  0.5264346805324963  0.9543755244123489  0.8282309872045273  1.0000
  N   N14       1.0  0.47356821473037775  0.45437164618923015  0.6717682234973876  1.0000
  N   N15       1.0  0.4735648244264894  0.045623283788138694  0.17176898618991734  1.0000
  N   N16       1.0  0.5264343874713547  0.5456207643007716  0.328231374755262  1.0000
  N   N17       1.0  0.7110684048118898  0.8984616607988231  0.9489082654541788  1.0000
  N   N18       1.0  0.28893602031133975  0.39846370521436814  0.5510878189354499  1.0000
  N   N19       1.0  0.2889301050324916  0.1015362334478951  0.05109093370167979  1.0000
  N   N20       1.0  0.7110698748468494  0.6015396727686666  0.4489066828810804  1.0000
  N   N21       1.0  0.7735741053754452  0.9761037572956326  0.10540541366047756  1.0000
  N   N22       1.0  0.22642449526764352  0.4761057628421029  0.3945899739651395  1.0000
  N   N23       1.0  0.22642130725317605  0.0238923090427221  0.8945941606479335  1.0000
  N   N24       1.0  0.773580320844232  0.5239058407601577  0.6054057770029714  1.0000
  N   N25       1.0  0.22642849390371822  0.9043071625888642  0.696960115205769  1.0000
  N   N26       1.0  0.773573762798364  0.4043049799042676  0.8030377777559891  1.0000
  N   N27       1.0  0.7735762103721839  0.09569438747456618  0.30303833364498434  1.0000
  N   N28       1.0  0.2264226729031051  0.5956947422619833  0.19696189632004749  1.0000
  N   N29       1.0  0.14241855512955232  0.1449502392617248  0.6894067146597678  1.0000
  N   N30       1.0  0.8575810876457127  0.6449452386428831  0.8105968533829324  1.0000
  N   N31       1.0  0.85758600931014  0.8550513107958582  0.310595106527856  1.0000
  N   N32       1.0  0.14241625927162724  0.3550544835159926  0.18940561833500874  1.0000
