data_image0
_chemical_formula_structural       Zn4H16C54N4Cl20O16
_chemical_formula_sum              "Zn4 H16 C54 N4 Cl20 O16"
_cell_length_a       10.080617409059714
_cell_length_b       10.968280045710902
_cell_length_c       25.90043747718543
_cell_angle_alpha    89.39101714181596
_cell_angle_beta     89.16001673121002
_cell_angle_gamma    90.37356765892237

_space_group_name_H-M_alt    "P 1"
_space_group_IT_number       1

loop_
  _space_group_symop_operation_xyz
  'x, y, z'

loop_
  _atom_site_type_symbol
  _atom_site_label
  _atom_site_symmetry_multiplicity
  _atom_site_fract_x
  _atom_site_fract_y
  _atom_site_fract_z
  _atom_site_occupancy
  Zn  Zn1       1.0  0.6339112205004938  0.5124001725164006  0.49949931971021017  1.0000
  Zn  Zn2       1.0  0.3474390922970159  0.516742850896769  0.5018175558063404  1.0000
  Zn  Zn3       1.0  0.3781206060435948  0.5200705701916206  0.08043894399316538  1.0000
  Zn  Zn4       1.0  0.6641520226903309  0.5274840379857154  0.07752990619502498  1.0000
  H   H1        1.0  0.26980242021731726  0.5225923437640816  0.6667274559675601  1.0000
  H   H2        1.0  0.6731249494765734  0.41023983815954074  0.6539080638509063  1.0000
  H   H3        1.0  0.7233261417127252  0.4138262238462147  0.9142251022286981  1.0000
  H   H4        1.0  0.3240572043026901  0.5368044202612482  0.9268228177458223  1.0000
  H   H5        1.0  0.1314634150935774  0.47731421218145453  0.891296248043332  1.0000
  H   H6        1.0  0.1639607607129179  0.6339705079900855  0.8806716658179139  1.0000
  H   H7        1.0  0.05064201954439081  0.5568178854679787  0.8410645653380794  1.0000
  H   H8        1.0  0.03351979069223179  0.5428493473426174  0.7705039960658266  1.0000
  H   H9        1.0  0.1258452027818606  0.62512222762242  0.722964570042478  1.0000
  H   H10       1.0  0.0991954120793324  0.4667052075553642  0.7161827207489677  1.0000
  H   H11       1.0  0.8102233609871093  0.24969348726065743  0.8681997964368758  1.0000
  H   H12       1.0  0.9136902380326074  0.27175639242935296  0.8129900513969799  1.0000
  H   H13       1.0  0.8954120517349722  0.3894065046222012  0.8584436335260716  1.0000
  H   H14       1.0  0.7737637081734475  0.2504049247106792  0.6937664833844222  1.0000
  H   H15       1.0  0.8684994568708927  0.3857964773113025  0.6988985965536043  1.0000
  H   H16       1.0  0.8950182179199471  0.26298059285681324  0.742126139773006  1.0000
  C   C1        1.0  0.5125249419211214  0.7490424458689022  0.5003755179264856  1.0000
  C   C2        1.0  0.4681797922353751  0.49303185695099944  0.5994102978749465  1.0000
  C   C3        1.0  0.5146976325297812  0.2799488338054488  0.5014580124952985  1.0000
  C   C4        1.0  0.4720808425646581  0.5372581170331969  0.4022717274658091  1.0000
  C   C5        1.0  0.5030723018502457  0.7578029615080765  0.07928376876066777  1.0000
  C   C6        1.0  0.5411118666627316  0.5053285218508635  0.9806437151706714  1.0000
  C   C7        1.0  0.5060301810732426  0.2891860207729027  0.07845778066936757  1.0000
  C   C8        1.0  0.5309797231444124  0.5465266819887163  0.17710165773971903  1.0000
  C   C9        1.0  0.9228518660309958  0.44215453332115834  0.46872253316347906  1.0000
  C   C10       1.0  0.05837170056445018  0.5906117075941071  0.5326269569327591  1.0000
  C   C11       1.0  0.0629320336720198  0.4385052440395471  0.47156429285956125  1.0000
  C   C12       1.0  0.9180237970612808  0.5880082703148872  0.5325968206534879  1.0000
  C   C13       1.0  0.5120914098287058  0.14230504147124637  0.5014665115922339  1.0000
  C   C14       1.0  0.5150891390863279  0.8867637766072181  0.5007133596466814  1.0000
  C   C15       1.0  0.5158536904008953  0.08053628076418562  0.45451913197051386  1.0000
  C   C16       1.0  0.5114297980221636  0.9487380784439664  0.547716409950368  1.0000
  C   C17       1.0  0.516598977563781  0.9525653679143958  0.45406074488169407  1.0000
  C   C18       1.0  0.5094938769240188  0.076708564906383  0.5481242606915087  1.0000
  C   C19       1.0  0.35913744889998606  0.49390346853204653  0.6863683734041995  1.0000
  C   C20       1.0  0.36251465332038885  0.4842278117289923  0.7403637278197548  1.0000
  C   C21       1.0  0.24717189376340795  0.5121717377330839  0.772163522132686  1.0000
  C   C22       1.0  0.588515639040814  0.42933781926165454  0.6790059728045105  1.0000
  C   C23       1.0  0.5958817485658515  0.4133820488188037  0.7327368062015791  1.0000
  C   C24       1.0  0.7133376655019886  0.36448225318815736  0.7570638596200393  1.0000
  C   C25       1.0  0.6309588009554618  0.4344930252171437  0.8948666322794734  1.0000
  C   C26       1.0  0.6174893249426106  0.41641099744104804  0.8415538955148987  1.0000
  C   C27       1.0  0.723960698341834  0.36594387555914665  0.8101481557764313  1.0000
  C   C28       1.0  0.403597001437852  0.5045857216106101  0.9018211244736631  1.0000
  C   C29       1.0  0.3850178509264594  0.48975868775372083  0.8487688097880548  1.0000
  C   C30       1.0  0.25848503516563426  0.515685255230082  0.8251257050843389  1.0000
  C   C31       1.0  0.4722424117225116  0.471312159984045  0.656303551446328  1.0000
  C   C32       1.0  0.4839111481888808  0.4475882510853992  0.7636812358531696  1.0000
  C   C33       1.0  0.5259619598672173  0.48087285294900545  0.9243828334159684  1.0000
  C   C34       1.0  0.49502787893579375  0.44958412202711184  0.8181274786036282  1.0000
  C   C35       1.0  0.4835675228848046  0.5643290594409933  0.34472340576228777  1.0000
  C   C36       1.0  0.5164837178641902  0.572998036241856  0.2343620003934673  1.0000
  C   C37       1.0  0.6088330080695314  0.5891709564491523  0.321443807975399  1.0000
  C   C38       1.0  0.3889452849854607  0.5761249699736695  0.2579501427187551  1.0000
  C   C39       1.0  0.6263588116589389  0.586585019011473  0.267235194333196  1.0000
  C   C40       1.0  0.37278789746412133  0.5624677060979907  0.31190347130560514  1.0000
  C   C41       1.0  0.08805023256491039  0.44562477378774207  0.11034689711074455  1.0000
  C   C42       1.0  0.9541176907515236  0.6004298438176789  0.047910285881954486  1.0000
  C   C43       1.0  0.9475023863271658  0.4500675630783917  0.11114512108073168  1.0000
  C   C44       1.0  0.09442506671570067  0.5974319063858785  0.047672855062913286  1.0000
  C   C45       1.0  0.5082873901820618  0.1514495194408099  0.07854432023170689  1.0000
  C   C46       1.0  0.5023381620065733  0.8956165526558096  0.07919518718571786  1.0000
  C   C47       1.0  0.5080446152070196  0.08700846664072513  0.12545562951889613  1.0000
  C   C48       1.0  0.502037944083412  0.9602254948903454  0.032277253072841496  1.0000
  C   C49       1.0  0.5055815599970757  0.958957412692229  0.12584923769363598  1.0000
  C   C50       1.0  0.5059462987396585  0.08819849126547302  0.031874796392322886  1.0000
  C   C51       1.0  0.14496312935490607  0.5473615982855976  0.8609145620994237  1.0000
  C   C52       1.0  0.119735146445592  0.5380807775370187  0.7445182987317904  1.0000
  C   C53       1.0  0.8419277110528821  0.3164612979169448  0.8384179009284406  1.0000
  C   C54       1.0  0.8183010905155328  0.3131012768033372  0.7215912267267935  1.0000
  N   N1        1.0  0.8529458688826637  0.5156242324872125  0.4998869628922405  1.0000
  N   N2        1.0  0.1281575748844048  0.5149402618763191  0.502445605132287  1.0000
  N   N3        1.0  0.1589570795472213  0.5202883390079194  0.07894637867331508  1.0000
  N   N4        1.0  0.8831830350607032  0.5268359005922464  0.07971210092618007  1.0000
  Cl  Cl1       1.0  0.8432976564875431  0.3541874898221238  0.4257581357719004  1.0000
  Cl  Cl2       1.0  0.1395215262833318  0.6896051953755348  0.5708657252714457  1.0000
  Cl  Cl3       1.0  0.1493713493509858  0.3360588748726698  0.4365748288604151  1.0000
  Cl  Cl4       1.0  0.831055859483726  0.6754386844185731  0.5743780720106526  1.0000
  Cl  Cl5       1.0  0.5205175509994859  0.16333269853036111  0.3975567443005942  1.0000
  Cl  Cl6       1.0  0.5099794180695767  0.8663314824430162  0.6048030945141958  1.0000
  Cl  Cl7       1.0  0.5169355149773764  0.8756929877212729  0.39657501625892155  1.0000
  Cl  Cl8       1.0  0.5041511544826918  0.15492145160804682  0.6054054953725438  1.0000
  Cl  Cl9       1.0  0.7435931458461268  0.6285300559591748  0.3577767471033012  1.0000
  Cl  Cl10      1.0  0.24873347807107388  0.6037505691666427  0.2227223581009027  1.0000
  Cl  Cl11      1.0  0.7861567685134929  0.6013662350900192  0.2437659509817748  1.0000
  Cl  Cl12      1.0  0.2134345786326435  0.5415331848389188  0.3350527946754126  1.0000
  Cl  Cl13      1.0  0.1669625160426023  0.3454295097366257  0.14893353721636515  1.0000
  Cl  Cl14      1.0  0.8742188551374283  0.6974340684607371  0.008034427904867398  1.0000
  Cl  Cl15      1.0  0.8593923969225228  0.35811635202551173  0.15179656911860204  1.0000
  Cl  Cl16      1.0  0.1823421933745237  0.6911817892200035  0.007468673931285296  1.0000
  Cl  Cl17      1.0  0.5086614677895367  0.16652864504163034  0.18248257007298455  1.0000
  Cl  Cl18      1.0  0.4956100205160111  0.8808906974827764  0.9752366725705596  1.0000
  Cl  Cl19      1.0  0.5078679840121082  0.8789680534091249  0.18331090575580325  1.0000
  Cl  Cl20      1.0  0.50867206595899  0.16905428969081987  0.974532293444987  1.0000
  O   O1        1.0  0.6220932539579493  0.6964282511872499  0.4908847895002848  1.0000
  O   O2        1.0  0.4010464747940644  0.7000856555278646  0.5096584283517416  1.0000
  O   O3        1.0  0.3540658306300415  0.4916835189509214  0.578541984297466  1.0000
  O   O4        1.0  0.5782994027350767  0.512652137226283  0.5759073612150372  1.0000
  O   O5        1.0  0.40488093748619036  0.33331457053191127  0.4961938229000394  1.0000
  O   O6        1.0  0.6287563818655286  0.32750718589692707  0.506331612244864  1.0000
  O   O7        1.0  0.573768985273624  0.4931728924037559  0.4235055988740441  1.0000
  O   O8        1.0  0.36194027000874474  0.5570485219126271  0.4251030431639221  1.0000
  O   O9        1.0  0.39391894175808057  0.7046792648750612  0.09046145428702346  1.0000
  O   O10       1.0  0.6131904127933793  0.7097240800344268  0.06809784330741307  1.0000
  O   O11       1.0  0.656219995334645  0.4959254675762781  0.00018213815046410017  1.0000
  O   O12       1.0  0.4363924250450069  0.535693355150926  0.005463232953061898  1.0000
  O   O13       1.0  0.6151871372088279  0.34341655005230365  0.08578473928236717  1.0000
  O   O14       1.0  0.39300602255940476  0.3358850483330897  0.07131431776271308  1.0000
  O   O15       1.0  0.431297268687203  0.49735065122450806  0.15607567546630455  1.0000
  O   O16       1.0  0.6409490979225864  0.5690482412692008  0.15439216769573247  1.0000
