data_image0
_chemical_formula_structural       H16Pb4C24S4Cl4O18
_chemical_formula_sum              "H16 Pb4 C24 S4 Cl4 O18"
_cell_length_a       7.214044212727084
_cell_length_b       10.56688222312066
_cell_length_c       12.453624928969834
_cell_angle_alpha    92.90623074350793
_cell_angle_beta     90.2124863592401
_cell_angle_gamma    110.18330812021065

_space_group_name_H-M_alt    "P 1"
_space_group_IT_number       1

loop_
  _space_group_symop_operation_xyz
  'x, y, z'

loop_
  _atom_site_type_symbol
  _atom_site_label
  _atom_site_symmetry_multiplicity
  _atom_site_fract_x
  _atom_site_fract_y
  _atom_site_fract_z
  _atom_site_occupancy
  H   H1        1.0  0.10179219143745406  0.39901722689691616  0.2184291747604874  1.0000
  H   H2        1.0  0.8982150248051968  0.6009890503857563  0.781571329923075  1.0000
  H   H3        1.0  0.010810852968710226  0.51391089608061  0.22817338163709164  1.0000
  H   H4        1.0  0.9891917284466274  0.48609434605494783  0.7718238413898317  1.0000
  H   H5        1.0  0.004793929541051569  0.24019117373110535  0.6629839124801933  1.0000
  H   H6        1.0  0.9951905976087476  0.7598060024532104  0.3370249306415261  1.0000
  H   H7        1.0  0.41787025441161063  0.5954880872449382  0.5313102896820823  1.0000
  H   H8        1.0  0.5821073062041009  0.4045170986445256  0.46868998035028386  1.0000
  H   H9        1.0  0.5876242979454959  0.6648371753449569  0.7091547293030515  1.0000
  H   H10       1.0  0.4123721847793789  0.33515596283558585  0.29084520464517977  1.0000
  H   H11       1.0  0.09951068150189726  0.9051135447666853  0.6165106011344361  1.0000
  H   H12       1.0  0.9004983699641259  0.09489069330351191  0.383483413709328  1.0000
  H   H13       1.0  0.615393005327107  0.25769134326801446  0.5757040434941557  1.0000
  H   H14       1.0  0.3846144518180382  0.7423098961891982  0.424297073721533  1.0000
  H   H15       1.0  0.7126869444990191  0.256076745857392  0.7641905882589484  1.0000
  H   H16       1.0  0.2873152620518483  0.7439194162796882  0.23580548319070965  1.0000
  Pb  Pb1       1.0  0.32038344344802994  0.5991733823177654  0.0428620884685031  1.0000
  Pb  Pb2       1.0  0.6796235257869867  0.40082684049193074  0.9571373808034949  1.0000
  Pb  Pb3       1.0  0.29801491982093614  0.0635350062077151  0.0690336573051411  1.0000
  Pb  Pb4       1.0  0.701987045827437  0.936466193754825  0.9309618016124046  1.0000
  C   C1        1.0  0.22409234010156354  0.37597863656682057  0.7734613972240394  1.0000
  C   C2        1.0  0.7759155119210065  0.6240205803245188  0.22653803944885445  1.0000
  C   C3        1.0  0.13056945521591254  0.33393738679653506  0.6725902019335095  1.0000
  C   C4        1.0  0.8694140874075914  0.6660577595147148  0.32741614838103317  1.0000
  C   C5        1.0  0.20107452677039817  0.4138838114795148  0.5860186820260437  1.0000
  C   C6        1.0  0.7989060074371466  0.5861163614647822  0.4139862343078135  1.0000
  C   C7        1.0  0.36392957704367035  0.5337561266512836  0.5996414807707637  1.0000
  C   C8        1.0  0.6360503501029413  0.46624000069802923  0.40036086837351087  1.0000
  C   C9        1.0  0.4583988139524849  0.5730700929222083  0.6994231591613769  1.0000
  C   C10       1.0  0.5416017897042309  0.42693109288919834  0.3005698813313841  1.0000
  C   C11       1.0  0.39247551142766207  0.4955042144226098  0.7896452676388179  1.0000
  C   C12       1.0  0.6075231204428208  0.5044959884977375  0.2103549496082593  1.0000
  C   C13       1.0  0.28979510821207566  0.9841367211919165  0.7562352632450311  1.0000
  C   C14       1.0  0.7102026844010112  0.0158644705369326  0.24376097120015316  1.0000
  C   C15       1.0  0.23239661651640386  0.9835352070235075  0.6488878705953096  1.0000
  C   C16       1.0  0.7676149293373485  0.016462998032047003  0.3511083395260499  1.0000
  C   C17       1.0  0.3487690705833019  0.08323851117590661  0.5843684934391999  1.0000
  C   C18       1.0  0.6512485417376725  0.9167607158021341  0.41562699212200016  1.0000
  C   C19       1.0  0.5208891337125223  0.18186182603086823  0.6266260037787816  1.0000
  C   C20       1.0  0.47912444213604033  0.8181404148170088  0.3733695703955462  1.0000
  C   C21       1.0  0.5745723350557485  0.18157674074353033  0.7339362921549009  1.0000
  C   C22       1.0  0.4254303594052402  0.8184204380410591  0.26606142723845483  1.0000
  C   C23       1.0  0.46056367806818316  0.0842436135136495  0.803043191487127  1.0000
  C   C24       1.0  0.5394427945506665  0.9157555960705039  0.19695543292137777  1.0000
  S   S1        1.0  0.1230815075553551  0.2812067921399759  0.8852536741300341  1.0000
  S   S2        1.0  0.876925847851048  0.718791411525828  0.11474491767936709  1.0000
  S   S3        1.0  0.15062213693216367  0.8528706733529108  0.8361563695145758  1.0000
  S   S4        1.0  0.849395318812988  0.1471366340859461  0.1638426350811883  1.0000
  Cl  Cl1       1.0  0.08605239362680814  0.36471433088341604  0.461180415081209  1.0000
  Cl  Cl2       1.0  0.9139209243053659  0.6352908741481188  0.5388270551203931  1.0000
  Cl  Cl3       1.0  0.2822426622042329  0.08221296977195182  0.4501218907956143  1.0000
  Cl  Cl4       1.0  0.7177631833407289  0.9177932967815606  0.5498769985433681  1.0000
  O   O1        1.0  0.059810904621869665  0.37387169460653524  0.9590026330223079  1.0000
  O   O2        1.0  0.9401922951613175  0.6261264939816372  0.040995128154335696  1.0000
  O   O3        1.0  0.13465592689470904  0.4982284650381317  0.21458690376428535  1.0000
  O   O4        1.0  0.8653485392465328  0.5017777942081949  0.7854111733103152  1.0000
  O   O5        1.0  0.9574253111910025  0.1637331349414879  0.8445757690176875  1.0000
  O   O6        1.0  0.04257251611345951  0.8362600242341359  0.15542818951572457  1.0000
  O   O7        1.0  0.28331185560297467  0.246728707710112  0.9364406636438503  1.0000
  O   O8        1.0  0.7166878825454932  0.7532654583103594  0.0635617396966381  1.0000
  O   O9        1.0  0.48493804082233544  0.5337135444183475  0.8854065285089375  1.0000
  O   O10       1.0  0.5150574051400485  0.46627758442095785  0.1145957311133117  1.0000
  O   O11       1.0  0.9750283704681311  0.7704030591723526  0.7728756308908871  1.0000
  O   O12       1.0  0.024972137422224764  0.22959816428073063  0.2271262434840651  1.0000
  O   O13       1.0  0.0871713146911405  0.9202915102397783  0.9311337341195197  1.0000
  O   O14       1.0  0.9128281391574333  0.07971572958135198  0.06886113568081949  1.0000
  O   O15       1.0  0.28199864944125613  0.7811268875341782  0.8686807078659269  1.0000
  O   O16       1.0  0.7180065629246783  0.21887534369025727  0.13131802352408065  1.0000
  O   O17       1.0  0.515041821838345  0.08587294506915549  0.9069738867660176  1.0000
  O   O18       1.0  0.48496034118235815  0.9141232341777726  0.09302620008463688  1.0000
