data_image0
_chemical_formula_structural       Zn2H32C56N12O14
_chemical_formula_sum              "Zn2 H32 C56 N12 O14"
_cell_length_a       12.129159983613217
_cell_length_b       12.926167000069828
_cell_length_c       15.788752105547186
_cell_angle_alpha    90.41025590984765
_cell_angle_beta     86.77891441816791
_cell_angle_gamma    84.66428939075772

_space_group_name_H-M_alt    "P 1"
_space_group_IT_number       1

loop_
  _space_group_symop_operation_xyz
  'x, y, z'

loop_
  _atom_site_type_symbol
  _atom_site_label
  _atom_site_symmetry_multiplicity
  _atom_site_fract_x
  _atom_site_fract_y
  _atom_site_fract_z
  _atom_site_occupancy
  Zn  Zn1       1.0  0.6187906982631901  0.5147699336743088  0.5039896537993582  1.0000
  Zn  Zn2       1.0  0.3706980996427306  0.5011795464149741  0.49829267814936157  1.0000
  H   H1        1.0  0.77242263989406  0.5223276832743265  0.3665014897130446  1.0000
  H   H2        1.0  0.7458032421345282  0.15172613477181326  0.8829896294805832  1.0000
  H   H3        1.0  0.7435173377691627  0.08537231874993978  0.9813558606844097  1.0000
  H   H4        1.0  0.6199154240354475  0.10647113456219869  0.9255735455534477  1.0000
  H   H5        1.0  0.7422906748476238  0.6876069896863939  0.9844639156784822  1.0000
  H   H6        1.0  0.6098054050724571  0.7388264431739199  0.029502119926483796  1.0000
  H   H7        1.0  0.5868886182362588  0.8610445426285835  0.9075543054207811  1.0000
  H   H8        1.0  0.7113179755588634  0.8789882540380561  0.9585109659247024  1.0000
  H   H9        1.0  0.7167953163575336  0.8096383673140011  0.8602534383267795  1.0000
  H   H10       1.0  0.40485284357471574  0.2562220691928374  0.9723025073670897  1.0000
  H   H11       1.0  0.2759259978135801  0.3128086349279755  0.0201741841738183  1.0000
  H   H12       1.0  0.22474821387783095  0.43692482662425636  0.6358177107783475  1.0000
  H   H13       1.0  0.3020294247950375  0.19084765646238816  0.14467606632535276  1.0000
  H   H14       1.0  0.29491038714231627  0.1226167621690877  0.046823234717194885  1.0000
  H   H15       1.0  0.4254221996687165  0.131148770631313  0.09152292834582448  1.0000
  H   H16       1.0  0.7111087007473176  0.5580119388409628  0.7310681986130873  1.0000
  H   H17       1.0  0.7046168702105718  0.6229448855079482  0.6322801059103893  1.0000
  H   H18       1.0  0.893612054042322  0.6860035435910063  0.6511864033808193  1.0000
  H   H19       1.0  0.7974398589949632  0.7289596462461457  0.7351577832862047  1.0000
  H   H20       1.0  0.8983309871072083  0.6221279595922695  0.7514376476426533  1.0000
  H   H21       1.0  0.2398549618913962  0.6451390367371272  0.3756745348831884  1.0000
  H   H22       1.0  0.10120074019965841  0.6442095264244825  0.3439531062214769  1.0000
  H   H23       1.0  0.2779183512340497  0.712509834531751  0.9917286401500434  1.0000
  H   H24       1.0  0.23634249184094372  0.6799070263713245  0.22174666625735276  1.0000
  H   H25       1.0  0.31069690132635236  0.5572109298921147  0.23765611316903798  1.0000
  H   H26       1.0  0.17185562178208616  0.563864108659196  0.203701170811172  1.0000
  H   H27       1.0  0.40571133078813665  0.7579984495890386  0.9528826327752851  1.0000
  H   H28       1.0  0.39485088966240783  0.8872903301770874  0.07347554539820318  1.0000
  H   H29       1.0  0.2728322223684004  0.9046503102699717  0.015466012112774794  1.0000
  H   H30       1.0  0.2693509255416444  0.8399857292546572  0.11447880659542158  1.0000
  H   H31       1.0  0.6147813330155005  0.23373697675335586  0.04689744199561829  1.0000
  H   H32       1.0  0.7438348920118328  0.276487296420953  0.0073163918493151115  1.0000
  C   C1        1.0  0.44943419313483457  0.7066204530523593  0.526145958844573  1.0000
  C   C2        1.0  0.4517063795150095  0.0366194769211106  0.4826645569643019  1.0000
  C   C3        1.0  0.05176767347224141  0.4480763513769688  0.6076465459997351  1.0000
  C   C4        1.0  0.9454338144908834  0.4970040754082561  0.3921093672038579  1.0000
  C   C5        1.0  0.16432102333053683  0.4502107444518869  0.5876300215700496  1.0000
  C   C6        1.0  0.8331461162684735  0.5108845917365558  0.4146793817133627  1.0000
  C   C7        1.0  0.13880792569103317  0.4852320620741325  0.4445390576797976  1.0000
  C   C8        1.0  0.8590552713534979  0.49221149427713573  0.5592252479844787  1.0000
  C   C9        1.0  0.021218178489377213  0.48302427319825364  0.4582294079871473  1.0000
  C   C10       1.0  0.976971493513503  0.4714808456282213  0.5422873536133679  1.0000
  C   C11       1.0  0.5166273378802374  0.5315145277325398  0.3427153658431337  1.0000
  C   C12       1.0  0.5373242310994115  0.3119046719798816  0.47961569850532726  1.0000
  C   C13       1.0  0.4838552166652833  0.48276200024227467  0.6594051361107418  1.0000
  C   C14       1.0  0.5611796243715262  0.5764398711462135  0.9617633971972097  1.0000
  C   C15       1.0  0.4615266670675596  0.41719308024532603  0.040073480556756594  1.0000
  C   C16       1.0  0.45982805567647506  0.5896553567597707  0.031078547580953898  1.0000
  C   C17       1.0  0.5626400143677092  0.4039197391865912  0.9702603915469721  1.0000
  C   C18       1.0  0.5282754890020629  0.5254832427157865  0.251661057531436  1.0000
  C   C19       1.0  0.48588495436566614  0.48074331356444583  0.750231918052897  1.0000
  C   C20       1.0  0.6231422468326784  0.4899000205004711  0.019158201981213107  1.0000
  C   C21       1.0  0.3995870877589169  0.5039167350387572  0.9824710643871342  1.0000
  C   C22       1.0  0.5206149595751911  0.5034165090238503  0.08682522125394598  1.0000
  C   C23       1.0  0.35569242697721404  0.9857098257284418  0.4648383633593838  1.0000
  C   C24       1.0  0.502381305958508  0.49034425493440637  0.9149264350727789  1.0000
  C   C25       1.0  0.5272390623687785  0.514025647419352  0.17516110077072258  1.0000
  C   C26       1.0  0.4940796243832964  0.4844830111019646  0.826560895421842  1.0000
  C   C27       1.0  0.5476488433945407  0.1952031883013206  0.48773850045811423  1.0000
  C   C28       1.0  0.4393334978762411  0.8241818131329309  0.5239740844805709  1.0000
  C   C29       1.0  0.3517084690741187  0.7486743844791801  0.010231802791814506  1.0000
  C   C30       1.0  0.3206870885194704  0.8510476744514146  0.05633424050650859  1.0000
  C   C31       1.0  0.66843177110745  0.2426668957431701  0.9892525969116335  1.0000
  C   C32       1.0  0.6957226643088178  0.14066855909364756  0.9417476206742492  1.0000
  C   C33       1.0  0.6604044272477767  0.7247807083927214  0.9696821328825818  1.0000
  C   C34       1.0  0.6260472491112311  0.03806247146275869  0.5563488460575243  1.0000
  C   C35       1.0  0.6692430303923871  0.8242135893714816  0.9209551283838593  1.0000
  C   C36       1.0  0.3568826798022188  0.2721152204582964  0.033089736899505284  1.0000
  C   C37       1.0  0.34426325223059717  0.1734944914607439  0.0822036167125262  1.0000
  C   C38       1.0  0.2877880542728094  0.5123177316625414  0.9596556151007362  1.0000
  C   C39       1.0  0.7357721481482005  0.48318326224207186  0.039652930298039686  1.0000
  C   C40       1.0  0.4001527074082461  0.1882563439191287  0.39175185801728657  1.0000
  C   C41       1.0  0.5779685454058029  0.8345776733058586  0.6274470794128675  1.0000
  C   C42       1.0  0.7239974816591045  0.19591119400815418  0.5579322877101446  1.0000
  C   C43       1.0  0.2520361309466495  0.8346427807053941  0.46505270613762656  1.0000
  C   C44       1.0  0.25863412349779946  0.041258434426424614  0.4351421997146261  1.0000
  C   C45       1.0  0.3514028042691067  0.8798352251159118  0.4831756181108345  1.0000
  C   C46       1.0  0.7187016800849053  0.987506491718108  0.5960556998774251  1.0000
  C   C47       1.0  0.7607545873354484  0.5872176466885364  0.6780246123969602  1.0000
  C   C48       1.0  0.843354656774068  0.6595847435803462  0.7055776433921465  1.0000
  C   C49       1.0  0.18588339657134165  0.6056775433325399  0.3352415113694747  1.0000
  C   C50       1.0  0.2285111826652512  0.6002585849054753  0.24385388652252968  1.0000
  C   C51       1.0  0.019097412156845905  0.4196744402743917  0.6918599530289453  1.0000
  C   C52       1.0  0.9770117487167129  0.49470649327847127  0.30385141715400005  1.0000
  C   C53       1.0  0.6315595679521595  0.143061925045366  0.5346043534798354  1.0000
  C   C54       1.0  0.5200572521314016  0.8797768708013293  0.5585048765092964  1.0000
  C   C55       1.0  0.4650220841452113  0.140048243571492  0.4559855721806371  1.0000
  C   C56       1.0  0.5331795125563873  0.9846923866007697  0.5342621063915657  1.0000
  N   N1        1.0  0.7909660611566027  0.5126488342091093  0.4964323648128185  1.0000
  N   N2        1.0  0.7993609422207018  0.9504959264703176  0.6252845165464719  1.0000
  N   N3        1.0  0.0017421181140875005  0.39147427908301324  0.7610497198811998  1.0000
  N   N4        1.0  0.9952100440111313  0.4921157915108337  0.23037367268048564  1.0000
  N   N5        1.0  0.2056066743445228  0.47298180503083376  0.5089495542556293  1.0000
  N   N6        1.0  0.19625142723678832  0.5205335036238665  0.9389302526698629  1.0000
  N   N7        1.0  0.8289741112423459  0.4775519784674387  0.056243188971201584  1.0000
  N   N8        1.0  0.35768880896066696  0.2244535987935663  0.33280497151961436  1.0000
  N   N9        1.0  0.6106691154372897  0.8077537930017158  0.6927411858767911  1.0000
  N   N10       1.0  0.8014469354815863  0.23636998901980627  0.5766176360781968  1.0000
  N   N11       1.0  0.16398071464843872  0.812090715630326  0.4502735643566424  1.0000
  N   N12       1.0  0.1743287848442137  0.08330882205615349  0.4160403261997132  1.0000
  O   O1        1.0  0.543743613813348  0.6640074696960883  0.5432345043024539  1.0000
  O   O2        1.0  0.6099249106134368  0.3146517660125667  0.9324852456049015  1.0000
  O   O3        1.0  0.6072643310431902  0.6524207313613033  0.9169473426416843  1.0000
  O   O4        1.0  0.4156673531534382  0.3411835199894995  0.0846977070707311  1.0000
  O   O5        1.0  0.8219079421722668  0.49248169699486516  0.6394647846735066  1.0000
  O   O6        1.0  0.18492881370040953  0.4979184967014731  0.3672949952352695  1.0000
  O   O7        1.0  0.4391226358381816  0.3497681629476474  0.4999888150205933  1.0000
  O   O8        1.0  0.36565350944999164  0.6631318396598189  0.5050004813602553  1.0000
  O   O9        1.0  0.6215982756475429  0.3581823089863789  0.459350543126554  1.0000
  O   O10       1.0  0.5976182031940028  0.5602002827791706  0.3827688002081757  1.0000
  O   O11       1.0  0.39079719117095396  0.5047208908641209  0.6273475760937969  1.0000
  O   O12       1.0  0.4248046316527692  0.5067253324152787  0.37527930506692536  1.0000
  O   O13       1.0  0.5779002325896699  0.463015210081366  0.619088354656057  1.0000
  O   O14       1.0  0.4112344677242136  0.6790689451006812  0.06824825826296178  1.0000
