data_image0
_chemical_formula_structural       Cd2H44C60S4N8O8
_chemical_formula_sum              "Cd2 H44 C60 S4 N8 O8"
_cell_length_a       8.64222104106267
_cell_length_b       10.473002562852958
_cell_length_c       15.626250654201481
_cell_angle_alpha    90.49051514260229
_cell_angle_beta     77.6115067825575
_cell_angle_gamma    77.67908148973218

_space_group_name_H-M_alt    "P 1"
_space_group_IT_number       1

loop_
  _space_group_symop_operation_xyz
  'x, y, z'

loop_
  _atom_site_type_symbol
  _atom_site_label
  _atom_site_symmetry_multiplicity
  _atom_site_fract_x
  _atom_site_fract_y
  _atom_site_fract_z
  _atom_site_occupancy
  Cd  Cd1       1.0  0.6422274559367694  0.6916297669944244  0.24834316856618707  1.0000
  Cd  Cd2       1.0  0.35777802366008166  0.3083702614353784  0.7516561197190017  1.0000
  H   H1        1.0  0.9092824924697356  0.3226911108210118  0.8570796990190462  1.0000
  H   H2        1.0  0.09071447469856507  0.6773137228311726  0.14292126129657137  1.0000
  H   H3        1.0  0.2959710469847749  0.12339299962296485  0.440253835938485  1.0000
  H   H4        1.0  0.7040255432592559  0.8766010545910563  0.5597516267879997  1.0000
  H   H5        1.0  0.07684754523277347  0.7474897126509462  0.9710114594239132  1.0000
  H   H6        1.0  0.9231440110750242  0.25250518470070205  0.028985010066122627  1.0000
  H   H7        1.0  0.14782988475009515  0.8668797770508622  0.8360866705291632  1.0000
  H   H8        1.0  0.8521614210388153  0.1331200347840706  0.16391047928092925  1.0000
  H   H9        1.0  0.6036359426879159  0.002107930067808203  0.03520521509442182  1.0000
  H   H10       1.0  0.39635863145556277  0.997892946445738  0.9647966642105461  1.0000
  H   H11       1.0  0.6682976238169758  0.11687304223979572  0.897883375563332  1.0000
  H   H12       1.0  0.3316949122809588  0.8831307599424963  0.10211939451366454  1.0000
  H   H13       1.0  0.04821739769636932  0.004777326449172403  0.7259947504049723  1.0000
  H   H14       1.0  0.9517739528616432  0.9952264454791906  0.2740062420699304  1.0000
  H   H15       1.0  0.03531671357482219  0.14548073284817062  0.7901489260119379  1.0000
  H   H16       1.0  0.9646805330801413  0.8545231024784741  0.20984943882340462  1.0000
  H   H17       1.0  0.8057504525802273  0.5592922880234569  0.9685529269450303  1.0000
  H   H18       1.0  0.19425133311689544  0.4407243858272382  0.031445559748334524  1.0000
  H   H19       1.0  0.5728063987116769  0.7524819548957569  0.00622363921370814  1.0000
  H   H20       1.0  0.4271927074511552  0.24753174061486763  0.9937758029159415  1.0000
  H   H21       1.0  0.33686595603059294  0.7745044591764982  0.9389288315438054  1.0000
  H   H22       1.0  0.6631266107908403  0.22550326404528684  0.06107266313131281  1.0000
  H   H23       1.0  0.3182180960841379  0.6005991306335475  0.8324587895008055  1.0000
  H   H24       1.0  0.6817836211431968  0.39940968161118934  0.16753968896296817  1.0000
  H   H25       1.0  0.0722969412373757  0.5679831732989911  0.41694066474719466  1.0000
  H   H26       1.0  0.9277002641598883  0.4320167116977063  0.5830551369400185  1.0000
  H   H27       1.0  0.3328510587267175  0.4237322945165759  0.43441486146169705  1.0000
  H   H28       1.0  0.6671438291383255  0.5762715144744065  0.5655844264778056  1.0000
  H   H29       1.0  0.0536079804398852  0.3042403306732524  0.20908063269188665  1.0000
  H   H30       1.0  0.9463885940028334  0.6957536796050833  0.7909190722095902  1.0000
  H   H31       1.0  0.31959053094627177  0.16622765387906924  0.2210870057818469  1.0000
  H   H32       1.0  0.6804098796028698  0.8337654488355144  0.778915436445651  1.0000
  H   H33       1.0  0.5332253940834449  0.2190643471352517  0.39935399330518373  1.0000
  H   H34       1.0  0.4667697548346936  0.780934576662901  0.6006484528642632  1.0000
  H   H35       1.0  0.6030917005285445  0.2689505964692387  0.2937362000443289  1.0000
  H   H36       1.0  0.3969078487364541  0.7310454377593062  0.7062657117656104  1.0000
  H   H37       1.0  0.08373628552196521  0.016034481504839004  0.5793335513073006  1.0000
  H   H38       1.0  0.9162794176609383  0.9839510113343409  0.420673438526123  1.0000
  H   H39       1.0  0.04261920145059149  0.7962602771671998  0.6307587399511974  1.0000
  H   H40       1.0  0.9574088414887711  0.20371947847714006  0.369246116386151  1.0000
  H   H41       1.0  0.22263783277401936  0.5928458223536169  0.5587568841386388  1.0000
  H   H42       1.0  0.7773863977596137  0.40713874236699604  0.4412414004374769  1.0000
  H   H43       1.0  0.45157759906434325  0.5970809425222541  0.4296629706964128  1.0000
  H   H44       1.0  0.5484328003507174  0.4029102542386697  0.5703286688789363  1.0000
  C   C1        1.0  0.794008070357634  0.7977662152088032  0.09321310056785857  1.0000
  C   C2        1.0  0.20599118010797918  0.2022307636461208  0.906784369380667  1.0000
  C   C3        1.0  0.8363758330892138  0.8684109664274476  0.011838124316540197  1.0000
  C   C4        1.0  0.1636210928213799  0.13158991689478944  0.988160272850941  1.0000
  C   C5        1.0  0.9893864012627063  0.8301976643827943  0.9551657036952296  1.0000
  C   C6        1.0  0.010609340863673789  0.16980319356725462  0.04483155562848402  1.0000
  C   C7        1.0  0.027759451853320675  0.8967427013361159  0.8795762765501965  1.0000
  C   C8        1.0  0.972233644973663  0.10325910907684493  0.12042194232460454  1.0000
  C   C9        1.0  0.7223211311207791  0.9727058234511932  0.9906320114581608  1.0000
  C   C10       1.0  0.2776772668392057  0.02729411132639831  0.009368126864487203  1.0000
  C   C11       1.0  0.7601078208824746  0.038107320155141615  0.9143662147611953  1.0000
  C   C12       1.0  0.23988796601301493  0.9618974978883374  0.08563488722732873  1.0000
  C   C13       1.0  0.914191394289908  0.0020074341167700036  0.8584616963700005  1.0000
  C   C14       1.0  0.08580231330233086  0.997996359265514  0.14153773324241575  1.0000
  C   C15       1.0  0.9654736317830271  0.0737855124215159  0.777627661209799  1.0000
  C   C16       1.0  0.03451832427315072  0.926220227830946  0.2223726227277042  1.0000
  C   C17       1.0  0.7237971089468049  0.3001911102854678  0.7882809543616179  1.0000
  C   C18       1.0  0.2762028549887602  0.6998196439477058  0.21171773866891647  1.0000
  C   C19       1.0  0.6913845177122013  0.4741934700427493  0.8778405237741966  1.0000
  C   C20       1.0  0.3086115899276579  0.5258143000051376  0.12216054588219553  1.0000
  C   C21       1.0  0.701514071435298  0.5689212497314245  0.938444211185001  1.0000
  C   C22       1.0  0.29847856210022883  0.43109433021457033  0.061556651961375115  1.0000
  C   C23       1.0  0.5708920361713371  0.6765706049898556  0.9587595662694643  1.0000
  C   C24       1.0  0.42909763132040973  0.32344297541464345  0.0412422887601309  1.0000
  C   C25       1.0  0.4358039626768075  0.688580197283635  0.9203299911778304  1.0000
  C   C26       1.0  0.5641868526085503  0.311429472808328  0.07967235782238191  1.0000
  C   C27       1.0  0.42448439002579613  0.5931279589964477  0.8607373677241343  1.0000
  C   C28       1.0  0.5755091100609634  0.40688470408081673  0.13926594511480064  1.0000
  C   C29       1.0  0.5550463142243487  0.48484708804929283  0.8395351655652521  1.0000
  C   C30       1.0  0.4449489338870762  0.515163618394304  0.16046601343192188  1.0000
  C   C31       1.0  0.8949899128905872  0.5340066814986673  0.29917078121715696  1.0000
  C   C32       1.0  0.10501080611302169  0.4659893390481287  0.7008271503698682  1.0000
  C   C33       1.0  0.04714476595865585  0.44491782742216673  0.31193516613265626  1.0000
  C   C34       1.0  0.9528488766751905  0.5550781141176487  0.6880655347668283  1.0000
  C   C35       1.0  0.12576494228908083  0.47838850404164646  0.37564731779896493  1.0000
  C   C36       1.0  0.8742352072069723  0.5216094838657741  0.6243519661985817  1.0000
  C   C37       1.0  0.2717348123183855  0.3986214189811649  0.3844550739572768  1.0000
  C   C38       1.0  0.7282629766320454  0.6013765377088447  0.6155444933860895  1.0000
  C   C39       1.0  0.11575392414925292  0.33026501197832664  0.25816035378210966  1.0000
  C   C40       1.0  0.8842429745492454  0.6697319600679066  0.7418405983039096  1.0000
  C   C41       1.0  0.264456412667343  0.25282470305185006  0.26525106530143466  1.0000
  C   C42       1.0  0.7355428518438814  0.7471723148570107  0.7347515227137652  1.0000
  C   C43       1.0  0.34510232971052096  0.2877535038709383  0.3275192914485815  1.0000
  C   C44       1.0  0.6548983963158932  0.7122425362028297  0.6724811991717844  1.0000
  C   C45       1.0  0.5146355756737364  0.21780814003496132  0.3320472745809725  1.0000
  C   C46       1.0  0.4853601787425533  0.7821927520872906  0.6679544630510892  1.0000
  C   C47       1.0  0.47506929750137766  0.9703214375460547  0.36310733501899534  1.0000
  C   C48       1.0  0.5249314320364321  0.029674612291195508  0.6368944351180377  1.0000
  C   C49       1.0  0.29269230606546165  0.9260678985903328  0.4770435535940366  1.0000
  C   C50       1.0  0.7073133950824727  0.0739232991984338  0.5229569695312934  1.0000
  C   C51       1.0  0.1639323369104133  0.9253101087040677  0.5479938669528013  1.0000
  C   C52       1.0  0.8360789211565135  0.07467431361128263  0.4520098145753197  1.0000
  C   C53       1.0  0.14143018253144385  0.8026752159700054  0.5755150538873295  1.0000
  C   C54       1.0  0.8585872976439148  0.19731223639325893  0.424487886944121  1.0000
  C   C55       1.0  0.24433335923047383  0.6858365391751705  0.5340344952410165  1.0000
  C   C56       1.0  0.7556894010094624  0.314148978971815  0.46596268793826573  1.0000
  C   C57       1.0  0.3726032854550212  0.6870419422342451  0.4629033293411525  1.0000
  C   C58       1.0  0.6274089120209112  0.3129512726316719  0.5370919383322389  1.0000
  C   C59       1.0  0.3953274223162921  0.8090342999777181  0.43407166866391145  1.0000
  C   C60       1.0  0.6046783025323352  0.19096079932357676  0.5659250200262137  1.0000
  S   S1        1.0  0.8065986554233433  0.1544884699445106  0.7252208912921889  1.0000
  S   S2        1.0  0.19339863073363253  0.8455193108303408  0.2747793969329636  1.0000
  S   S3        1.0  0.5821394151080456  0.05230800807826339  0.28431630571371613  1.0000
  S   S4        1.0  0.4178580908443124  0.9476909371738105  0.7156845775932512  1.0000
  N   N1        1.0  0.5779443062199763  0.3736745372933186  0.7845471070073559  1.0000
  N   N2        1.0  0.4220541979561079  0.626337199656696  0.2154543231763527  1.0000
  N   N3        1.0  0.7958517569447282  0.35689891063675117  0.8434174819468157  1.0000
  N   N4        1.0  0.20414674371995284  0.6431128165497813  0.15658266872021911  1.0000
  N   N5        1.0  0.5067615922726745  0.8400106791442713  0.3637480493104662  1.0000
  N   N6        1.0  0.4932379842044199  0.15998926636028443  0.6362513075809348  1.0000
  N   N7        1.0  0.3480277271164028  0.026299286417781804  0.43083124668435613  1.0000
  N   N8        1.0  0.6519747592245791  0.9736948311945215  0.5691715884025756  1.0000
  O   O1        1.0  0.9007375495064167  0.7097165574698041  0.11626490088156068  1.0000
  O   O2        1.0  0.09926259472253204  0.29028141579238576  0.8837324638409785  1.0000
  O   O3        1.0  0.646403021736525  0.8293443048960897  0.13731344179897326  1.0000
  O   O4        1.0  0.3535992035513686  0.17065469790904333  0.8626862350580213  1.0000
  O   O5        1.0  0.8643876289353828  0.653512048374857  0.3258737029500837  1.0000
  O   O6        1.0  0.13561780062525486  0.3464840053162846  0.6741198233953015  1.0000
  O   O7        1.0  0.8017614690092287  0.4868309212176742  0.2595305708448806  1.0000
  O   O8        1.0  0.1982357179544465  0.5131650769117329  0.7404709845525448  1.0000
