data_image0
_chemical_formula_structural       Al2H14C18N2O10
_chemical_formula_sum              "Al2 H14 C18 N2 O10"
_cell_length_a       6.669736063196724
_cell_length_b       8.7661240597728
_cell_length_c       15.413391336088925
_cell_angle_alpha    80.56683852816022
_cell_angle_beta     75.27007556327291
_cell_angle_gamma    75.60573783951173

_space_group_name_H-M_alt    "P 1"
_space_group_IT_number       1

loop_
  _space_group_symop_operation_xyz
  'x, y, z'

loop_
  _atom_site_type_symbol
  _atom_site_label
  _atom_site_symmetry_multiplicity
  _atom_site_fract_x
  _atom_site_fract_y
  _atom_site_fract_z
  _atom_site_occupancy
  Al  Al1       1.0  0.5139054136426536  0.4660827974775472  0.49895847073007366  1.0000
  Al  Al2       1.0  0.012003816115594559  0.4689957982252436  0.5004907135770865  1.0000
  H   H1        1.0  0.22930914099183036  0.37981801112981367  0.6101411322886818  1.0000
  H   H2        1.0  0.7388154985827455  0.6507560207627564  0.43574985479291684  1.0000
  H   H3        1.0  0.236531079167598  0.9880772892978911  0.5041630846896155  1.0000
  H   H4        1.0  0.7949728611175287  0.9522657991120409  0.4925048394316179  1.0000
  H   H5        1.0  0.08325223768325431  0.5970138660529968  0.23527518461269642  1.0000
  H   H6        1.0  0.8481369268024678  0.6216902564778124  0.7549816637636937  1.0000
  H   H7        1.0  0.35019773889537475  0.37260312915950067  0.7864606211954098  1.0000
  H   H8        1.0  0.2797090353078885  0.37114312469540073  0.9538165766854476  1.0000
  H   H9        1.0  0.7292616220805995  0.3440213510917403  0.22349286205648872  1.0000
  H   H10       1.0  0.7882227958507855  0.35617842529138233  0.05564073422682724  1.0000
  H   H11       1.0  0.14112421484021093  0.6581607458297898  0.9914113458942707  1.0000
  H   H12       1.0  0.9730854944162314  0.6943355540288111  0.09491819732530618  1.0000
  H   H13       1.0  0.7736948358044556  0.6382615995161984  0.9952306240073768  1.0000
  H   H14       1.0  0.9162164293951137  0.6864217322463447  0.8891983073411113  1.0000
  C   C1        1.0  0.6658973130317563  0.48403795009262046  0.6623771281184149  1.0000
  C   C2        1.0  0.8520433916811853  0.18464712767566033  0.5026298894150827  1.0000
  C   C3        1.0  0.3536792085226708  0.45919166415547624  0.3389033977024383  1.0000
  C   C4        1.0  0.17602605702371216  0.7558141646256828  0.4939293508164297  1.0000
  C   C5        1.0  0.11460393503185157  0.9292500820608827  0.49893970116852415  1.0000
  C   C6        1.0  0.9165910529388909  0.011386397013666298  0.4976426150953017  1.0000
  C   C7        1.0  0.4015916531228425  0.47005667460913975  0.23845570287225124  1.0000
  C   C8        1.0  0.6046958276855036  0.4967715075012507  0.7614370173836704  1.0000
  C   C9        1.0  0.239387812624372  0.5484507775695562  0.1947842363238195  1.0000
  C   C10       1.0  0.2763359706241529  0.5687318682117778  0.10021177064404442  1.0000
  C   C11       1.0  0.7206468300276754  0.5698508764942788  0.7993651272262454  1.0000
  C   C12       1.0  0.6747181734610734  0.5779676584816541  0.892793699427223  1.0000
  C   C13       1.0  0.4391161893844993  0.42994261283973856  0.8166457193317598  1.0000
  C   C14       1.0  0.3997924195948527  0.43099897184844593  0.9097864508140674  1.0000
  C   C15       1.0  0.6037188023729457  0.4050042316830229  0.1886738113896342  1.0000
  C   C16       1.0  0.6361016136850137  0.4147859685526499  0.09513542432824815  1.0000
  C   C17       1.0  0.47639632942125587  0.49521647206771036  0.049332677717821107  1.0000
  C   C18       1.0  0.5160621682470462  0.5019956712109277  0.9496391480533435  1.0000
  N   N1        1.0  0.12304466161030786  0.6640873501952316  0.0579961899728616  1.0000
  N   N2        1.0  0.7778165764374732  0.6633254820228132  0.9283087063916752  1.0000
  O   O1        1.0  0.5273146882586346  0.46127732882802513  0.6248302338529115  1.0000
  O   O2        1.0  0.9883975414822643  0.2545883969310624  0.5133476766042335  1.0000
  O   O3        1.0  0.16530213080548598  0.4486027326405592  0.3796162130951188  1.0000
  O   O4        1.0  0.36749031481208055  0.6891513999850363  0.49781759050819124  1.0000
  O   O5        1.0  0.5008637927901417  0.4652634517978385  0.37624587751758304  1.0000
  O   O6        1.0  0.03470429939019929  0.6874940658508067  0.4859648794101973  1.0000
  O   O7        1.0  0.8559752025315889  0.4942388996178622  0.6230409387123998  1.0000
  O   O8        1.0  0.6621374276651225  0.2494844890848141  0.49636491328627125  1.0000
  O   O9        1.0  0.25802868643511084  0.4032815933682273  0.5450304703026347  1.0000
  O   O10       1.0  0.7630864828650629  0.5393728261512222  0.4583283399871477  1.0000
