data_image0
_chemical_formula_structural       Zr12H32C80N24O64
_chemical_formula_sum              "Zr12 H32 C80 N24 O64"
_cell_length_a       17.183374335557684
_cell_length_b       17.17816088672162
_cell_length_c       32.01545533467374
_cell_angle_alpha    90.04354887624191
_cell_angle_beta     89.8936024025891
_cell_angle_gamma    89.94018855476091

_space_group_name_H-M_alt    "P 1"
_space_group_IT_number       1

loop_
  _space_group_symop_operation_xyz
  'x, y, z'

loop_
  _atom_site_type_symbol
  _atom_site_label
  _atom_site_symmetry_multiplicity
  _atom_site_fract_x
  _atom_site_fract_y
  _atom_site_fract_z
  _atom_site_occupancy
  Zr  Zr1       1.0  0.056166550713974986  0.904173953277997  0.4530456328638904  1.0000
  Zr  Zr2       1.0  0.04810280883963709  0.9132925439025709  0.5640640931631751  1.0000
  Zr  Zr3       1.0  0.9114770824932846  0.0498012298377972  0.4480987867668062  1.0000
  Zr  Zr4       1.0  0.8989454166856132  0.058173609185722286  0.5588901550808955  1.0000
  Zr  Zr5       1.0  0.8759599020583622  0.877643072005135  0.5053824528880568  1.0000
  Zr  Zr6       1.0  0.08249383614970898  0.08498421530472909  0.5061001041068209  1.0000
  Zr  Zr7       1.0  0.3927850907097934  0.39916270875689713  0.9517348908426086  1.0000
  Zr  Zr8       1.0  0.40511222456703416  0.4100821815873275  0.062475383546768584  1.0000
  Zr  Zr9       1.0  0.5407214809878836  0.5431271214305227  0.9471915697503234  1.0000
  Zr  Zr10      1.0  0.5486803899931232  0.5577374036836815  0.057959900190439784  1.0000
  Zr  Zr11      1.0  0.3684900844312223  0.5809439508046595  0.004239093556606099  1.0000
  Zr  Zr12      1.0  0.5762659215346133  0.3733510296274359  0.005439201827030598  1.0000
  H   H1        1.0  0.17571386117273846  0.9435150682233907  0.5066455763808263  1.0000
  H   H2        1.0  0.8943464732868306  0.9042148079745828  0.5934820417526651  1.0000
  H   H3        1.0  0.9286131231975502  0.1765614742592376  0.5050325624611318  1.0000
  H   H4        1.0  0.902926843238866  0.8978507459723416  0.4163984540079538  1.0000
  H   H5        1.0  0.022891654934866796  0.8922830712808149  0.6478680110958945  1.0000
  H   H6        1.0  0.9659200786699385  0.9959614949335815  0.6318044676246684  1.0000
  H   H7        1.0  0.7702204475284231  0.1415643923198715  0.558559074059886  1.0000
  H   H8        1.0  0.8372587918396874  0.19114526311941654  0.4237083397305596  1.0000
  H   H9        1.0  0.9417054887748931  0.0731933897707862  0.3671741925767549  1.0000
  H   H10       1.0  0.9929790082667009  0.968874085782417  0.38001506344520647  1.0000
  H   H11       1.0  0.13847466825480836  0.7727849609220382  0.45696698608928427  1.0000
  H   H12       1.0  0.14513597292233976  0.8152828957272362  0.515918248867372  1.0000
  H   H13       1.0  0.7728424280956218  0.12528686717960366  0.43029286203223893  1.0000
  H   H14       1.0  0.0839160228860791  0.9452528607864179  0.3711381898849523  1.0000
  H   H15       1.0  0.19022149917510936  0.8280841314724796  0.5606995517065982  1.0000
  H   H16       1.0  0.9399578154068562  0.08607228288757089  0.6403682438633779  1.0000
  H   H17       1.0  0.42268553420300486  0.2815373084776524  0.006275145045833599  1.0000
  H   H18       1.0  0.3938859041017436  0.5629957888630912  0.0925681526184405  1.0000
  H   H19       1.0  0.667547707693572  0.5273946474735498  0.004263372038295198  1.0000
  H   H20       1.0  0.3895012976746983  0.5542479279497526  0.9156009188680512  1.0000
  H   H21       1.0  0.3759165418657559  0.4408784288797775  0.1453794495033875  1.0000
  H   H22       1.0  0.4840711556908842  0.49051801574574216  0.1309435265363703  1.0000
  H   H23       1.0  0.6325567806691409  0.6859898105558814  0.05758302496973038  1.0000
  H   H24       1.0  0.6822389866329387  0.6169788939127869  0.9228283294927448  1.0000
  H   H25       1.0  0.5645322755366421  0.513041827006873  0.8663642817639283  1.0000
  H   H26       1.0  0.4587063580962436  0.46156557364577105  0.878946336301496  1.0000
  H   H27       1.0  0.265321117706236  0.31456854912893556  0.9504073304317514  1.0000
  H   H28       1.0  0.33472328631316367  0.26986873186970683  0.0856400373169279  1.0000
  H   H29       1.0  0.6163044609631285  0.68129814443963  0.9297553290807696  1.0000
  H   H30       1.0  0.43431836033003174  0.3711452991913403  0.8705047595892024  1.0000
  H   H31       1.0  0.2659531193910069  0.3314137091440371  0.0796174700899002  1.0000
  H   H32       1.0  0.5739299965429865  0.5150774608926482  0.1397076584079997  1.0000
  C   C1        1.0  0.9485339078166106  0.7499643932118827  0.4410124258784406  1.0000
  C   C2        1.0  0.2021971226343098  0.022239483925801596  0.5762854460035953  1.0000
  C   C3        1.0  0.9426820628636531  0.7551295634676122  0.5726969749026267  1.0000
  C   C4        1.0  0.2041187157069828  0.0217290887090869  0.4361820523736242  1.0000
  C   C5        1.0  0.022994674279232196  0.2037765947197698  0.4337880254783641  1.0000
  C   C6        1.0  0.7457385599286183  0.9445392722403197  0.5683687224118896  1.0000
  C   C7        1.0  0.022252122889817396  0.20601260348104225  0.5745034732728271  1.0000
  C   C8        1.0  0.750325307106344  0.9448452955166573  0.4395234880060173  1.0000
  C   C9        1.0  0.5414698751192546  0.9627924645052982  0.3803906755077832  1.0000
  C   C10       1.0  0.4792749467858925  0.9759600766407172  0.3186976561040922  1.0000
  C   C11       1.0  0.41458906832720993  0.9972457975877658  0.3791844358788765  1.0000
  C   C12       1.0  0.999116218807252  0.4156040666197569  0.37841808577547903  1.0000
  C   C13       1.0  0.9781857141681625  0.48051635255870906  0.3181421338455975  1.0000
  C   C14       1.0  0.9650974924832096  0.542616935331665  0.379995513435773  1.0000
  C   C15       1.0  0.9997344156935878  0.41746015364727646  0.6303813594995729  1.0000
  C   C16       1.0  0.9644460137351414  0.5441810073927085  0.6294057413853409  1.0000
  C   C17       1.0  0.9792157960511004  0.4818124587566287  0.690950487304498  1.0000
  C   C18       1.0  0.5392788896931435  0.961697994864302  0.6298751924313634  1.0000
  C   C19       1.0  0.479098141817964  0.9781776865195863  0.6920315934573934  1.0000
  C   C20       1.0  0.41321104024466127  0.9989765079005011  0.6320948971808278  1.0000
  C   C21       1.0  0.0327151455168746  0.4920590947389555  0.1289399435572491  1.0000
  C   C22       1.0  0.9060685069536941  0.457064660542386  0.13109653453917497  1.0000
  C   C23       1.0  0.9721047480848454  0.47763285722560045  0.19105516052919563  1.0000
  C   C24       1.0  0.23966682125776373  0.5128334059550282  0.9412028185537195  1.0000
  C   C25       1.0  0.515823609933399  0.25401401807105356  0.07616432517659888  1.0000
  C   C26       1.0  0.24234971196003835  0.5132504732437441  0.07058809140320217  1.0000
  C   C27       1.0  0.518182614469481  0.25305101146619075  0.9362056372744121  1.0000
  C   C28       1.0  0.695475750329251  0.432385566079027  0.9333861186189977  1.0000
  C   C29       1.0  0.43484280012370385  0.7107319836460773  0.0677044735016281  1.0000
  C   C30       1.0  0.6955163268668513  0.43430825908284715  0.0746779154226758  1.0000
  C   C31       1.0  0.4382008561087857  0.7066223405502611  0.939061869094118  1.0000
  C   C32       1.0  0.45568409801636983  0.9162570236961329  0.1295144031189537  1.0000
  C   C33       1.0  0.4772229244980081  0.9751554426446989  0.1915176685514624  1.0000
  C   C34       1.0  0.4940758169567799  0.04196977474025938  0.1314511609201645  1.0000
  C   C35       1.0  0.0330422340803906  0.4955311681556012  0.8802752415046127  1.0000
  C   C36       1.0  0.9732021334784304  0.47973421438363306  0.8180377417765712  1.0000
  C   C37       1.0  0.9071219873385629  0.45826381192175336  0.8779462883935877  1.0000
  C   C38       1.0  0.4621872778249028  0.9157115338309153  0.8807732130985428  1.0000
  C   C39       1.0  0.49802338131971163  0.042113654082093895  0.8797630072394753  1.0000
  C   C40       1.0  0.4805003148056528  0.9769590851629598  0.8191670506177147  1.0000
  C   C41       1.0  0.7722884199279462  0.43074812399401446  0.9147771372589517  1.0000
  C   C42       1.0  0.8355759473179701  0.4405712684669467  0.898557123807933  1.0000
  C   C43       1.0  0.1637630133346377  0.5170918293144594  0.9217320252574479  1.0000
  C   C44       1.0  0.10223984520883529  0.5107163618104804  0.9033149371024293  1.0000
  C   C45       1.0  0.4307438263747371  0.786405485379852  0.08758730104807459  1.0000
  C   C46       1.0  0.43846999863669106  0.8474972773505909  0.10637412977982309  1.0000
  C   C47       1.0  0.5187362619021343  0.17719249254845687  0.09469771068123119  1.0000
  C   C48       1.0  0.510310716961392  0.11365039126547317  0.11080966907565677  1.0000
  C   C49       1.0  0.4375889256663612  0.7837543941092804  0.9208849867318492  1.0000
  C   C50       1.0  0.4460384540301092  0.8457984579035907  0.9031779163857434  1.0000
  C   C51       1.0  0.5219030323225765  0.17663264938242654  0.9172609839761703  1.0000
  C   C52       1.0  0.513908567387169  0.1132581318870081  0.9008922465738818  1.0000
  C   C53       1.0  0.8347317704876147  0.4403269325171236  0.1104556645797885  1.0000
  C   C54       1.0  0.7715135728796482  0.43153016007216377  0.09410424443863259  1.0000
  C   C55       1.0  0.10264861476258598  0.5065735879712819  0.1061536933098708  1.0000
  C   C56       1.0  0.1650160971152133  0.5141726165228773  0.0886073033127559  1.0000
  C   C57       1.0  0.480671000539786  0.9761630282996309  0.7745647613275252  1.0000
  C   C58       1.0  0.48059682900303347  0.9766829279472659  0.7366132925947537  1.0000
  C   C59       1.0  0.977055134523226  0.4821057970107105  0.7355502788937329  1.0000
  C   C60       1.0  0.9754243488695662  0.4813490941399649  0.7734864263086152  1.0000
  C   C61       1.0  0.9756186665236296  0.4808717371023831  0.2735698168121417  1.0000
  C   C62       1.0  0.9740604330379765  0.4795794894105965  0.23563951839157224  1.0000
  C   C63       1.0  0.4786048076892798  0.9732672142383333  0.23613737526819986  1.0000
  C   C64       1.0  0.47966472499525276  0.9738139574968018  0.2740904007578563  1.0000
  C   C65       1.0  0.34177923460343607  0.016252566647992194  0.6114641660228983  1.0000
  C   C66       1.0  0.2784862482828245  0.0251864985599539  0.5952193424019185  1.0000
  C   C67       1.0  0.6698792076865913  0.9399464369549191  0.5880054304712203  1.0000
  C   C68       1.0  0.608522460455731  0.9463969509841302  0.6067070309192744  1.0000
  C   C69       1.0  0.28033882584249875  0.02355841776527259  0.41685307947245315  1.0000
  C   C70       1.0  0.3434434994143629  0.014305040650313598  0.4002896243231574  1.0000
  C   C71       1.0  0.6117390068653988  0.9489973120881386  0.40287376055967167  1.0000
  C   C72       1.0  0.6737561014991158  0.9424025514753749  0.4207969817954762  1.0000
  C   C73       1.0  0.025149956482628997  0.2826715208429817  0.5932643487468849  1.0000
  C   C74       1.0  0.0164787843032741  0.3462916121725073  0.609322954606192  1.0000
  C   C75       1.0  0.9420106007438417  0.6776935398551345  0.5904828946989724  1.0000
  C   C76       1.0  0.9496260167631687  0.6147275696905224  0.6073375255958097  1.0000
  C   C77       1.0  0.0158311168346259  0.34414492963387733  0.399258435995648  1.0000
  C   C78       1.0  0.025012823311364195  0.28064904809888697  0.4153026195946835  1.0000
  C   C79       1.0  0.9455427816166233  0.6743229542566097  0.4211709270577656  1.0000
  C   C80       1.0  0.9515399506725472  0.612655003646175  0.40275465546901046  1.0000
  N   N1        1.0  0.5460165420452512  0.9577732636445191  0.33839688742651924  1.0000
  N   N2        1.0  0.4117691474194983  0.9965188193063591  0.3370896856731064  1.0000
  N   N3        1.0  0.47764145172154565  0.9816689535124751  0.4027302318334023  1.0000
  N   N4        1.0  0.9984118406868914  0.41280089834404515  0.33633075456504  1.0000
  N   N5        1.0  0.9603168532279511  0.5472702931287399  0.33800539752952824  1.0000
  N   N6        1.0  0.983586603650906  0.4784880561945639  0.40214895795763533  1.0000
  N   N7        1.0  0.9831644136584075  0.4804907536762287  0.6069476504154279  1.0000
  N   N8        1.0  0.9601889187951397  0.5485067710326916  0.6714469418868771  1.0000
  N   N9        1.0  2.9006978714099842e-05  0.41456205491469683  0.6724950003500609  1.0000
  N   N10       1.0  0.544801706558921  0.957715528302536  0.6718552600890391  1.0000
  N   N11       1.0  0.411631952401855  2.976135805709996e-05  0.6741939762320823  1.0000
  N   N12       1.0  0.47509862854913365  0.9810448399496606  0.6080413763749062  1.0000
  N   N13       1.0  0.9685601021298422  0.4733779873176899  0.1070855269757445  1.0000
  N   N14       1.0  0.9043833355803554  0.45692381163811285  0.1732490251728223  1.0000
  N   N15       1.0  0.03828569649437699  0.49644595762232063  0.17090374809718864  1.0000
  N   N16       1.0  0.45464022430066103  0.9100488850141768  0.17154817438731124  1.0000
  N   N17       1.0  0.4984735089814193  0.04268794182753769  0.1735080934173183  1.0000
  N   N18       1.0  0.4737942871355898  0.9807001836372108  0.10757100883728299  1.0000
  N   N19       1.0  0.038678711363083096  0.500014284215851  0.8383048554067256  1.0000
  N   N20       1.0  0.9055798166455132  0.4578896581031841  0.8358555204643778  1.0000
  N   N21       1.0  0.9688063720795126  0.4757452928894351  0.9020622065698161  1.0000
  N   N22       1.0  0.4799860847708571  0.9795210621223518  0.9032345398605486  1.0000
  N   N23       1.0  0.50058705682504  0.044345753651981595  0.8376609135538685  1.0000
  N   N24       1.0  0.46017364352773876  0.9106479054871525  0.8387380484521572  1.0000
  O   O1        1.0  0.010581130505258298  0.7877471968373156  0.43273811679104307  1.0000
  O   O2        1.0  0.8918750925242945  0.7714197150190786  0.46375544333495355  1.0000
  O   O3        1.0  0.16334489969277396  0.961888721518584  0.5862522160716848  1.0000
  O   O4        1.0  0.1822274060065112  0.07621329529509067  0.5513207979517458  1.0000
  O   O5        1.0  0.9994554973193528  0.7969547336774665  0.5846642218601941  1.0000
  O   O6        1.0  0.8883889936826534  0.7741988813015934  0.5476624312777361  1.0000
  O   O7        1.0  0.16217170586391208  0.9646852162043087  0.4242853060537683  1.0000
  O   O8        1.0  0.18704214676800748  0.07334398862189319  0.4631493526503404  1.0000
  O   O9        1.0  0.14425635620475666  0.8237651571549164  0.4698215102453957  1.0000
  O   O10       1.0  0.035937867511535194  0.9254049056786186  0.3834132297753142  1.0000
  O   O11       1.0  0.13902933155129918  0.8192002240650851  0.5487173239142605  1.0000
  O   O12       1.0  0.0273110703482047  0.9343263727668256  0.6277887683970818  1.0000
  O   O13       1.0  0.9960082274920125  0.8769471908034274  0.5074630383809406  1.0000
  O   O14       1.0  0.12078838388615049  0.9567489013470833  0.506697949620303  1.0000
  O   O15       1.0  0.9648525900742939  0.16298121806261173  0.4217931407753426  1.0000
  O   O16       1.0  0.07492772108606259  0.18469032898006074  0.4597724446112466  1.0000
  O   O17       1.0  0.7820896041165993  0.006785305402651399  0.5771686922996151  1.0000
  O   O18       1.0  0.7684301874210177  0.8887305343534987  0.5450979652673665  1.0000
  O   O19       1.0  0.9675706474753624  0.16327919839589097  0.5877698897373733  1.0000
  O   O20       1.0  0.0718364467839905  0.18951757163669916  0.5460595123843175  1.0000
  O   O21       1.0  0.7878059964565907  0.007215701073832301  0.4314318155253787  1.0000
  O   O22       1.0  0.773302874610792  0.8874387193252529  0.4611250597364743  1.0000
  O   O23       1.0  0.8191060581035429  0.14992655236313365  0.4422411268105435  1.0000
  O   O24       1.0  0.9289072102828725  0.027513056541266696  0.3837278297325283  1.0000
  O   O25       1.0  0.8254105742311921  0.14793376025026814  0.5531133854142212  1.0000
  O   O26       1.0  0.9214365429841677  0.0374784009752318  0.6281754379296558  1.0000
  O   O27       1.0  0.948551597901982  0.12360603501621627  0.5030780885163111  1.0000
  O   O28       1.0  0.8728899752142708  0.9973246066003794  0.5033824648510219  1.0000
  O   O29       1.0  0.024922103734709797  0.02322527778364499  0.460278636992406  1.0000
  O   O30       1.0  0.9157793012090991  0.9270789553414217  0.5682505445274797  1.0000
  O   O31       1.0  0.9248255024290514  0.9200915821941604  0.4416943479364334  1.0000
  O   O32       1.0  0.0207864262913873  0.027193683997289497  0.551003045829617  1.0000
  O   O33       1.0  0.2762182459007718  0.4504006858129017  0.9328579719549879  1.0000
  O   O34       1.0  0.26227202028908175  0.5692897687513749  0.9639311818245628  1.0000
  O   O35       1.0  0.4562645833612747  0.2934296934033185  0.08697629937516638  1.0000
  O   O36       1.0  0.5692144770808553  0.2741853059083893  0.05099903561589508  1.0000
  O   O37       1.0  0.282023343580697  0.45304420378232624  0.08065985281201898  1.0000
  O   O38       1.0  0.263939786935282  0.5695235726062221  0.04784717219122569  1.0000
  O   O39       1.0  0.46390563201953927  0.29583613024693983  0.9225069699928097  1.0000
  O   O40       1.0  0.566740881467524  0.2691315141013034  0.96505536647377  1.0000
  O   O41       1.0  0.3203167304642989  0.30873786063269637  0.9564828605174894  1.0000
  O   O42       1.0  0.41487404466185746  0.4198073260279215  0.8822964338682482  1.0000
  O   O43       1.0  0.31288342267471586  0.309286070656121  0.06702047307337007  1.0000
  O   O44       1.0  0.4192992583595085  0.42926956714101283  0.126964697732511  1.0000
  O   O45       1.0  0.3654120291562677  0.46087325841750726  0.006730588219312499  1.0000
  O   O46       1.0  0.4421401700914415  0.3347026678849332  0.0071297447487879  1.0000
  O   O47       1.0  0.6538875501439633  0.48971311472430284  0.921027981105567  1.0000
  O   O48       1.0  0.677023919299735  0.3809805946767284  0.9598863830153659  1.0000
  O   O49       1.0  0.49712934755334715  0.6741141223491097  0.07633180111825057  1.0000
  O   O50       1.0  0.3790472060246016  0.6883745357644243  0.04454011856028468  1.0000
  O   O51       1.0  0.6521866623830519  0.4887836957194692  0.08783774128661288  1.0000
  O   O52       1.0  0.6804725778383016  0.3851252855324532  0.0459711211087424  1.0000
  O   O53       1.0  0.49964776217969836  0.6677591996226792  0.9306422376308986  1.0000
  O   O54       1.0  0.38033534339053426  0.684330007455493  0.9605883895235221  1.0000
  O   O55       1.0  0.641562430296659  0.6352858943529184  0.9417208065940272  1.0000
  O   O56       1.0  0.5190274330594136  0.5260601293904157  0.8830700017091428  1.0000
  O   O57       1.0  0.6387831046259435  0.6305877694784668  0.0527015318452797  1.0000
  O   O58       1.0  0.5256234415430753  0.5342809094081956  0.127505464385429  1.0000
  O   O59       1.0  0.614610665342937  0.5075330808261994  0.0025827914410072993  1.0000
  O   O60       1.0  0.48808310061258453  0.5830665145058872  0.0027079718171165996  1.0000
  O   O61       1.0  0.514173598066982  0.4304815906294905  0.9605326989711642  1.0000
  O   O62       1.0  0.4164048819404299  0.5407015581643575  0.0674427438166205  1.0000
  O   O63       1.0  0.41093619048949387  0.531768207630293  0.940947475130038  1.0000
  O   O64       1.0  0.5181144068213399  0.4355690507953722  0.05069530810597199  1.0000
