data_image0
_chemical_formula_structural       MnH26C12O16
_chemical_formula_sum              "Mn1 H26 C12 O16"
_cell_length_a       5.6097397439640355
_cell_length_b       7.097348054623646
_cell_length_c       11.143136076628307
_cell_angle_alpha    86.28808320051998
_cell_angle_beta     83.02841517752991
_cell_angle_gamma    79.06689757283698

_space_group_name_H-M_alt    "P 1"
_space_group_IT_number       1

loop_
  _space_group_symop_operation_xyz
  'x, y, z'

loop_
  _atom_site_type_symbol
  _atom_site_label
  _atom_site_symmetry_multiplicity
  _atom_site_fract_x
  _atom_site_fract_y
  _atom_site_fract_z
  _atom_site_occupancy
  Mn  Mn1       1.0  0.4900578110171807  0.9910233774446481  0.49383555214365077  1.0000
  H   H1        1.0  0.15052015379220762  0.33548451616233177  0.4042654515109448  1.0000
  H   H2        1.0  0.5400113203176247  0.1686730499173592  0.15787323895186495  1.0000
  H   H3        1.0  0.21399997599446158  0.41657062603513134  0.013350905294629498  1.0000
  H   H4        1.0  0.9920645224333529  0.8436430721260847  0.06226477991731373  1.0000
  H   H5        1.0  0.23101793960719877  0.10394652799224961  0.06560534096406202  1.0000
  H   H6        1.0  0.43193716987148895  0.5447650888300757  0.6804399520828925  1.0000
  H   H7        1.0  0.6004520089680342  0.5489237615615464  0.9335371696123363  1.0000
  H   H8        1.0  0.866256829625492  0.24882303625874863  0.07461617670436031  1.0000
  H   H9        1.0  0.884449582028829  0.790125642290576  0.8852541372320676  1.0000
  H   H10       1.0  0.3930869842901076  0.24097337890568576  0.6883914747826623  1.0000
  H   H11       1.0  0.024171162821765804  0.0143498131372297  0.4609663030690145  1.0000
  H   H12       1.0  0.09866335350217532  0.812485067599752  0.530879850211953  1.0000
  H   H13       1.0  0.7668072381357975  0.6869635102708499  0.37141244340580937  1.0000
  H   H14       1.0  0.7951788654230398  0.8547444597100337  0.2746961955400239  1.0000
  H   H15       1.0  0.39337715404553125  0.5474625918893564  0.3987150742079495  1.0000
  H   H16       1.0  0.6740191662365191  0.5249799979653815  0.20587244182367215  1.0000
  H   H17       1.0  0.15369788933589495  0.455095131063949  0.2024473615962777  1.0000
  H   H18       1.0  0.2549926730032723  0.7695017799737656  0.26863015939647283  1.0000
  H   H19       1.0  0.4047849948796767  0.8150279152504467  0.9971569754328233  1.0000
  H   H20       1.0  0.6093824463812183  0.7853290895496129  0.10953818574136424  1.0000
  H   H21       1.0  0.8693304393073905  0.320177333589008  0.6437363796087896  1.0000
  H   H22       1.0  0.06967971024013761  0.4413701335004419  0.8006047420887016  1.0000
  H   H23       1.0  0.6875350071391965  0.21932187007709555  0.927275594058756  1.0000
  H   H24       1.0  0.894981051904317  0.037435090148953507  0.7517313888143068  1.0000
  H   H25       1.0  0.33798573343804617  0.8714034799383086  0.771471455444754  1.0000
  H   H26       1.0  0.36670924763183177  0.06948706463398219  0.8552375452822077  1.0000
  C   C1        1.0  0.7204303124145213  0.3394040859495249  0.41531300076742655  1.0000
  C   C2        1.0  0.47916249596833177  0.4070587868804978  0.3618395451449744  1.0000
  C   C3        1.0  0.5391191151343548  0.4295532629143821  0.22265441112108425  1.0000
  C   C4        1.0  0.3097724633659595  0.5181627691804422  0.15980061157809905  1.0000
  C   C5        1.0  0.24551525117198036  0.7367879067445172  0.17427315794981274  1.0000
  C   C6        1.0  0.42065709501805065  0.8404687930030689  0.09181064935478393  1.0000
  C   C7        1.0  0.8058653966454017  0.6276223361809343  0.6380016971468622  1.0000
  C   C8        1.0  0.7699357406141019  0.4354965913017423  0.7021457595797999  1.0000
  C   C9        1.0  0.8798802760492068  0.42040681920727235  0.8222294189361538  1.0000
  C   C10       1.0  0.8785279486739627  0.2311347589230479  0.8960118662621286  1.0000
  C   C11       1.0  0.9936570426219903  0.0460177072405585  0.830347377469643  1.0000
  C   C12       1.0  0.2678771709532981  0.02428573421723  0.7858052152009452  1.0000
  O   O1        1.0  0.7544827724159973  0.1767994978591929  0.47235701064661145  1.0000
  O   O2        1.0  0.3276709928550758  0.26865441802917905  0.39482499340687144  1.0000
  O   O3        1.0  0.6602501784468375  0.2480021175848393  0.17861770747889247  1.0000
  O   O4        1.0  0.3483330939905329  0.4767531596600349  0.033246881264894106  1.0000
  O   O5        1.0  0.9988321296939306  0.8101093261118704  0.15029135098723156  1.0000
  O   O6        1.0  0.37235638154598405  0.0422067363231946  0.10904586891690833  1.0000
  O   O7        1.0  0.8783269333611444  0.4475573125587857  0.3984013256452031  1.0000
  O   O8        1.0  0.16326863791526589  0.9063781392735846  0.4677248478843057  1.0000
  O   O9        1.0  0.6937473046926853  0.8221168496807466  0.3500430138695096  1.0000
  O   O10       1.0  0.6127452093898  0.7357337019869662  0.6062105466242544  1.0000
  O   O11       1.0  0.5145180864413064  0.42550649034370736  0.7203807900638427  1.0000
  O   O12       1.0  0.7591591394423532  0.5776970409514774  0.8947204042054085  1.0000
  O   O13       1.0  0.998484699713657  0.2427199108435047  0.0023274873871273073  1.0000
  O   O14       1.0  0.9622298673934965  0.889259646265124  0.91545342030976  1.0000
  O   O15       1.0  0.315919656549312  0.12965492547692037  0.6733251060197318  1.0000
  O   O16       1.0  0.02042945198392944  0.6613458470172657  0.6244868497558471  1.0000
