data_image0
_chemical_formula_structural       Cu4H12C16S4Br4N8
_chemical_formula_sum              "Cu4 H12 C16 S4 Br4 N8"
_cell_length_a       3.95393450550472
_cell_length_b       7.828545022562358
_cell_length_c       21.575437072059984
_cell_angle_alpha    94.67892217004899
_cell_angle_beta     89.9441682052028
_cell_angle_gamma    104.69328737683719

_space_group_name_H-M_alt    "P 1"
_space_group_IT_number       1

loop_
  _space_group_symop_operation_xyz
  'x, y, z'

loop_
  _atom_site_type_symbol
  _atom_site_label
  _atom_site_symmetry_multiplicity
  _atom_site_fract_x
  _atom_site_fract_y
  _atom_site_fract_z
  _atom_site_occupancy
  Cu  Cu1       1.0  0.25479262485459514  0.9849036790774834  0.42935460959650834  1.0000
  Cu  Cu2       1.0  0.2688885074950633  0.013750648348605002  0.0700915498052055  1.0000
  Cu  Cu3       1.0  0.7452044256294454  0.01509524893938161  0.570645732916141  1.0000
  Cu  Cu4       1.0  0.7311275734508628  0.9862509299867173  0.9299093364859274  1.0000
  H   H1        1.0  0.9926826280626029  0.541940879618579  0.2853128260394229  1.0000
  H   H2        1.0  0.44530388548631816  0.455510623582505  0.21358363709818917  1.0000
  H   H3        1.0  0.007300439394200014  0.45805538353793906  0.7146883622535893  1.0000
  H   H4        1.0  0.554680387491004  0.5444829951658293  0.7864170057053883  1.0000
  H   H5        1.0  0.17686748282852  0.5540463683895496  0.39784563959403124  1.0000
  H   H6        1.0  0.6198042538536512  0.44449751469210247  0.10105660798441107  1.0000
  H   H7        1.0  0.8231295753628344  0.4459525703069502  0.6021537762609056  1.0000
  H   H8        1.0  0.3802079659098824  0.555501407077827  0.8989446599027388  1.0000
  H   H9        1.0  0.8335107051492942  0.311112914823184  0.46168812507880824  1.0000
  H   H10       1.0  0.5211971054160998  0.6879962410967763  0.03745517584075489  1.0000
  H   H11       1.0  0.16648368196557342  0.6888807015404768  0.5383129801981424  1.0000
  H   H12       1.0  0.4788297574364861  0.31200666543706757  0.9625457505682533  1.0000
  C   C1        1.0  0.46258721379086143  0.1771554829250093  0.32429355441139046  1.0000
  C   C2        1.0  0.28256764928559636  0.820888271349233  0.1749530648903033  1.0000
  C   C3        1.0  0.5374029082616048  0.8228447627790701  0.675707293045086  1.0000
  C   C4        1.0  0.7174383098154707  0.1791132986911279  0.8250482855851686  1.0000
  C   C5        1.0  0.8688340492427784  0.4372371313507131  0.3148045206448629  1.0000
  C   C6        1.0  0.427498135626891  0.5606582566747277  0.1842088629773784  1.0000
  C   C7        1.0  0.13117711043258146  0.5627697617612739  0.6851951401947217  1.0000
  C   C8        1.0  0.5724963815057009  0.4393406652635293  0.8157919430780041  1.0000
  C   C9        1.0  0.9670644868388366  0.4461782940639623  0.3771761890195364  1.0000
  C   C10       1.0  0.5179329019129923  0.552206610302264  0.12185230704537278  1.0000
  C   C11       1.0  0.03292627600716716  0.5538232448446082  0.622827479383453  1.0000
  C   C12       1.0  0.4820851669256784  0.4477989384234108  0.8781491654946763  1.0000
  C   C13       1.0  0.7824286157348013  0.3133677514195271  0.4121860339666057  1.0000
  C   C14       1.0  0.4669064797293673  0.6852786677585315  0.08695233731376109  1.0000
  C   C15       1.0  0.21756526060424622  0.6866298773142533  0.5878119511422638  1.0000
  C   C16       1.0  0.5331153202739713  0.3147242319579249  0.9130490528518465  1.0000
  S   S1        1.0  0.13187524011843998  0.987414448181113  0.2981921355558299  1.0000
  S   S2        1.0  0.14260314292243245  0.0105629420514717  0.20125036131421584  1.0000
  S   S3        1.0  0.8681160836008813  0.0125831477749685  0.7018086297400643  1.0000
  S   S4        1.0  0.8574065550506091  0.9894359896593131  0.7987499801290882  1.0000
  Br  Br1       1.0  0.697458507665573  0.8098705758310631  0.45162837504069125  1.0000
  Br  Br2       1.0  0.8864365388738095  0.18894128859768242  0.04850581025566919  1.0000
  Br  Br3       1.0  0.3025138857868797  0.1901245086418299  0.5483597999263878  1.0000
  Br  Br4       1.0  0.11357628800689694  0.8110537542975823  0.9514869945780831  1.0000
  N   N1        1.0  0.5247913344524591  0.17925701924168183  0.38620930334365505  1.0000
  N   N2        1.0  0.34327053315644224  0.8191431927179381  0.11304565650301159  1.0000
  N   N3        1.0  0.4752090279016203  0.8207485243125066  0.6137921706934861  1.0000
  N   N4        1.0  0.6567463301617095  0.1808650004159205  0.8869563615264795  1.0000
  N   N5        1.0  0.6172246495557515  0.30195809094117004  0.2879901324113873  1.0000
  N   N6        1.0  0.31138759038400127  0.6957962592763213  0.2110977958724547  1.0000
  N   N7        1.0  0.38276546093575103  0.6980421387434605  0.7120121050316683  1.0000
  N   N8        1.0  0.6886107840773262  0.3042053138875077  0.7889030919157703  1.0000
