data_image0
_chemical_formula_structural       Zn8P8H24C12O24
_chemical_formula_sum              "Zn8 P8 H24 C12 O24"
_cell_length_a       5.319862985357017
_cell_length_b       8.360668188144547
_cell_length_c       18.89368690535615
_cell_angle_alpha    89.9994286537058
_cell_angle_beta     89.99738336524257
_cell_angle_gamma    89.99965213766944

_space_group_name_H-M_alt    "P 1"
_space_group_IT_number       1

loop_
  _space_group_symop_operation_xyz
  'x, y, z'

loop_
  _atom_site_type_symbol
  _atom_site_label
  _atom_site_symmetry_multiplicity
  _atom_site_fract_x
  _atom_site_fract_y
  _atom_site_fract_z
  _atom_site_occupancy
  Zn  Zn1       1.0  0.5638191978669482  0.25620503205669115  0.052740465873114296  1.0000
  Zn  Zn2       1.0  0.0638112100227275  0.24382303608115324  0.9472556577679611  1.0000
  Zn  Zn3       1.0  0.9362074818923887  0.7561935205082763  0.4472597588635309  1.0000
  Zn  Zn4       1.0  0.4361426838004192  0.7437614220764959  0.5527447275958862  1.0000
  Zn  Zn5       1.0  0.4361607501999529  0.7437870713505818  0.9472611624340955  1.0000
  Zn  Zn6       1.0  0.9361443017580199  0.7561905968260519  0.0527396193155383  1.0000
  Zn  Zn7       1.0  0.0638401370311001  0.24382250429435715  0.5527413396856247  1.0000
  Zn  Zn8       1.0  0.5638710997113776  0.2562031714790366  0.4472584883937785  1.0000
  P   P1        1.0  0.06315985763841779  0.09903867362562833  0.1042299576981662  1.0000
  P   P2        1.0  0.5631716439384675  0.4009738481702528  0.8957751718636756  1.0000
  P   P3        1.0  0.4368085849918231  0.5990198968173532  0.3957788691118722  1.0000
  P   P4        1.0  0.9368367253257759  0.9009302585176258  0.6042441339179732  1.0000
  P   P5        1.0  0.9368670849788144  0.9009067827783143  0.8957637312609776  1.0000
  P   P6        1.0  0.43675191252669526  0.5990397848559894  0.10421534192493448  1.0000
  P   P7        1.0  0.5631882806878536  0.4009482849925521  0.6042254055305918  1.0000
  P   P8        1.0  0.0632447280417949  0.09906662884430521  0.3957701963954463  1.0000
  H   H1        1.0  0.08206143733436021  0.3369004493401989  0.1739562856367058  1.0000
  H   H2        1.0  0.5820398342923028  0.16309763955656822  0.826045959988484  1.0000
  H   H3        1.0  0.4178805192027681  0.8369299029725212  0.3260419191785999  1.0000
  H   H4        1.0  0.9179687066436203  0.6630992737588104  0.6739559161066992  1.0000
  H   H5        1.0  0.9179598642345184  0.6631179675573834  0.8260553986189194  1.0000
  H   H6        1.0  0.4178949996476149  0.8369064246956557  0.1739572564069363  1.0000
  H   H7        1.0  0.582078752307936  0.16305980841082862  0.6739517701043525  1.0000
  H   H8        1.0  0.0821353049289897  0.33691675095289514  0.3260425357011201  1.0000
  H   H9        1.0  0.8041037692372157  0.22712404824487462  0.1881186332577229  1.0000
  H   H10       1.0  0.30408412702593074  0.27287429589275564  0.8118924630288973  1.0000
  H   H11       1.0  0.6958592495704964  0.7271595321777724  0.3118811963757366  1.0000
  H   H12       1.0  0.1958732759683315  0.7728729776462941  0.6881040834878078  1.0000
  H   H13       1.0  0.19589873481888984  0.7728824079146153  0.811894109698315  1.0000
  H   H14       1.0  0.6958958213814768  0.7271201997134613  0.1881049310542267  1.0000
  H   H15       1.0  0.30411881927260254  0.27288400262643375  0.6881114341104321  1.0000
  H   H16       1.0  0.8041649447379272  0.22714424332136224  0.3118906637898462  1.0000
  H   H17       1.0  0.3242464049521274  0.14680426252634504  0.2499911798381333  1.0000
  H   H18       1.0  0.8242169667170456  0.3531664867779727  0.7499969042422592  1.0000
  H   H19       1.0  0.1757291459021602  0.6468028912332144  0.2500057828847416  1.0000
  H   H20       1.0  0.6758068535727729  0.853179468223317  0.7500072723632698  1.0000
  H   H21       1.0  0.06992841430278672  0.009909044268710001  0.2499978581874061  1.0000
  H   H22       1.0  0.5699241129096392  0.49009268428126535  0.7499992471881214  1.0000
  H   H23       1.0  0.4300877907772716  0.5099101837424627  0.25000291017062176  1.0000
  H   H24       1.0  0.9301004074767434  0.9900806669159653  0.7500005941539456  1.0000
  C   C1        1.0  0.009559334490745598  0.21556570454632865  0.18311034299683365  1.0000
  C   C2        1.0  0.5095851961853411  0.2844147502516564  0.8168938730453021  1.0000
  C   C3        1.0  0.49044569904781804  0.7155579697699682  0.3168947714312083  1.0000
  C   C4        1.0  0.9904786906160369  0.7844398014783566  0.6831185589567285  1.0000
  C   C5        1.0  0.9904337726738959  0.7844192224815671  0.8168812289750065  1.0000
  C   C6        1.0  0.49037783485169234  0.7155881179782997  0.18309875762906805  1.0000
  C   C7        1.0  0.5095229705795744  0.2844437022858061  0.6831057983702706  1.0000
  C   C8        1.0  0.009587725355864102  0.21557383107411  0.3168878322529025  1.0000
  C   C9        1.0  0.11780879505987231  0.1379357914108326  0.2499972623031397  1.0000
  C   C10       1.0  0.61777552126388  0.3620621461430177  0.7499971237899459  1.0000
  C   C11       1.0  0.3822025475428815  0.6379287612543438  0.24999868248129078  1.0000
  C   C12       1.0  0.8822463433159414  0.8620646844307702  0.7499990727386106  1.0000
  O   O1        1.0  0.9461628379851986  0.9347808635079533  0.11777621321917311  1.0000
  O   O2        1.0  0.44617092510323186  0.5652649386222635  0.8822233838323328  1.0000
  O   O3        1.0  0.5538547840239049  0.4347817258805835  0.3822194844844446  1.0000
  O   O4        1.0  0.053714957278025104  0.06522126718783032  0.6177725311834336  1.0000
  O   O5        1.0  0.053753197967338906  0.0652196124856843  0.882233354630614  1.0000
  O   O6        1.0  0.5537375920262946  0.4347271648678587  0.1177845962520578  1.0000
  O   O7        1.0  0.4461984751717838  0.5652295147347248  0.6177694406618457  1.0000
  O   O8        1.0  0.9462875488493337  0.9347624637720316  0.3822163943454271  1.0000
  O   O9        1.0  0.9191584550808612  0.18894541401257925  0.0422602823671241  1.0000
  O   O10       1.0  0.4191594283518683  0.31107995240854797  0.9577488369928062  1.0000
  O   O11       1.0  0.5808537664404411  0.6889555153606253  0.4577381349485634  1.0000
  O   O12       1.0  0.08078072728577719  0.8110810700766325  0.5422517679556833  1.0000
  O   O13       1.0  0.08076697918963299  0.8110813756075147  0.9577529903042218  1.0000
  O   O14       1.0  0.5808393169517744  0.6889169352369822  0.04225543757175389  1.0000
  O   O15       1.0  0.41920513156486544  0.31105452910903614  0.5422560829382235  1.0000
  O   O16       1.0  0.9192067401072065  0.18893495490476656  0.4577445674759489  1.0000
  O   O17       1.0  0.34256154976879577  0.0874267763648788  0.0850509217081168  1.0000
  O   O18       1.0  0.8425775786924419  0.4125570521207323  0.9149342852539704  1.0000
  O   O19       1.0  0.1574051138246944  0.5874434561659571  0.4149484314980966  1.0000
  O   O20       1.0  0.6574927237418677  0.9125521377216472  0.5850669712938483  1.0000
  O   O21       1.0  0.6574973479166246  0.912576091599242  0.9149475304137625  1.0000
  O   O22       1.0  0.1573328188246137  0.5874697376909597  0.0850641677469568  1.0000
  O   O23       1.0  0.8425748339120035  0.4125438628890735  0.5850574310386989  1.0000
  O   O24       1.0  0.3426338445550314  0.0874602986780957  0.4149346560442666  1.0000
