data_image0
_chemical_formula_structural       Zn4H8C12N12O8
_chemical_formula_sum              "Zn4 H8 C12 N12 O8"
_cell_length_a       8.9955671162694
_cell_length_b       9.485072635451939
_cell_length_c       9.868338779013998
_cell_angle_alpha    89.9999969191915
_cell_angle_beta     90.0001737385047
_cell_angle_gamma    117.0438941646438

_space_group_name_H-M_alt    "P 1"
_space_group_IT_number       1

loop_
  _space_group_symop_operation_xyz
  'x, y, z'

loop_
  _atom_site_type_symbol
  _atom_site_label
  _atom_site_symmetry_multiplicity
  _atom_site_fract_x
  _atom_site_fract_y
  _atom_site_fract_z
  _atom_site_occupancy
  Zn  Zn1       1.0  0.17385104227056283  0.9379475275331897  0.942779973084747  1.0000
  Zn  Zn2       1.0  0.8261466814616867  0.5620507510717231  0.44277980918236187  1.0000
  Zn  Zn3       1.0  0.8261486569666374  0.06205225176243798  0.057219485891664604  1.0000
  Zn  Zn4       1.0  0.17385245945526145  0.43794784454718166  0.557220663135084  1.0000
  H   H1        1.0  0.8974083214017625  0.8003399688545725  0.6908652241480625  1.0000
  H   H2        1.0  0.10259058987290356  0.6996578946335248  0.19086507766341756  1.0000
  H   H3        1.0  0.1025902608422058  0.19965508547547728  0.30913626151046714  1.0000
  H   H4        1.0  0.8974124589498517  0.300346629117321  0.8091364080010877  1.0000
  H   H5        1.0  0.267506704382427  0.671209228321487  0.8108642888814972  1.0000
  H   H6        1.0  0.7324943796683455  0.8287923932239988  0.3108668938349695  1.0000
  H   H7        1.0  0.7324957861179798  0.3287941117517548  0.18913719678226226  1.0000
  H   H8        1.0  0.2675047612549122  0.1712062023975277  0.6891366185078243  1.0000
  C   C1        1.0  0.4731797111194709  0.9159187664778939  0.0302448333824827  1.0000
  C   C2        1.0  0.5268213250981972  0.5840823806842507  0.5302449768968531  1.0000
  C   C3        1.0  0.526823337333731  0.08408339965382787  0.9697485455478234  1.0000
  C   C4        1.0  0.473178373782062  0.41591504099750404  0.46975245539604776  1.0000
  C   C5        1.0  0.9789980281315991  0.7445225233660863  0.6969230955014964  1.0000
  C   C6        1.0  0.020997559399241007  0.7554753213445051  0.1969237339882852  1.0000
  C   C7        1.0  0.020999996493387033  0.2554760625097428  0.30307737681440733  1.0000
  C   C8        1.0  0.9790010239029243  0.2445268058219341  0.8030777516700882  1.0000
  C   C9        1.0  0.16618190205816305  0.6778903802536501  0.7565307888290251  1.0000
  C   C10       1.0  0.8338206308559252  0.8221099833636671  0.2565326612532602  1.0000
  C   C11       1.0  0.8338222626996199  0.3221117956263909  0.24346867015351856  1.0000
  C   C12       1.0  0.1661801846774367  0.17788980567677726  0.7434688244082609  1.0000
  N   N1        1.0  0.09965228719227054  0.7756361771324547  0.7905668183192276  1.0000
  N   N2        1.0  0.9003459213922652  0.7243618486177753  0.2905668525960579  1.0000
  N   N3        1.0  0.9003479700166397  0.22436242822951866  0.209433653999767  1.0000
  N   N4        1.0  0.09965489449592717  0.27564029803567536  0.7094356464071867  1.0000
  N   N5        1.0  0.9709166077159355  0.6335747399679903  0.6100107888619137  1.0000
  N   N6        1.0  0.02908029353006459  0.8664217906101682  0.1100114447767311  1.0000
  N   N7        1.0  0.029084765782840773  0.36642387513617786  0.38998867011684274  1.0000
  N   N8        1.0  0.970918289419373  0.13357797894413886  0.8899900408816993  1.0000
  N   N9        1.0  0.09183659328817838  0.5911780582629831  0.6480514367866803  1.0000
  N   N10       1.0  0.9081643733193089  0.9088221084630131  0.1480535111637664  1.0000
  N   N11       1.0  0.908167013145153  0.40882293393858044  0.3519470088533296  1.0000
  N   N12       1.0  0.0918342096280256  0.09117766109041978  0.8519469611528835  1.0000
  O   O1        1.0  0.319475275306587  0.8215495079946321  0.03116777708785891  1.0000
  O   O2        1.0  0.6805218578825745  0.6784527854602087  0.531162261861475  1.0000
  O   O3        1.0  0.6805244246381791  0.17845498652612687  0.9688326952302265  1.0000
  O   O4        1.0  0.31947393275175523  0.32153635048271667  0.4688402371351046  1.0000
  O   O5        1.0  0.5888944350735696  0.8858036145079989  0.07392813175138  1.0000
  O   O6        1.0  0.41110231683835957  0.61419521143182  0.5739279535667308  1.0000
  O   O7        1.0  0.41110638079781137  0.11419853213845949  0.9260662605176154  1.0000
  O   O8        1.0  0.5888912426061595  0.38580333546648393  0.42606643869230265  1.0000
