data_image0
_chemical_formula_structural       Al2H15C26S2ClO10
_chemical_formula_sum              "Al2 H15 C26 S2 Cl1 O10"
_cell_length_a       7.301266727761152
_cell_length_b       12.607812784807537
_cell_length_c       15.130458924833448
_cell_angle_alpha    83.07605582894364
_cell_angle_beta     76.0103979475427
_cell_angle_gamma    75.06043324514255

_space_group_name_H-M_alt    "P 1"
_space_group_IT_number       1

loop_
  _space_group_symop_operation_xyz
  'x, y, z'

loop_
  _atom_site_type_symbol
  _atom_site_label
  _atom_site_symmetry_multiplicity
  _atom_site_fract_x
  _atom_site_fract_y
  _atom_site_fract_z
  _atom_site_occupancy
  Al  Al1       1.0  0.5047308515800566  0.4948007764046949  0.49866433638415936  1.0000
  Al  Al2       1.0  0.0019831063199760315  0.49869438849358966  0.49960038930112927  1.0000
  H   H1        1.0  0.2417881169042176  0.40778767364362517  0.6004113669773831  1.0000
  H   H2        1.0  0.7216050645567622  0.6264231314600721  0.43802995144672957  1.0000
  H   H3        1.0  0.8736300523232292  0.5524812611623205  0.7678429110830081  1.0000
  H   H4        1.0  0.35100511778291854  0.4512034365930687  0.7728488244437273  1.0000
  H   H5        1.0  0.081105518090645  0.5455356464948197  0.2284116518699122  1.0000
  H   H6        1.0  0.6904810433381174  0.44615291788443306  0.23052915177587616  1.0000
  H   H7        1.0  0.7359143774508682  0.6270034684674571  0.9991147897812811  1.0000
  H   H8        1.0  0.9489332263538092  0.5644956163846616  0.9230411063657157  1.0000
  H   H9        1.0  0.2540456040712585  0.37542332469328704  0.00928121170000648  1.0000
  H   H10       1.0  0.11735417381589035  0.4411410208006288  0.9289051274434783  1.0000
  H   H11       1.0  0.14926854312653143  0.6271675690665434  0.9914574735917299  1.0000
  H   H12       1.0  0.9923158770647403  0.5604760235471247  0.07211394297395662  1.0000
  H   H13       1.0  0.8455269992020364  0.3759126444478512  0.9987467174054104  1.0000
  H   H14       1.0  0.9296252374242826  0.43712710453856846  0.07442227228452229  1.0000
  H   H15       1.0  0.6442808217244151  0.1353983511821966  0.490745189393742  1.0000
  C   C1        1.0  0.8453852610334781  0.3058215215947158  0.49008044768967823  1.0000
  C   C2        1.0  0.6715558714425783  0.4977728411465421  0.6596418743632101  1.0000
  C   C3        1.0  0.16791189350171024  0.6893867673702373  0.5063500690266596  1.0000
  C   C4        1.0  0.3325536445587646  0.49526052515060576  0.34004047685776584  1.0000
  C   C5        1.0  0.8104586850527087  0.5514413320411223  0.9629556221538423  1.0000
  C   C6        1.0  0.21709908540849918  0.452807809856793  0.9677480579057091  1.0000
  C   C7        1.0  0.1410239523315582  0.5496292451722625  0.03293701573122829  1.0000
  C   C8        1.0  0.8185117919678578  0.45122584231427254  0.035008136843053685  1.0000
  C   C9        1.0  0.7406061604294013  0.5309912290777774  0.8072343294406182  1.0000
  C   C10       1.0  0.6915574167724188  0.5317474077626869  0.9019535922793551  1.0000
  C   C11       1.0  0.44459848619650455  0.47364715752391356  0.8100693786449755  1.0000
  C   C12       1.0  0.3966155430426782  0.4746383661125435  0.9047747054005342  1.0000
  C   C13       1.0  0.23159075929611816  0.5253689017894632  0.1902970582480279  1.0000
  C   C14       1.0  0.2779350799851913  0.5278917103754139  0.09542026676177072  1.0000
  C   C15       1.0  0.5770357688013235  0.46868385562238774  0.19155146820152424  1.0000
  C   C16       1.0  0.6217704621068378  0.47107693783127064  0.09669010378927824  1.0000
  C   C17       1.0  0.6173800723237977  0.5014396221013584  0.7609935729860666  1.0000
  C   C18       1.0  0.5206640557926224  0.5031771196845155  0.9499100808307832  1.0000
  C   C19       1.0  0.3815080929292165  0.49614017638372593  0.23848117032765262  1.0000
  C   C20       1.0  0.4722728076228081  0.5011203838048744  0.04952023643856051  1.0000
  C   C21       1.0  0.21890200129093543  0.8868823069203701  0.5034289440187578  1.0000
  C   C22       1.0  0.7974859981560345  0.1103650709231445  0.4927000730412202  1.0000
  C   C23       1.0  0.11146831230666275  0.8100868560848936  0.5048583462734515  1.0000
  C   C24       1.0  0.9077984751516441  0.1850251932124465  0.4913949284310489  1.0000
  C   C25       1.0  0.9113642834566705  0.001449365720994  0.496946958736693  1.0000
  C   C26       1.0  0.10554870515772313  0.9960060686082742  0.49887727652286873  1.0000
  S   S1        1.0  0.8718945440777972  0.872020240572482  0.5008025326177261  1.0000
  S   S2        1.0  0.1491361287204427  0.12419608011978059  0.4952381522791498  1.0000
  Cl  Cl1       1.0  0.45840321734133493  0.8584588040090252  0.5068430031515306  1.0000
  O   O1        1.0  0.6676540197165937  0.34903506998661993  0.4888997764394602  1.0000
  O   O2        1.0  0.847768429151124  0.49963098171563286  0.6216142550014608  1.0000
  O   O3        1.0  0.027826505757857865  0.6447482391900651  0.507139151731927  1.0000
  O   O4        1.0  0.4716498274680632  0.4928324659678082  0.3784279378538075  1.0000
  O   O5        1.0  0.34544646170611065  0.6429119048611937  0.5055039316639665  1.0000
  O   O6        1.0  0.15545379903385026  0.49845766455278107  0.3791561707620091  1.0000
  O   O7        1.0  0.9791885719697931  0.35376035842404707  0.49158783269254513  1.0000
  O   O8        1.0  0.5373418372819856  0.4915553538002585  0.6207922489222498  1.0000
  O   O9        1.0  0.2551048673968453  0.4462394658094269  0.5405193312446172  1.0000
  O   O10       1.0  0.7491087492158787  0.5493071595354451  0.4592619960389613  1.0000
