data_image0
_chemical_formula_structural       Zn2H18C26N4O10
_chemical_formula_sum              "Zn2 H18 C26 N4 O10"
_cell_length_a       7.7395444943563865
_cell_length_b       8.47456344228596
_cell_length_c       11.16845934374032
_cell_angle_alpha    107.57946054766963
_cell_angle_beta     93.91917622662625
_cell_angle_gamma    101.59976809825824

_space_group_name_H-M_alt    "P 1"
_space_group_IT_number       1

loop_
  _space_group_symop_operation_xyz
  'x, y, z'

loop_
  _atom_site_type_symbol
  _atom_site_label
  _atom_site_symmetry_multiplicity
  _atom_site_fract_x
  _atom_site_fract_y
  _atom_site_fract_z
  _atom_site_occupancy
  Zn  Zn1       1.0  0.5412684451754259  0.9139083489222916  0.8480947119992525  1.0000
  Zn  Zn2       1.0  0.45873135244337965  0.08609206650838533  0.1519061250717826  1.0000
  H   H1        1.0  0.00980822898512911  0.8196926549923732  0.9928899950934991  1.0000
  H   H2        1.0  0.9901977423711299  0.18030651209216594  0.0071117512199662955  1.0000
  H   H3        1.0  0.21373620804840962  0.6648086357146784  0.06673085810444238  1.0000
  H   H4        1.0  0.7862661895486484  0.3351918188606291  0.9332727969684529  1.0000
  H   H5        1.0  0.6493502152179716  0.6944987900828395  0.24564158121111757  1.0000
  H   H6        1.0  0.35064698809461686  0.3055016087817108  0.7543582339880431  1.0000
  H   H7        1.0  0.8565410936015427  0.7798104776640432  0.7622625742226462  1.0000
  H   H8        1.0  0.14345770471214794  0.22019116279880546  0.2377349070247378  1.0000
  H   H9        1.0  0.07568576939948461  0.8271674413089302  0.6186845774269899  1.0000
  H   H10       1.0  0.9243121112640722  0.1728304032496197  0.3813138049310965  1.0000
  H   H11       1.0  0.751574880205638  0.1281833343221592  0.4951491330582486  1.0000
  H   H12       1.0  0.2484245450002477  0.8718208969528833  0.5048525371286418  1.0000
  H   H13       1.0  0.5512987515866072  0.0725300815913599  0.6485162644721357  1.0000
  H   H14       1.0  0.4487045579885561  0.9274741463097486  0.3514846933600709  1.0000
  H   H15       1.0  0.7695529363882655  0.6124473163069836  0.4103086195284647  1.0000
  H   H16       1.0  0.23044525772137794  0.3875518236576596  0.5896918572993715  1.0000
  H   H17       1.0  0.9621305926489542  0.5268968173875168  0.3929484460390001  1.0000
  H   H18       1.0  0.03786790923475541  0.473103595404723  0.6070523291285995  1.0000
  C   C1        1.0  0.6904144483234305  0.8614169029559734  0.07425138471629822  1.0000
  C   C2        1.0  0.3095860266463433  0.1385809581687028  0.9257480195136553  1.0000
  C   C3        1.0  0.8124092792777307  0.7676895557594037  0.11337740095176947  1.0000
  C   C4        1.0  0.18759279920119806  0.23230958083131267  0.8866223635213901  1.0000
  C   C5        1.0  0.9752603733611523  0.7572851394233099  0.06294120152858092  1.0000
  C   C6        1.0  0.024744302260003806  0.24271402502277792  0.9370604828814424  1.0000
  C   C7        1.0  0.08790689446993133  0.6730195969324201  0.10354904554559143  1.0000
  C   C8        1.0  0.9120955031271266  0.32698085764288726  0.8964546095273037  1.0000
  C   C9        1.0  0.7723938254328714  0.6913683445135919  0.20406407064277945  1.0000
  C   C10       1.0  0.2276059721859341  0.30863207091708494  0.7959367664282553  1.0000
  C   C11       1.0  0.839865723178143  0.8576771859594887  0.7023072421651692  1.0000
  C   C12       1.0  0.16013437654268614  0.14232447972029413  0.29769209711564326  1.0000
  C   C13       1.0  0.9609343305361834  0.8837654108861062  0.620123410385837  1.0000
  C   C14       1.0  0.03906355012737351  0.11623243367243673  0.37987497197224945  1.0000
  C   C15       1.0  0.7821298573936488  0.04969226578858611  0.5513831692584646  1.0000
  C   C16       1.0  0.21786962110702757  0.9503068316574996  0.4486137772128346  1.0000
  C   C17       1.0  0.6682032412590999  0.019095878933335097  0.6366328558275285  1.0000
  C   C18       1.0  0.33179495285055083  0.9809032610313084  0.3633676210003075  1.0000
  C   C19       1.0  0.935196688348313  0.9831824985498586  0.5430351438146702  1.0000
  C   C20       1.0  0.06480279015236329  0.016816598896220097  0.4569618026566289  1.0000
  C   C21       1.0  0.837693576819433  0.5316530416350745  0.34256351775228927  1.0000
  C   C22       1.0  0.16230461729021783  0.468346098329569  0.6574369590755469  1.0000
  C   C23       1.0  0.04639804979968434  0.5890048540707158  0.19598039842617965  1.0000
  C   C24       1.0  0.9536040286792441  0.4109942825199938  0.8040193660469799  1.0000
  C   C25       1.0  0.7161837824480415  0.35267922469336105  0.29368268137270803  1.0000
  C   C26       1.0  0.28381280248041924  0.6473186172267449  0.7063156390819432  1.0000
  N   N1        1.0  0.8834906677951435  0.6087824086487217  0.24536340191015432  1.0000
  N   N2        1.0  0.11651073333281659  0.3912192822479952  0.7546377954040795  1.0000
  N   N3        1.0  0.6968972887775706  0.9263563026859317  0.7117948847746334  1.0000
  N   N4        1.0  0.30310280810724083  0.07364535170459871  0.2882035564411822  1.0000
  O   O1        1.0  0.7259843002804871  0.918871138088747  0.9828558758186577  1.0000
  O   O2        1.0  0.27401426057004835  0.08112416345304042  0.017141971763337014  1.0000
  O   O3        1.0  0.557531452574004  0.8835674879616705  0.1348813604567952  1.0000
  O   O4        1.0  0.4424696351078694  0.116432907528953  0.8651177423876959  1.0000
  O   O5        1.0  0.6333511892735759  0.30347097883269214  0.17964824367257395  1.0000
  O   O6        1.0  0.3666485970011593  0.6965293914409969  0.8203490011384889  1.0000
  O   O7        1.0  0.7005075896892805  0.2685959827098828  0.3686249422899338  1.0000
  O   O8        1.0  0.2994886846290967  0.7314005750933746  0.6313721817599574  1.0000
  O   O9        1.0  0.13803165381215626  0.5049123368737227  0.23480326949381697  1.0000
  O   O10       1.0  0.8619627234031029  0.4950817290821377  0.7651976862980803  1.0000
