data_image0
_chemical_formula_structural       Zn16H96C168O60
_chemical_formula_sum              "Zn16 H96 C168 O60"
_cell_length_a       17.32435822501135
_cell_length_b       19.829388935018116
_cell_length_c       27.307635456037204
_cell_angle_alpha    89.99985438335064
_cell_angle_beta     89.99987956580001
_cell_angle_gamma    89.99994728890974

_space_group_name_H-M_alt    "P 1"
_space_group_IT_number       1

loop_
  _space_group_symop_operation_xyz
  'x, y, z'

loop_
  _atom_site_type_symbol
  _atom_site_label
  _atom_site_symmetry_multiplicity
  _atom_site_fract_x
  _atom_site_fract_y
  _atom_site_fract_z
  _atom_site_occupancy
  Zn  Zn1       1.0  0.7279298099048505  0.16989379747311523  0.4055093854821692  1.0000
  Zn  Zn2       1.0  0.772071101070047  0.830107902752644  0.9055051690780546  1.0000
  Zn  Zn3       1.0  0.2720728051059425  0.6698919085549306  0.5944933687403022  1.0000
  Zn  Zn4       1.0  0.22792730224598762  0.3301077479850818  0.0944965575688528  1.0000
  Zn  Zn5       1.0  0.27207098786698236  0.8301071330580783  0.5944943197438732  1.0000
  Zn  Zn6       1.0  0.22792854227243006  0.16989302779440862  0.0944897473980717  1.0000
  Zn  Zn7       1.0  0.727929147113315  0.33010700477047555  0.40550887169504785  1.0000
  Zn  Zn8       1.0  0.7720671460807226  0.6698941911493677  0.905508978650225  1.0000
  Zn  Zn9       1.0  0.5992497759430081  0.24999980168939115  0.34500763772259546  1.0000
  Zn  Zn10      1.0  0.9007501810458722  0.7499975719168078  0.8450088902894209  1.0000
  Zn  Zn11      1.0  0.40075217627968834  0.7500006245464307  0.654992039325741  1.0000
  Zn  Zn12      1.0  0.09925061673222761  0.24999730699389738  0.1549929839524751  1.0000
  Zn  Zn13      1.0  0.5933451771637125  0.2500011102320557  0.4629274082812955  1.0000
  Zn  Zn14      1.0  0.9066555435576265  0.7500013972948948  0.962926821981938  1.0000
  Zn  Zn15      1.0  0.40665504339094843  0.7499988116999107  0.5370737335604474  1.0000
  Zn  Zn16      1.0  0.09334467699811463  0.2500010461495137  0.037072855065694896  1.0000
  H   H1        1.0  0.7628972481349193  0.021486105564747504  0.508192501389793  1.0000
  H   H2        1.0  0.7370957437353881  0.978509927337889  0.0081966805460922  1.0000
  H   H3        1.0  0.23710206207776713  0.5214881344544865  0.4918068642803846  1.0000
  H   H4        1.0  0.26290250104612073  0.4785176937113533  0.991808800852887  1.0000
  H   H5        1.0  0.23709662298492867  0.9785148249813818  0.4918042460799014  1.0000
  H   H6        1.0  0.26290101348858746  0.0214879773875509  0.9918044612998073  1.0000
  H   H7        1.0  0.7629033534721686  0.4785127960774461  0.5081953761507947  1.0000
  H   H8        1.0  0.7371006056114028  0.5214872712347257  0.0081949043679046  1.0000
  H   H9        1.0  0.6409513799454063  0.1628090591816616  0.5986741056696445  1.0000
  H   H10       1.0  0.8590517021285468  0.8371876651181084  0.0986736220092865  1.0000
  H   H11       1.0  0.35905239708218767  0.662809291472847  0.40132499962366813  1.0000
  H   H12       1.0  0.14095766083877953  0.3371902979731018  0.9013291901777122  1.0000
  H   H13       1.0  0.35904884060992975  0.8371873326351958  0.4013277685712353  1.0000
  H   H14       1.0  0.1409508273189459  0.1628142740272622  0.9013238578495972  1.0000
  H   H15       1.0  0.640948400699415  0.3371881089528729  0.5986739450323385  1.0000
  H   H16       1.0  0.8590489091531239  0.6628131540676065  0.0986734164483209  1.0000
  H   H17       1.0  0.6885363127011532  0.10285396114190352  0.6730126783052199  1.0000
  H   H18       1.0  0.8114682547237566  0.8971465369545869  0.17301324622528114  1.0000
  H   H19       1.0  0.31146406503791724  0.602850457326639  0.3269883684457113  1.0000
  H   H20       1.0  0.18854219864155652  0.3971458626229136  0.8269890892969655  1.0000
  H   H21       1.0  0.3114696800722215  0.897146465089115  0.3269888297301549  1.0000
  H   H22       1.0  0.18853600638697543  0.10285237637375388  0.8269867970208509  1.0000
  H   H23       1.0  0.6885309605195147  0.3971464387942519  0.6730135057981742  1.0000
  H   H24       1.0  0.8114643713516899  0.6028550679079174  0.17301351733139822  1.0000
  H   H25       1.0  0.8889409950774124  0.9650857258354864  0.6560904757287672  1.0000
  H   H26       1.0  0.6110607423082187  0.0349128143801494  0.1560910684858925  1.0000
  H   H27       1.0  0.11105553238670042  0.46508630215281954  0.3439121008273673  1.0000
  H   H28       1.0  0.3889425941109225  0.5349170187003978  0.8439104696297051  1.0000
  H   H29       1.0  0.11106557492318105  0.034911674587299005  0.3439088351213329  1.0000
  H   H30       1.0  0.38893716935793077  0.9650860989474951  0.8439108057542057  1.0000
  H   H31       1.0  0.888933720946959  0.5349116025704606  0.6560919706071074  1.0000
  H   H32       1.0  0.6110633986638732  0.46508643334567507  0.15608920741315296  1.0000
  H   H33       1.0  0.660902376202614  0.0045069494462595  0.71221244640207  1.0000
  H   H34       1.0  0.8390980207807816  0.9954924026157315  0.2122160920623486  1.0000
  H   H35       1.0  0.33909348881881846  0.5045050740792548  0.2877862181607682  1.0000
  H   H36       1.0  0.1609065553093316  0.49549239191146904  0.7877871608631324  1.0000
  H   H37       1.0  0.33910246213621786  0.9954929724928623  0.287783568665354  1.0000
  H   H38       1.0  0.16089931366576593  0.0045055021101206  0.7877846835852297  1.0000
  H   H39       1.0  0.6608951872950329  0.4954933349487902  0.712216388481842  1.0000
  H   H40       1.0  0.8391005919066858  0.5045070257132095  0.21221544576623333  1.0000
  H   H41       1.0  0.9184490720019981  0.8974138062949351  0.7303386166330981  1.0000
  H   H42       1.0  0.5815506877048265  0.10258649082927461  0.23033949025633396  1.0000
  H   H43       1.0  0.08154637330181203  0.39741466628328237  0.2696662817909328  1.0000
  H   H44       1.0  0.4184502675400951  0.6025863933575408  0.7696615569838628  1.0000
  H   H45       1.0  0.0815517257788017  0.10258510703670246  0.2696603280215086  1.0000
  H   H46       1.0  0.4184512645154471  0.8974139354039752  0.7696616515837817  1.0000
  H   H47       1.0  0.9184451889168559  0.6025862642496379  0.7303385220351046  1.0000
  H   H48       1.0  0.5815505302409677  0.39741201567212403  0.23033738767121287  1.0000
  H   H49       1.0  0.6936625595292298  0.9413838831698059  0.7881544238318128  1.0000
  H   H50       1.0  0.806338740273681  0.05861671555999239  0.2881580083016502  1.0000
  H   H51       1.0  0.30633052992931203  0.4413812376803749  0.2118445344187663  1.0000
  H   H52       1.0  0.19366399360438893  0.5586169988542055  0.7118438523434777  1.0000
  H   H53       1.0  0.3063440104739287  0.05862007318507521  0.2118412250327921  1.0000
  H   H54       1.0  0.19366321194907957  0.9413801805600812  0.711842767343775  1.0000
  H   H55       1.0  0.6936558372967101  0.5586217100689268  0.7881566074294284  1.0000
  H   H56       1.0  0.8063402675080342  0.44137989726687726  0.2881558247065712  1.0000
  H   H57       1.0  0.8198205934021845  0.9359110665741639  0.5470082370850449  1.0000
  H   H58       1.0  0.6801780420785235  0.06408886466555691  0.047010148712708096  1.0000
  H   H59       1.0  0.18017596522738444  0.43591322292574836  0.4529932946276105  1.0000
  H   H60       1.0  0.3198212226209095  0.5640942542292748  0.9529909694521733  1.0000
  H   H61       1.0  0.18018424493462254  0.06409036826960351  0.4529885103768763  1.0000
  H   H62       1.0  0.31981756070052825  0.9359120658728275  0.9529906269332357  1.0000
  H   H63       1.0  0.8198202147672903  0.564088211907965  0.5470111429969364  1.0000
  H   H64       1.0  0.6801853473752433  0.43590919781593124  0.0470090737882458  1.0000
  H   H65       1.0  0.3642079219599736  0.24999993898609318  0.31979140390748023  1.0000
  H   H66       1.0  0.13579432501469305  0.7500044750352403  0.8197878830098944  1.0000
  H   H67       1.0  0.6357992252602217  0.7499984700384844  0.680209005535147  1.0000
  H   H68       1.0  0.864200700548743  0.25000048992815493  0.180207765861482  1.0000
  H   H69       1.0  0.35346267498887585  0.24999916363083943  0.47685041410881  1.0000
  H   H70       1.0  0.14653154770239504  0.7500036911667678  0.9768494422737035  1.0000
  H   H71       1.0  0.6465317733505742  0.7499982367967492  0.5231488967493689  1.0000
  H   H72       1.0  0.8534686728580639  0.2499967350735943  0.0231480375881148  1.0000
  H   H73       1.0  0.20928591231647437  0.25000074071193984  0.4728172060637307  1.0000
  H   H74       1.0  0.2907077465176684  0.7500036411337236  0.9728149433808112  1.0000
  H   H75       1.0  0.7907091132484398  0.7499991812304289  0.5271791752081825  1.0000
  H   H76       1.0  0.7092924740485175  0.24999628081044284  0.0271792406999651  1.0000
  H   H77       1.0  0.21995381218013682  0.25000050816532143  0.31537515286392187  1.0000
  H   H78       1.0  0.280048449419489  0.7500019041213407  0.8153769325794116  1.0000
  H   H79       1.0  0.7800533350500346  0.749997396567551  0.6846193974120425  1.0000
  H   H80       1.0  0.7199483078111656  0.2500005393314951  0.18461871629313717  1.0000
  H   H81       1.0  0.11038489312270633  0.14165365900854715  0.3922578519858391  1.0000
  H   H82       1.0  0.3896113415076172  0.8583494923395631  0.8922647789467604  1.0000
  H   H83       1.0  0.8896142887330926  0.6416502258477762  0.6077390951032767  1.0000
  H   H84       1.0  0.6103864544202154  0.358346466675826  0.1077368956704632  1.0000
  H   H85       1.0  0.8896118641143576  0.858344750032984  0.6077352335048049  1.0000
  H   H86       1.0  0.6103871473782689  0.141647908078717  0.1077389262840782  1.0000
  H   H87       1.0  0.11038420016586772  0.3583476788866022  0.3922565537722917  1.0000
  H   H88       1.0  0.3896103028092882  0.6416524466599755  0.8922605841950572  1.0000
  H   H89       1.0  0.9659906024818387  0.1418928519860714  0.3988601964568588  1.0000
  H   H90       1.0  0.5340085988413676  0.858105845719564  0.8988672318533375  1.0000
  H   H91       1.0  0.034010310779244414  0.6418966756700614  0.6011374825796096  1.0000
  H   H92       1.0  0.46598862012044884  0.35810295758385996  0.1011370065986554  1.0000
  H   H93       1.0  0.03400730919226191  0.8581070699545066  0.6011365510110735  1.0000
  H   H94       1.0  0.46598989004269953  0.14189609341713802  0.10113610717537111  1.0000
  H   H95       1.0  0.9659881781168239  0.35810324627028933  0.398859264887939  1.0000
  H   H96       1.0  0.5340069826587382  0.641895451443368  0.8988645014455017  1.0000
  C   C1        1.0  0.674119305012674  0.13151424917502652  0.5036992104314635  1.0000
  C   C2        1.0  0.8258777423018346  0.868485833899399  0.0037005443322683995  1.0000
  C   C3        1.0  0.32588161933068704  0.6315156876805758  0.496301783510404  1.0000
  C   C4        1.0  0.17412696945623202  0.36848760321684904  0.9963029425903046  1.0000
  C   C5        1.0  0.32587687499002277  0.868484664155872  0.49630119901801345  1.0000
  C   C6        1.0  0.17411959214403794  0.1315156009415617  0.9962994989161656  1.0000
  C   C7        1.0  0.6741214873311494  0.36848574715424587  0.5037004569218553  1.0000
  C   C8        1.0  0.8258790233137108  0.6315158488240868  0.0036996640361195  1.0000
  C   C9        1.0  0.6985709489765527  0.09511919102028803  0.5489081950157271  1.0000
  C   C10       1.0  0.8014276802103809  0.9048787163510853  0.0489098606662353  1.0000
  C   C11       1.0  0.3014334775777598  0.5951182858785985  0.4510924997828241  1.0000
  C   C12       1.0  0.1985764154495655  0.4048826420035994  0.9510935592039687  1.0000
  C   C13       1.0  0.3014304260218239  0.9048822438177878  0.4510925806259038  1.0000
  C   C14       1.0  0.19856965423569764  0.0951212055833111  0.9510905487815365  1.0000
  C   C15       1.0  0.6985725151987128  0.4048786102398692  0.5489082758599082  1.0000
  C   C16       1.0  0.801430154542068  0.5951213143390817  0.0489090474216027  1.0000
  C   C17       1.0  0.7461057917565554  0.03852288183926331  0.5446991362740619  1.0000
  C   C18       1.0  0.7538945830425448  0.961476048892223  0.04470039483706499  1.0000
  C   C19       1.0  0.25389638636698214  0.5385230082024606  0.45530093040303393  1.0000
  C   C20       1.0  0.2461082977159421  0.4614789135295397  0.9553032869570899  1.0000
  C   C21       1.0  0.253895583244244  0.9614785530013776  0.4553001745757824  1.0000
  C   C22       1.0  0.24610621473340194  0.038527403154624607  0.9553000146051431  1.0000
  C   C23       1.0  0.7461084519661868  0.46147388791711563  0.5446994790425208  1.0000
  C   C24       1.0  0.7538959633878478  0.5385250428140581  0.0446993196700234  1.0000
  C   C25       1.0  0.6771605426101531  0.11815058906414319  0.5954753836135964  1.0000
  C   C26       1.0  0.8228408183922086  0.8818451378413885  0.0954777955433741  1.0000
  C   C27       1.0  0.3228438593398407  0.6181513431223137  0.4045260011459391  1.0000
  C   C28       1.0  0.17716387909408843  0.3818482351097502  0.9045260329625435  1.0000
  C   C29       1.0  0.3228414096123445  0.8818468113579031  0.40452539203136684  1.0000
  C   C30       1.0  0.17715536161163933  0.1181527668862046  0.9045222477090817  1.0000
  C   C31       1.0  0.6771575156573917  0.3818465615987279  0.5954766054886705  1.0000
  C   C32       1.0  0.8228403820108526  0.6181547126305417  0.09547620746754862  1.0000
  C   C33       1.0  0.7035897543311052  0.0841363467282434  0.6367030606228212  1.0000
  C   C34       1.0  0.7964132017339837  0.9158617571509569  0.1367050789256936  1.0000
  C   C35       1.0  0.2964083345092945  0.5841377705612132  0.3632994854024929  1.0000
  C   C36       1.0  0.20359492274657504  0.41586296080829044  0.8632997855007928  1.0000
  C   C37       1.0  0.29641392955672796  0.9158620622970661  0.36329771502006036  1.0000
  C   C38       1.0  0.20358586437696152  0.0841366518748998  0.8632964291161541  1.0000
  C   C39       1.0  0.7035843821562511  0.415862151369872  0.6367038536319213  1.0000
  C   C40       1.0  0.7964122244674883  0.584138978325619  0.1367031873242013  1.0000
  C   C41       1.0  0.7714244281438668  0.0042005109622352006  0.586197434589316  1.0000
  C   C42       1.0  0.7285763863765099  0.9958013000959769  0.0861986636750345  1.0000
  C   C43       1.0  0.22857663219706845  0.5041997942605931  0.4138041601171452  1.0000
  C   C44       1.0  0.2714253032733751  0.4958032815601072  0.9138042224834706  1.0000
  C   C45       1.0  0.22858098741065191  0.9958009238768069  0.4138018762578426  1.0000
  C   C46       1.0  0.27142152528929847  0.0042016476493956  0.9138021119675132  1.0000
  C   C47       1.0  0.7714224339135356  0.49579811046264416  0.5861977141231165  1.0000
  C   C48       1.0  0.7285795350531218  0.5042026919930862  0.0861972855475628  1.0000
  C   C49       1.0  0.7504665628840927  0.0262802895001641  0.6336204283606933  1.0000
  C   C50       1.0  0.7495358261720569  0.9737218596035364  0.133621670178421  1.0000
  C   C51       1.0  0.24953043331660044  0.52628224396463  0.3663807594679511  1.0000
  C   C52       1.0  0.25047165928395293  0.4737204938098997  0.8663816228567498  1.0000
  C   C53       1.0  0.24953654378494866  0.9737201367377681  0.36637778389509623  1.0000
  C   C54       1.0  0.25046439438347795  0.026277558027096894  0.866379105465839  1.0000
  C   C55       1.0  0.7504611289046963  0.47372171238463784  0.6336214809696799  1.0000
  C   C56       1.0  0.7495372195970662  0.5262794281154298  0.1336213499689478  1.0000
  C   C57       1.0  0.7724344648559552  0.9892886975017421  0.6784297043803066  1.0000
  C   C58       1.0  0.7275660440646945  0.010712285905512398  0.1784312849634233  1.0000
  C   C59       1.0  0.22755972786917775  0.4892912770573192  0.3215706303959466  1.0000
  C   C60       1.0  0.2724361637604531  0.5107141393247119  0.8215717625342904  1.0000
  C   C61       1.0  0.22757095070119251  0.010711224433301  0.3215685078744031  1.0000
  C   C62       1.0  0.2724324448254336  0.9892851145172656  0.8215698568817943  1.0000
  C   C63       1.0  0.7724266393568443  0.5107116706919824  0.6784305114522411  1.0000
  C   C64       1.0  0.7275686745675857  0.4892877998120398  0.1784301116983968  1.0000
  C   C65       1.0  0.8454680564267248  0.9592791602784843  0.6845217523522108  1.0000
  C   C66       1.0  0.6545341639783119  0.0407192802631684  0.18452191024306333  1.0000
  C   C67       1.0  0.1545279000184578  0.4592823233449651  0.3154797363061875  1.0000
  C   C68       1.0  0.34546858901617133  0.5407216014853092  0.8154803495726314  1.0000
  C   C69       1.0  0.15453562746528604  0.0407182401467239  0.315476826103918  1.0000
  C   C70       1.0  0.34546663380188397  0.9592796330678299  0.8154774006094955  1.0000
  C   C71       1.0  0.845463662203237  0.5407186071911738  0.6845232365301186  1.0000
  C   C72       1.0  0.6545345176462619  0.45927983335015915  0.18452152466168312  1.0000
  C   C73       1.0  0.7182921397509432  0.9827680274988213  0.7166022203230682  1.0000
  C   C74       1.0  0.7817111287989179  0.0172338306853348  0.2166040828903633  1.0000
  C   C75       1.0  0.2817043688263681  0.48276918508180694  0.2833992250605704  1.0000
  C   C76       1.0  0.21829395817128022  0.5172338436140437  0.7833985863937869  1.0000
  C   C77       1.0  0.281715584693906  0.017234415946461502  0.2833952595318934  1.0000
  C   C78       1.0  0.2182879373117572  0.9827650826424943  0.7833974251510226  1.0000
  C   C79       1.0  0.7182843072849251  0.5172317454548222  0.7166041139756133  1.0000
  C   C80       1.0  0.7817126118225775  0.48276708691743403  0.21660365403662502  1.0000
  C   C81       1.0  0.8625641671881469  0.9219869579046577  0.72626174952957  1.0000
  C   C82       1.0  0.6374379149159354  0.07801335351268081  0.2262618615082772  1.0000
  C   C83       1.0  0.13743240631472287  0.42198775933477606  0.2737405402342006  1.0000
  C   C84       1.0  0.3625647982440371  0.5780142946208712  0.7737388648057646  1.0000
  C   C85       1.0  0.13743893947685143  0.07801195542221959  0.2737393923111711  1.0000
  C   C86       1.0  0.3625640373047362  0.9219885856277799  0.7737385479345562  1.0000
  C   C87       1.0  0.8625597331330468  0.5780111539964423  0.7262606016138519  1.0000
  C   C88       1.0  0.6374377311983964  0.42198915742593374  0.2262611784373476  1.0000
  C   C89       1.0  0.7358806191607813  0.946969566442938  0.7588764985985605  1.0000
  C   C90       1.0  0.7641207776531119  0.053033152141189505  0.2588779524665057  1.0000
  C   C91       1.0  0.26411477321413207  0.4469668517481011  0.2411253789429608  1.0000
  C   C92       1.0  0.23588253941157694  0.5530317864351062  0.7411242846649415  1.0000
  C   C93       1.0  0.264126528061368  0.05303539851308871  0.24112061505651639  1.0000
  C   C94       1.0  0.23587886568032704  0.9469642482804873  0.7411235555758894  1.0000
  C   C95       1.0  0.7358727484533816  0.5530360959981806  0.7588772276962388  1.0000
  C   C96       1.0  0.7641246078082135  0.44696510968226727  0.2588768571749682  1.0000
  C   C97       1.0  0.8077782409232415  0.915230276100836  0.7637106589785886  1.0000
  C   C98       1.0  0.6922237170970221  0.08477242553730241  0.26371105164894  1.0000
  C   C99       1.0  0.19221891702349583  0.41522511379783117  0.2362909108430102  1.0000
  C   C100      1.0  0.3077789888418466  0.5847730370308567  0.7362903946082824  1.0000
  C   C101      1.0  0.19222775185303226  0.08477267164454362  0.23628828566884152  1.0000
  C   C102      1.0  0.3077765034573687  0.9152280006966366  0.7362900901923339  1.0000
  C   C103      1.0  0.8077697590916415  0.5847743038360917  0.7637105972048346  1.0000
  C   C104      1.0  0.6922252722674003  0.4152263805981775  0.2637103810332775  1.0000
  C   C105      1.0  0.8236102351997516  0.8725178331221958  0.8074358210544119  1.0000
  C   C106      1.0  0.6763869601662479  0.12748118510893391  0.3074379871385489  1.0000
  C   C107      1.0  0.17637773281622773  0.3725163667667033  0.1925676584536902  1.0000
  C   C108      1.0  0.32361685459419226  0.6274819373545171  0.6925637466284869  1.0000
  C   C109      1.0  0.1763894081392863  0.12748158451444172  0.192561658808728  1.0000
  C   C110      1.0  0.3236161464966543  0.8725182325179832  0.6925642532955649  1.0000
  C   C111      1.0  0.8236097888489909  0.6274840594658501  0.807437145375502  1.0000
  C   C112      1.0  0.6763897154054563  0.3725149587650165  0.3074362966179649  1.0000
  C   C113      1.0  0.4533822308460956  0.24999925715809482  0.4009173725029669  1.0000
  C   C114      1.0  0.04661628399524891  0.7500048724512852  0.9009147029143207  1.0000
  C   C115      1.0  0.546619144154576  0.7499956217530227  0.5990841355405935  1.0000
  C   C116      1.0  0.9533822048985244  0.24999706669568417  0.0990827769472631  1.0000
  C   C117      1.0  0.36735711448334757  0.24999979967301303  0.3985554531101911  1.0000
  C   C118      1.0  0.1326402537388276  0.7500068597273284  0.8985526688087903  1.0000
  C   C119      1.0  0.6326436832964433  0.7499976007507742  0.6014445901396499  1.0000
  C   C120      1.0  0.8673576579346048  0.24999659232835822  0.1014433462599982  1.0000
  C   C121      1.0  0.3295803214417462  0.24999939002087496  0.35309529914746923  1.0000
  C   C122      1.0  0.17042181518521463  0.7500044029416061  0.853091732074546  1.0000
  C   C123      1.0  0.6704239396722258  0.7499980104041128  0.6469032793082761  1.0000
  C   C124      1.0  0.8295760964921258  0.2499985448159592  0.1469020858070351  1.0000
  C   C125      1.0  0.3236370973275342  0.2500007499341664  0.4417177693014125  1.0000
  C   C126      1.0  0.17635377843942024  0.7500067667534297  0.9417152929037726  1.0000
  C   C127      1.0  0.6763590826781327  0.7499971547953522  0.5582811753572017  1.0000
  C   C128      1.0  0.8236435560117813  0.24999718960446418  0.058280722164937494  1.0000
  C   C129      1.0  0.24342749240157965  0.24999927314384252  0.4392382964925829  1.0000
  C   C130      1.0  0.256564546026155  0.7500001834012268  0.9392375441312452  1.0000
  C   C131      1.0  0.7565715737175227  0.7499986315883832  0.5607584509764365  1.0000
  C   C132      1.0  0.7434304795411181  0.24999872993911512  0.060757738547764  1.0000
  C   C133      1.0  0.24923564636718257  0.24999942596851102  0.350742164718497  1.0000
  C   C134      1.0  0.2507641891644711  0.7500013494264338  0.8507421524919323  1.0000
  C   C135      1.0  0.7507680375287437  0.7499974701585758  0.6492542165504318  1.0000
  C   C136      1.0  0.7492325680675976  0.24999958112112342  0.1492531301840572  1.0000
  C   C137      1.0  0.20529513051017292  0.24999936780484694  0.39385211475145343  1.0000
  C   C138      1.0  0.29470398495592326  0.7500007521482316  0.8938549735159356  1.0000
  C   C139      1.0  0.7947056672791251  0.7499995455357792  0.6061417031319181  1.0000
  C   C140      1.0  0.7052968128297936  0.24999916979312786  0.10614067535623659  1.0000
  C   C141      1.0  0.11945183638286493  0.2500004117124774  0.3931087901560275  1.0000
  C   C142      1.0  0.38054670432167376  0.7500002151463933  0.8931129992443942  1.0000
  C   C143      1.0  0.8805495386283867  0.7499985016279213  0.6068850277269603  1.0000
  C   C144      1.0  0.6194523617978335  0.2499992024930435  0.10688301582734279  1.0000
  C   C145      1.0  0.07853722051815741  0.1889460990909981  0.3940430446379253  1.0000
  C   C146      1.0  0.4214607398649264  0.8110545244885826  0.8940496500663642  1.0000
  C   C147      1.0  0.9214619108231902  0.6889451684755772  0.6059508857330441  1.0000
  C   C148      1.0  0.5785359521445628  0.31105253892200585  0.10594881590608911  1.0000
  C   C149      1.0  0.9214630000524837  0.8110523099510869  0.6059489422565748  1.0000
  C   C150      1.0  0.5785412123620829  0.18894237163598154  0.10594856219344001  1.0000
  C   C151      1.0  0.0785377325203598  0.3110537448635783  0.3940440307449363  1.0000
  C   C152      1.0  0.4214596506425111  0.6889458701135639  0.8940479315647779  1.0000
  C   C153      1.0  0.9983479108841138  0.18898052546585123  0.3975480442668697  1.0000
  C   C154      1.0  0.5016512947973056  0.8110206983624195  0.8975478856047516  1.0000
  C   C155      1.0  0.0016523748530588003  0.6889803357612436  0.6024524776022346  1.0000
  C   C156      1.0  0.49834424280469153  0.3110192928866127  0.1024502142323129  1.0000
  C   C157      1.0  0.0016540413371686003  0.811021413675256  0.6024519989780188  1.0000
  C   C158      1.0  0.4983489257605883  0.1889777106661867  0.1024517914465974  1.0000
  C   C159      1.0  0.998348422924302  0.3110170646599784  0.3975490304393857  1.0000
  C   C160      1.0  0.5016502055327976  0.6889806290502066  0.8975494628214945  1.0000
  C   C161      1.0  0.9577033672588372  0.24999905909601244  0.399953935657166  1.0000
  C   C162      1.0  0.5422912126729216  0.7499996347856737  0.8999560324111968  1.0000
  C   C163      1.0  0.042295121631696006  0.7499998542339696  0.600046473790762  1.0000
  C   C164      1.0  0.45770496732843213  0.2499972613347623  0.1000458418319141  1.0000
  C   C165      1.0  0.8720228402174258  0.2499990842758635  0.4049492989578312  1.0000
  C   C166      1.0  0.6279723003811598  0.7500011049957392  0.9049531124471955  1.0000
  C   C167      1.0  0.12797680311850712  0.7499993247529774  0.5950503780939087  1.0000
  C   C168      1.0  0.3720250340615507  0.24999831263282604  0.0950494941887143  1.0000
  O   O1        1.0  0.7088929618713424  0.11534134060590161  0.4640293449089156  1.0000
  O   O2        1.0  0.7911042918661908  0.8846586415469703  0.964030129386657  1.0000
  O   O3        1.0  0.29110855697121724  0.6153426675837821  0.5359709464339772  1.0000
  O   O4        1.0  0.20889982539531363  0.38465921133119724  0.0359729615424413  1.0000
  O   O5        1.0  0.2911061042397378  0.8846590856291386  0.5359714307351879  1.0000
  O   O6        1.0  0.20889073369333033  0.11534228899421353  0.0359691814678911  1.0000
  O   O7        1.0  0.7088951269137881  0.384658767252091  0.46403056160200157  1.0000
  O   O8        1.0  0.7911090534860464  0.6153412148967519  0.9640296450848426  1.0000
  O   O9        1.0  0.6212653681161983  0.17586509959109264  0.5080899181811276  1.0000
  O   O10       1.0  0.8787316646529605  0.8241344637909409  0.0080897985240043  1.0000
  O   O11       1.0  0.3787360860745964  0.675866511622182  0.49191026165184587  1.0000
  O   O12       1.0  0.12127136281826983  0.3241367946706006  0.9919119391230781  1.0000
  O   O13       1.0  0.37873138910677545  0.8241358309468367  0.49191085746404895  1.0000
  O   O14       1.0  0.1212650925725711  0.1758684839587374  0.9919087799316344  1.0000
  O   O15       1.0  0.6212658661470201  0.32413593182153727  0.508089415394636  1.0000
  O   O16       1.0  0.8787346299533569  0.675864640163077  0.0080903013072557  1.0000
  O   O17       1.0  0.7802111582817376  0.8818150962229938  0.8446865950338706  1.0000
  O   O18       1.0  0.7197887997661355  0.11819186024663958  0.344687621772934  1.0000
  O   O19       1.0  0.2197808403582187  0.38180717015342935  0.1553179659419115  1.0000
  O   O20       1.0  0.2802150249184621  0.6181902559534082  0.6553141291110619  1.0000
  O   O21       1.0  0.21978848505501256  0.11819087734060221  0.155310152427333  1.0000
  O   O22       1.0  0.2802119980059743  0.8818085659825811  0.6553160834535774  1.0000
  O   O23       1.0  0.7802072585306449  0.6181912388716315  0.8446864716908138  1.0000
  O   O24       1.0  0.719789236190451  0.3818086573730072  0.3446870127289117  1.0000
  O   O25       1.0  0.8782524034575447  0.8294504288484676  0.8040008875678595  1.0000
  O   O26       1.0  0.6217436488486429  0.17054658421937316  0.3040019485766052  1.0000
  O   O27       1.0  0.1217309927899421  0.3294535324605405  0.19599974170355242  1.0000
  O   O28       1.0  0.3782641604681701  0.6705442553233141  0.6959975086585928  1.0000
  O   O29       1.0  0.12174319932784529  0.17054545867402032  0.1959976908950551  1.0000
  O   O30       1.0  0.3782634983693925  0.8294558592210067  0.695998460862306  1.0000
  O   O31       1.0  0.8782565288801295  0.6705468937771428  0.8040021325420809  1.0000
  O   O32       1.0  0.6217452956447785  0.3294506235897431  0.3040010697960156  1.0000
  O   O33       1.0  0.8159364034551049  0.947194764113128  0.5816289492441058  1.0000
  O   O34       1.0  0.6840626945393496  0.05280403715148199  0.081629411690507  1.0000
  O   O35       1.0  0.18406014312070337  0.44719552585417693  0.41837329407647417  1.0000
  O   O36       1.0  0.3159331188822776  0.552811568370757  0.9183713610680896  1.0000
  O   O37       1.0  0.18407132099130055  0.0528081836360599  0.4183674320165522  1.0000
  O   O38       1.0  0.3159288676917811  0.9471928589765569  0.9183691667741699  1.0000
  O   O39       1.0  0.8159319963193143  0.5528054046778763  0.5816318759471173  1.0000
  O   O40       1.0  0.68407287388861  0.4471923879734305  0.08163051316197571  1.0000
  O   O41       1.0  0.48907077789599657  0.24999981900347032  0.3600258551251727  1.0000
  O   O42       1.0  0.0109244091003902  0.7500100012878973  0.8600225007283626  1.0000
  O   O43       1.0  0.5109305971059542  0.7499915297931852  0.6399760191195867  1.0000
  O   O44       1.0  0.9890694620166232  0.24999395506880254  0.1399749791344362  1.0000
  O   O45       1.0  0.48446729445088005  0.25000118738120136  0.44351679257579246  1.0000
  O   O46       1.0  0.015532810908197798  0.750003801486102  0.9435141644399465  1.0000
  O   O47       1.0  0.5155329261025727  0.7499987345494787  0.5564850816618403  1.0000
  O   O48       1.0  0.9844691413164527  0.2499986419608291  0.0564836816168039  1.0000
  O   O49       1.0  0.8386565521623625  0.19260448619289863  0.4069693219439827  1.0000
  O   O50       1.0  0.6613403134099444  0.8073967046017146  0.9069722527976509  1.0000
  O   O51       1.0  0.16134315248487502  0.6926052116247946  0.5930289960601628  1.0000
  O   O52       1.0  0.33865522805167103  0.30739192853680913  0.09303391007421169  1.0000
  O   O53       1.0  0.16134482283675317  0.8073944271346606  0.5930318198979166  1.0000
  O   O54       1.0  0.33865817548726085  0.1926022087353374  0.0930241284728766  1.0000
  O   O55       1.0  0.838656490852003  0.30739370170730496  0.4069699485952185  1.0000
  O   O56       1.0  0.6613403747204386  0.6926049675761449  0.9069723585446283  1.0000
  O   O57       1.0  0.6614101317311167  0.2499996714749386  0.40524715831016783  1.0000
  O   O58       1.0  0.8385878939965395  0.7500000124555798  0.9052473951712443  1.0000
  O   O59       1.0  0.3385912432674587  0.7500002504565657  0.5947539835308008  1.0000
  O   O60       1.0  0.16140886322791206  0.2500004137816632  0.0947526480785044  1.0000
