data_image0
_chemical_formula_structural       Zn2H21C40N3O10
_chemical_formula_sum              "Zn2 H21 C40 N3 O10"
_cell_length_a       9.726207806711155
_cell_length_b       11.005264111325339
_cell_length_c       14.689950197715445
_cell_angle_alpha    86.67977682316423
_cell_angle_beta     77.08658553897106
_cell_angle_gamma    88.24043916918143

_space_group_name_H-M_alt    "P 1"
_space_group_IT_number       1

loop_
  _space_group_symop_operation_xyz
  'x, y, z'

loop_
  _atom_site_type_symbol
  _atom_site_label
  _atom_site_symmetry_multiplicity
  _atom_site_fract_x
  _atom_site_fract_y
  _atom_site_fract_z
  _atom_site_occupancy
  Zn  Zn1       1.0  0.13565723570894048  0.4916793891992055  0.5064933186336444  1.0000
  Zn  Zn2       1.0  0.8527742997209347  0.4963066050761001  0.492385785806455  1.0000
  H   H1        1.0  0.7333133746385984  0.7679497186302128  0.06522994274011747  1.0000
  H   H2        1.0  0.9169687784916505  0.48411751535474673  0.18739323397912944  1.0000
  H   H3        1.0  0.20497575645866556  0.4865950741865176  0.8792112578456823  1.0000
  H   H4        1.0  0.9467345015830446  0.7292399697644568  0.9431505708291819  1.0000
  H   H5        1.0  0.05997301366942047  0.6448808926599484  0.7891030264678986  1.0000
  H   H6        1.0  0.6654958104103839  0.5027868496480181  0.7670131616927804  1.0000
  H   H7        1.0  0.48850294056709487  0.7276686999316693  0.13712579472225167  1.0000
  H   H8        1.0  0.4568568492593528  0.5124724481116231  0.8102986724916048  1.0000
  H   H9        1.0  0.008810856341853001  0.4790118705974748  0.0144571266210249  1.0000
  H   H10       1.0  0.792262040202857  0.12034552805653925  0.4858804400252694  1.0000
  H   H11       1.0  0.2761850384616622  0.1973526199709568  0.4884506435515518  1.0000
  H   H12       1.0  0.47674576520719103  0.07092231133032098  0.5175519650225766  1.0000
  H   H13       1.0  0.4426719368159269  0.8491119276008233  0.5643210218161412  1.0000
  H   H14       1.0  0.21878403005694474  0.7534590612067474  0.5595506030140598  1.0000
  H   H15       1.0  0.7815186058925575  0.8929972949068272  0.48769999228141353  1.0000
  H   H16       1.0  0.651105729761248  0.6181795837314682  0.3990687167390944  1.0000
  H   H17       1.0  0.7173343942710061  0.32032845853664327  0.6241545498067183  1.0000
  H   H18       1.0  0.5561257643285914  0.18857850298044096  0.7407453053224129  1.0000
  H   H19       1.0  0.2962627295005901  0.20178964144975708  0.7526548842494589  1.0000
  H   H20       1.0  0.19720826639309755  0.34331494312908717  0.6455822880622576  1.0000
  H   H21       1.0  0.3893255117601271  0.6230592350042768  0.40511858291225866  1.0000
  C   C1        1.0  0.9999296110759983  0.2584098960519583  0.4977182387207362  1.0000
  C   C2        1.0  0.9316999767278697  0.5211617792760491  0.6776206392061468  1.0000
  C   C3        1.0  0.9805602771643931  0.7291111937280802  0.49982426539398955  1.0000
  C   C4        1.0  0.06518461709955399  0.5144399948269084  0.31782917693112717  1.0000
  C   C5        1.0  0.8665647529407392  0.5683620670298737  0.7710412690506913  1.0000
  C   C6        1.0  0.11580007472478827  0.5348362724973937  0.21350741599214018  1.0000
  C   C7        1.0  0.8850842111012297  0.6791699666105798  0.9046815768804704  1.0000
  C   C8        1.0  0.9482995017393281  0.6324994312175747  0.8200853940488029  1.0000
  C   C9        1.0  0.723369287945509  0.5529812419381414  0.8075928110098543  1.0000
  C   C10       1.0  0.6558771695667004  0.5984712209325238  0.8944275872354196  1.0000
  C   C11       1.0  0.7394713230897735  0.6628276608272329  0.9438007392966695  1.0000
  C   C12       1.0  0.5074687201859047  0.580049977759863  0.9354302706914124  1.0000
  C   C13       1.0  0.4508691264798088  0.6133532752351414  0.02858476707751116  1.0000
  C   C14       1.0  0.5350381058073167  0.6859708564973629  0.07183224565028468  1.0000
  C   C15       1.0  0.672753992463491  0.7107869180247944  0.030842072328738444  1.0000
  C   C16       1.0  0.41568508985211844  0.5326741098623841  0.8831743434498946  1.0000
  C   C17       1.0  0.27521163756925654  0.5170942626976966  0.9213982784559035  1.0000
  C   C18       1.0  0.2184946774250917  0.5341930570224918  0.01813108377997711  1.0000
  C   C19       1.0  0.3092054521547354  0.5754464624620468  0.07421210726217711  1.0000
  C   C20       1.0  0.0765470272751259  0.5058965522558551  0.05949700436472231  1.0000
  C   C21       1.0  0.025274299412871  0.5083016038021312  0.154788455552918  1.0000
  C   C22       1.0  0.2534200337470764  0.5686916526428404  0.1722330104632732  1.0000
  C   C23       1.0  0.263401226317903  0.1003697356022144  0.5039370701885416  1.0000
  C   C24       1.0  0.37508254189102536  0.029409469195712697  0.5210022660977884  1.0000
  C   C25       1.0  0.35713315675464224  0.904018503757058  0.545018312678671  1.0000
  C   C26       1.0  0.231890373338878  0.8502840865411228  0.5428653184427858  1.0000
  C   C27       1.0  0.1175669123424825  0.91908929052434  0.5187730443365055  1.0000
  C   C28       1.0  0.12928013394152063  0.04978440289426799  0.5070875477937731  1.0000
  C   C29       1.0  0.006702015137697999  0.1217606923371406  0.497686894888929  1.0000
  C   C30       1.0  0.8837226588938234  0.0640369240656753  0.49302697644394294  1.0000
  C   C31       1.0  0.8769584776147566  0.9367180113035757  0.49550386363991084  1.0000
  C   C32       1.0  0.9910947517648195  0.8638552375329313  0.507193948148135  1.0000
  C   C33       1.0  0.6043227788747599  0.32447573289890386  0.6289155878236412  1.0000
  C   C34       1.0  0.5135515805255366  0.25227874816647505  0.6939691866951277  1.0000
  C   C35       1.0  0.3662090846012092  0.25988309746005456  0.7009184244802924  1.0000
  C   C36       1.0  0.3099475010317859  0.33859060877853153  0.6419373131039023  1.0000
  C   C37       1.0  0.4003036499836696  0.4130413295633205  0.5738774579243539  1.0000
  C   C38       1.0  0.5495320993927775  0.40772171536635676  0.5683130997675931  1.0000
  C   C39       1.0  0.5799782286549942  0.5587683634600822  0.44895091047575153  1.0000
  C   C40       1.0  0.4337258271163762  0.5617330127816799  0.4525584453898687  1.0000
  N   N1        1.0  0.6364912670139233  0.48332615026228604  0.5045811304826273  1.0000
  N   N2        1.0  0.34667207026760843  0.489954782637966  0.5130837914946794  1.0000
  N   N3        1.0  0.3473097705694741  0.592706441574748  0.2353968116926595  1.0000
  O   O1        1.0  0.0955274295695929  0.31244103450777777  0.5263819172397604  1.0000
  O   O2        1.0  0.8959244233670985  0.3127281777247432  0.4725293448396783  1.0000
  O   O3        1.0  0.0639701743899934  0.5339128900402129  0.6465121480246907  1.0000
  O   O4        1.0  0.8500811305804631  0.4725054132069247  0.633621866589955  1.0000
  O   O5        1.0  0.09621906437896398  0.6691610916194647  0.4764587653541667  1.0000
  O   O6        1.0  0.8584008526451822  0.6828747009117676  0.5141040485858284  1.0000
  O   O7        1.0  0.15681139450595072  0.47557246469142456  0.36245309397536823  1.0000
  O   O8        1.0  0.9344818681818406  0.534046555101895  0.35168804828995803  1.0000
  O   O9        1.0  0.44506545583811885  0.5194131351321049  0.23877985990036876  1.0000
  O   O10       1.0  0.3241578273728933  0.6878729839040999  0.278324179768738  1.0000
