data_image0
_chemical_formula_structural       Cd4H36C60S8N4O4F32
_chemical_formula_sum              "Cd4 H36 C60 S8 N4 O4 F32"
_cell_length_a       7.424122478
_cell_length_b       13.771872700820287
_cell_length_c       19.1823
_cell_angle_alpha    110.01720174671188
_cell_angle_beta     90.0
_cell_angle_gamma    90.0

_space_group_name_H-M_alt    "P 1"
_space_group_IT_number       1

loop_
  _space_group_symop_operation_xyz
  'x, y, z'

loop_
  _atom_site_type_symbol
  _atom_site_label
  _atom_site_symmetry_multiplicity
  _atom_site_fract_x
  _atom_site_fract_y
  _atom_site_fract_z
  _atom_site_occupancy
  Cd  Cd1       1.0  0.7581124929819651  0.4626113226458273  0.9841648774324057  1.0000
  Cd  Cd2       1.0  0.2581086189887642  0.0373866517995012  0.5158373095444305  1.0000
  Cd  Cd3       1.0  0.2418925610833682  0.537390808666899  0.015835281428266467  1.0000
  Cd  Cd4       1.0  0.7418856593922669  0.9626108426966766  0.48416379505182766  1.0000
  H   H1        1.0  0.7458807443451221  0.9893583189344852  0.02850578886248206  1.0000
  H   H2        1.0  0.2458957277994429  0.5106394684152988  0.4715027642959272  1.0000
  H   H3        1.0  0.2541108401148335  0.010639948364456602  0.9714939417120263  1.0000
  H   H4        1.0  0.7541093262658833  0.4893549348698515  0.528502793759465  1.0000
  H   H5        1.0  0.6084840347646008  0.7986259615813796  0.7838636131437369  1.0000
  H   H6        1.0  0.1084815077319377  0.7013725985711617  0.716133661028451  1.0000
  H   H7        1.0  0.3915210193007255  0.20137462412582616  0.2161366871908187  1.0000
  H   H8        1.0  0.8915060358464117  0.29862566872778024  0.2838624203486191  1.0000
  H   H9        1.0  0.6959596929214344  0.0642330467902639  0.6973112592283003  1.0000
  H   H10       1.0  0.1959585128493089  0.43577188287988383  0.8026889878312319  1.0000
  H   H11       1.0  0.3040494020255053  0.9357706301279765  0.30269032210023994  1.0000
  H   H12       1.0  0.8040519290581685  0.564234112446627  0.19731003537383174  1.0000
  H   H13       1.0  0.5533866139970769  0.1746271478880175  0.7219315382840606  1.0000
  H   H14       1.0  0.053380046082800406  0.325379327387644  0.7780696099294249  1.0000
  H   H15       1.0  0.446626521831476  0.8253780746357365  0.2780672950009945  1.0000
  H   H16       1.0  0.9466263549430636  0.6746289863471375  0.2219325896052879  1.0000
  H   H17       1.0  0.491846680980899  0.0656132725150513  0.7473259384606621  1.0000
  H   H18       1.0  0.9918438201714181  0.4343924299578533  0.7526729345771273  1.0000
  H   H19       1.0  0.5081624139660406  0.9343919500087028  0.25267341613830757  1.0000
  H   H20       1.0  0.0081625808544459  0.5656143381714145  0.24732679986187386  1.0000
  H   H21       1.0  0.6837952923114443  0.0222528554005308  0.8357716823590736  1.0000
  H   H22       1.0  0.1838008470420078  0.4777458918475617  0.664224438770738  1.0000
  H   H23       1.0  0.3162030269511931  0.9777515943204662  0.16422800363380224  1.0000
  H   H24       1.0  0.8162082479049317  0.522252375451373  0.33576955735065184  1.0000
  H   H25       1.0  0.790153990237016  0.12936022637088482  0.9048045649179032  1.0000
  H   H26       1.0  0.2901541571254214  0.3706338840606591  0.5951935445753309  1.0000
  H   H27       1.0  0.2098443290256284  0.870644996152869  0.09519791756458326  1.0000
  H   H28       1.0  0.7098482030188293  0.6293597464217342  0.40480296122341036  1.0000
  H   H29       1.0  0.9083672878490461  0.05913100298563731  0.8219323023729004  1.0000
  H   H30       1.0  0.4083714956190647  0.4408646530514275  0.6780646230186065  1.0000
  H   H31       1.0  0.09163507229520462  0.940872673932603  0.17806980026955443  1.0000
  H   H32       1.0  0.5916335584462615  0.5591305230364796  0.3219291347366493  1.0000
  H   H33       1.0  0.6518965728733193  0.30581196156922635  0.8128306468957264  1.0000
  H   H34       1.0  0.1518859640774366  0.1941914224954076  0.6871713055794544  1.0000
  H   H35       1.0  0.3481206038368398  0.6941948065600414  0.18717013017111842  1.0000
  H   H36       1.0  0.8481069673430568  0.8058122544228327  0.31283288231868067  1.0000
  C   C1        1.0  0.4524130642985896  0.6856205599662317  0.9053603250611673  1.0000
  C   C2        1.0  0.9524102034891015  0.8143772273835526  0.5946357165631612  1.0000
  C   C3        1.0  0.547585254964055  0.3143777073327101  0.0946383628854974  1.0000
  C   C4        1.0  0.0475786870497785  0.18562258552089622  0.40536074465394023  1.0000
  C   C5        1.0  0.944143906673304  0.7624131971704315  0.9232232233125617  1.0000
  C   C6        1.0  0.4441602370881555  0.7375838173765958  0.5767835759840666  1.0000
  C   C7        1.0  0.0558503717077272  0.23758893414229482  0.07677380766458701  1.0000
  C   C8        1.0  0.5558380821744819  0.26240981310579775  0.423223356093068  1.0000
  C   C9        1.0  0.8119020150680215  0.7455212744982731  0.03163613839461732  1.0000
  C   C10       1.0  0.3119089167591156  0.7544819224708094  0.4683742655178095  1.0000
  C   C11       1.0  0.1881084268394559  0.2544731287868771  0.9683610786380543  1.0000
  C   C12       1.0  0.6880907494640597  0.24552020884191716  0.5316337130516473  1.0000
  C   C13       1.0  0.6048634048410406  0.5621560458318626  0.8044433664558428  1.0000
  C   C14       1.0  0.1048595308478397  0.9378440599261924  0.6955548088702913  1.0000
  C   C15       1.0  0.3951389553032102  0.4378453126780997  0.1955571237987286  1.0000
  C   C16       1.0  0.8951307066515781  0.06215575297826351  0.3044426949746466  1.0000
  C   C17       1.0  0.4870178274556238  0.7613127260438335  0.8742318209125345  1.0000
  C   C18       1.0  0.9870136196855982  0.7386842885031939  0.6257635094778707  1.0000
  C   C19       1.0  0.5129872266097095  0.23868708686061527  0.12576724687416882  1.0000
  C   C20       1.0  0.0129725769322064  0.2613124331902342  0.3742316707452532  1.0000
  C   C21       1.0  0.6415505689883361  0.6385174590974145  0.7741763297509581  1.0000
  C   C22       1.0  0.1415440010740596  0.8614764642385851  0.7258203262150574  1.0000
  C   C23       1.0  0.3584504441953769  0.3614792625960064  0.2258214570417607  1.0000
  C   C24       1.0  0.8584408485832071  0.138520257454843  0.2741769392637465  1.0000
  C   C25       1.0  0.8871755577198357  0.8647910152652474  0.9457280154661093  1.0000
  C   C26       1.0  0.3871986229373761  0.6352075448872938  0.5542770784148701  1.0000
  C   C27       1.0  0.1128106388979759  0.1352095704419582  0.05427124224060261  1.0000
  C   C28       1.0  0.612802390246344  0.3647891768061271  0.44572696414488183  1.0000
  C   C29       1.0  0.7916235241829241  0.9095540693845339  0.011165394624761425  1.0000
  C   C30       1.0  0.2916331197950939  0.5904475819790421  0.4888441081337192  1.0000
  C   C31       1.0  0.208370754198107  0.0904449707171651  0.9888355684975992  1.0000
  C   C32       1.0  0.7083625055464751  0.4095522309254136  0.5111617367339392  1.0000
  C   C33       1.0  0.5816700913537929  0.7394045406731282  0.8081538053091891  1.0000
  C   C34       1.0  0.081666217360592  0.7605955650849268  0.6918469765865467  1.0000
  C   C35       1.0  0.4183363096720711  0.2605968178368414  0.1918477275732187  1.0000
  C   C36       1.0  0.9183267140599015  0.23940192941125105  0.3081515214401024  1.0000
  C   C37       1.0  0.6048634048410406  0.112745739888652  0.7403246503535001  1.0000
  C   C38       1.0  0.1048608778083775  0.3872599625842525  0.7596752653121259  1.0000
  C   C39       1.0  0.3951443431453612  0.887260255437859  0.25967541547940703  1.0000
  C   C40       1.0  0.8951468701780243  0.612747578347772  0.24032465904688394  1.0000
  C   C41       1.0  0.7755866120289525  0.08785144466318683  0.8451877133033534  1.0000
  C   C42       1.0  0.27558812587789566  0.4121473025848986  0.6548110143960602  1.0000
  C   C43       1.0  0.2244130541942297  0.9121514594522893  0.15481367810517097  1.0000
  C   C44       1.0  0.7244182751479684  0.5878509647140363  0.345185066981017  1.0000
  C   C45       1.0  0.7548865224957595  0.8478465420055842  0.05351703607335173  1.0000
  C   C46       1.0  0.254897465068467  0.6521520181469571  0.4464906643772296  1.0000
  C   C47       1.0  0.2451091028458094  0.15214786127956612  0.9464843514706799  1.0000
  C   C48       1.0  0.7451048950757908  0.34784702195474193  0.5535134266286549  1.0000
  C   C49       1.0  0.7207235623948736  0.2593193748787925  0.8415934802317366  1.0000
  C   C50       1.0  0.2207075657568396  0.2406847819886053  0.6584128326748129  1.0000
  C   C51       1.0  0.2792895734336795  0.7406843020394476  0.15840653715504524  1.0000
  C   C52       1.0  0.7792894065452671  0.7593134853103367  0.34158481264401536  1.0000
  C   C53       1.0  0.9065030944657835  0.698833168710209  0.9651887151406768  1.0000
  C   C54       1.0  0.4065099961568848  0.8011669370478529  0.5348193651499359  1.0000
  C   C55       1.0  0.093500612639005  0.3011674169970036  0.034808457310362  1.0000
  C   C56       1.0  0.5934869761452222  0.19882978464557513  0.4651888479211763  1.0000
  C   C57       1.0  0.5083227022699432  0.5829235743325896  0.8709672504066219  1.0000
  C   C58       1.0  0.0083201752372801  0.9170695762006531  0.6290271303836974  1.0000
  C   C59       1.0  0.4916836987559208  0.41707469296634514  0.1290314375400499  1.0000
  C   C60       1.0  0.991679490985895  0.08292482708449711  0.3709669587654574  1.0000
  S   S1        1.0  0.9719653765658124  0.5690919505799031  0.9313419576996793  1.0000
  S   S2        1.0  0.4719682373753002  0.9309089279809086  0.5686631846274253  1.0000
  S   S3        1.0  0.0280423714205895  0.4309070895217958  0.06865692016700113  1.0000
  S   S4        1.0  0.5280273879662687  0.0690916577262968  0.4313412862184834  1.0000
  S   S5        1.0  0.4642932562352585  0.4824646254845036  0.9045326804906254  1.0000
  S   S6        1.0  0.9642903954257775  0.017533348960832  0.5954658572887652  1.0000
  S   S7        1.0  0.5357091039089923  0.5175367330254659  0.09546728845002407  1.0000
  S   S8        1.0  0.0357038829552536  0.9824649183381028  0.4045323093439848  1.0000
  N   N1        1.0  0.7007225453804011  0.1576100311691562  0.8101789788068103  1.0000
  N   N2        1.0  0.2007227122688136  0.3423887160789292  0.6898192275786812  1.0000
  N   N3        1.0  0.2992838556454629  0.8423936457490768  0.1898215598938862  1.0000
  N   N4        1.0  0.799280994835982  0.6576126424310332  0.3101796987341317  1.0000
  O   O1        1.0  0.8098936969073023  0.3006024981813127  0.9001956575897552  1.0000
  O   O2        1.0  0.3098952107562454  0.1993931578557451  0.5998023104295955  1.0000
  O   O3        1.0  0.1901167450001751  0.6994004059341705  0.09980521250484745  1.0000
  O   O4        1.0  0.6900950267431725  0.8006058822459465  0.4001981313788506  1.0000
  F   F1        1.0  0.0348256646851084  0.7231076761242009  0.8581198808092412  1.0000
  F   F2        1.0  0.534853783967975  0.776892429633854  0.6418855929117698  1.0000
  F   F3        1.0  0.965161878893241  0.27689213678024777  0.14187658040786033  1.0000
  F   F4        1.0  0.4651458822552073  0.22310583766508074  0.358120393429772  1.0000
  F   F5        1.0  0.3645373588622505  0.7138533631038371  0.9714229698577556  1.0000
  F   F6        1.0  0.8645358450133074  0.7861413330349125  0.5285723120865171  1.0000
  F   F7        1.0  0.635466348242538  0.2861449041950976  0.028574675461072722  1.0000
  F   F8        1.0  0.1354557394466553  0.21385693426402244  0.47142429060447455  1.0000
  F   F9        1.0  0.6641566076814414  0.4644150442817008  0.7680590403703036  1.0000
  F   F10       1.0  0.16415408064877826  0.0355837029663917  0.7319370807595078  1.0000
  F   F11       1.0  0.3358444055022787  0.5355855414255117  0.2319402173364153  1.0000
  F   F12       1.0  0.8358401977322529  0.9644137915297863  0.26805881069754633  1.0000
  F   F13       1.0  0.7381882527181034  0.6131934855388153  0.7104858008423635  1.0000
  F   F14       1.0  0.2381722560800696  0.8868058474164828  0.7895127058776836  1.0000
  F   F15       1.0  0.2618194952682984  0.3868071001683973  0.28951397817827745  1.0000
  F   F16       1.0  0.7618125935772042  0.1131908742769383  0.2104845596011202  1.0000
  F   F17       1.0  0.4288857045981516  0.8592430642695776  0.9107017759457889  1.0000
  F   F18       1.0  0.9288828437886636  0.64075395027745  0.5892956397002891  1.0000
  F   F19       1.0  0.5711166555460991  0.14075752143763512  0.08929696044700111  1.0000
  F   F20       1.0  0.0711046997896787  0.359245089824242  0.41070167422464016  1.0000
  F   F21       1.0  0.9228269092141446  0.9210943329614025  0.9012334496942316  1.0000
  F   F22       1.0  0.422855362273836  0.5789057727966522  0.5987720240267791  1.0000
  F   F23       1.0  0.0771552465220537  0.07890470714028913  0.0987638642306976  1.0000
  F   F24       1.0  0.5771429569888085  0.4210932673050465  0.4012351948626148  1.0000
  F   F25       1.0  0.6601224608730121  0.8873174428419119  0.11761474442329957  1.0000
  F   F26       1.0  0.160130709524644  0.6126811173106291  0.3823950412829619  1.0000
  F   F27       1.0  0.3398798992712386  0.112679278851509  0.8823856489390138  1.0000
  F   F28       1.0  0.83987569150122  0.38731405877727815  0.6176107066924459  1.0000
  F   F29       1.0  0.7706486547001745  0.6900525837801581  0.07600739001366462  1.0000
  F   F30       1.0  0.2706447807069736  0.8099475219778969  0.42400225421870624  1.0000
  F   F31       1.0  0.2293604402467651  0.3099464563215406  0.9239920091669378  1.0000
  F   F32       1.0  0.7293454567924513  0.1900499725182812  0.5760061487724215  1.0000
