data_image0
_chemical_formula_structural       Er2H28C30O20
_chemical_formula_sum              "Er2 H28 C30 O20"
_cell_length_a       6.079673569029422
_cell_length_b       10.57292846239512
_cell_length_c       13.38983906598619
_cell_angle_alpha    112.13651660632594
_cell_angle_beta     96.86348185588209
_cell_angle_gamma    97.88295768234836

_space_group_name_H-M_alt    "P 1"
_space_group_IT_number       1

loop_
  _space_group_symop_operation_xyz
  'x, y, z'

loop_
  _atom_site_type_symbol
  _atom_site_label
  _atom_site_symmetry_multiplicity
  _atom_site_fract_x
  _atom_site_fract_y
  _atom_site_fract_z
  _atom_site_occupancy
  Er  Er1       1.0  0.4154731618070855  0.3698975282215287  0.28997462505499527  1.0000
  Er  Er2       1.0  0.5845227151863313  0.6301037526050949  0.7100273706689038  1.0000
  H   H1        1.0  0.5766348251642768  0.8863375772440137  0.5755525660288754  1.0000
  H   H2        1.0  0.42337098428576087  0.11366891435557142  0.4244492618205058  1.0000
  H   H3        1.0  0.8624120759525481  0.8823685800722815  0.5633959646377136  1.0000
  H   H4        1.0  0.13759271739585444  0.11763477367431822  0.4366011457351888  1.0000
  H   H5        1.0  0.6367146351319662  0.004141628173620399  0.29560396317017273  1.0000
  H   H6        1.0  0.36328354346904473  0.9958513146476305  0.7043926991694746  1.0000
  H   H7        1.0  0.8912943007122038  0.996338731891285  0.1655071735085158  1.0000
  H   H8        1.0  0.10870353472131461  0.003658368209976  0.8344884609370595  1.0000
  H   H9        1.0  0.2695046660119971  0.7523592355221922  0.2903170884780478  1.0000
  H   H10       1.0  0.7304971558599648  0.24763995701885477  0.7096808718268262  1.0000
  H   H11       1.0  0.014118890885562419  0.7589324798817714  0.4196691363119456  1.0000
  H   H12       1.0  0.9858908870435458  0.24107088737559929  0.580330484450144  1.0000
  H   H13       1.0  0.07398566028903276  0.9152985236262838  0.02808295475526993  1.0000
  H   H14       1.0  0.9260184949043407  0.08470276193258999  0.9719179902431916  1.0000
  H   H15       1.0  0.36477655233798606  0.9080183966663286  0.028574330878861128  1.0000
  H   H16       1.0  0.6352222961318573  0.0919870453658476  0.9714268149130728  1.0000
  H   H17       1.0  0.9596863158607364  0.3621307744769666  0.043300027085862815  1.0000
  H   H18       1.0  0.04031751683623946  0.6378538571317804  0.9566982101697261  1.0000
  H   H19       1.0  0.9706199851670905  0.5416439015827662  0.12585191868072337  1.0000
  H   H20       1.0  0.029369884659779112  0.4583438121017948  0.8741390179917302  1.0000
  H   H21       1.0  0.5145554950090414  0.7017485617739752  0.17524903318083318  1.0000
  H   H22       1.0  0.4854440241156866  0.298253762153692  0.8247527188230703  1.0000
  H   H23       1.0  0.2721181894387215  0.2684661359470368  0.9649723091822222  1.0000
  H   H24       1.0  0.7278810094688665  0.7315299472680082  0.03502981844924595  1.0000
  H   H25       1.0  0.8758289966034313  0.3831194171726864  0.3787478996226525  1.0000
  H   H26       1.0  0.12416986027628946  0.6168860299411207  0.6212547417999658  1.0000
  H   H27       1.0  0.7583062693946587  0.4735297418117739  0.47597387574317196  1.0000
  H   H28       1.0  0.24169391731964399  0.526474668089314  0.5240292763425884  1.0000
  C   C1        1.0  0.633547278855616  0.6853206263441294  0.4820835429409982  1.0000
  C   C2        1.0  0.36645588660536527  0.31468274322539  0.5179187131582594  1.0000
  C   C3        1.0  0.6871997450874474  0.8423534055298062  0.5176805433822338  1.0000
  C   C4        1.0  0.312803080271344  0.1576489172417794  0.4823198909530929  1.0000
  C   C5        1.0  0.8031450765235775  0.8802801326007453  0.3651275954719677  1.0000
  C   C6        1.0  0.19685374864233304  0.11971488348986979  0.6348667278728043  1.0000
  C   C7        1.0  0.7742521106305562  0.9477430096325605  0.2938766358809771  1.0000
  C   C8        1.0  0.22574604694577974  0.05224992048462699  0.7061162873819454  1.0000
  C   C9        1.0  0.9189967045062559  0.9424975544501134  0.21971854921441986  1.0000
  C   C10       1.0  0.08099980836292531  0.057495381326738496  0.7802765285134895  1.0000
  C   C11       1.0  0.09528489253537485  0.8694190028868009  0.21648866274983186  1.0000
  C   C12       1.0  0.9047219097123574  0.13058020062419468  0.7835110601288733  1.0000
  C   C13       1.0  0.12766137261750998  0.8048524345318597  0.28952236605163517  1.0000
  C   C14       1.0  0.8723467563995019  0.19515093584436022  0.7104786613600851  1.0000
  C   C15       1.0  0.9825563924444013  0.8097000788360944  0.3635432173326123  1.0000
  C   C16       1.0  0.01744906735394378  0.1903001542651808  0.6364537514369317  1.0000
  C   C17       1.0  0.2393267461530185  0.9377489570173693  0.0817240798417629  1.0000
  C   C18       1.0  0.7606747451662557  0.0622544004261272  0.9182750960150727  1.0000
  C   C19       1.0  0.307314414210616  0.09351810238231908  0.1524807218054463  1.0000
  C   C20       1.0  0.6926801287432768  0.9064842131162081  0.8475200154399686  1.0000
  C   C21       1.0  0.9121447192070419  0.40558202894784046  0.20820511664021515  1.0000
  C   C22       1.0  0.08784782518306136  0.594414031171226  0.7917921681749858  1.0000
  C   C23       1.0  0.02079705376312549  0.44537446547613513  0.12584762582674364  1.0000
  C   C24       1.0  0.979202122980155  0.5546163984160942  0.8741492210427919  1.0000
  C   C25       1.0  0.37926090989587646  0.4841341290184574  0.07635530598900434  1.0000
  C   C26       1.0  0.6207316639287795  0.5158619488862967  0.9236472135336057  1.0000
  C   C27       1.0  0.5089773544838678  0.6139253517326181  0.09873651963417977  1.0000
  C   C28       1.0  0.4910191973693614  0.38607281353030487  0.9012668301170449  1.0000
  C   C29       1.0  0.36930421790366813  0.3699246169057702  0.9789470886764704  1.0000
  C   C30       1.0  0.6306996308270031  0.6300756421816728  0.02105801708079715  1.0000
  O   O1        1.0  0.5317192504738913  0.6068692171481374  0.38584132486769107  1.0000
  O   O2        1.0  0.4682842539496549  0.3931299926005565  0.6141612113102963  1.0000
  O   O3        1.0  0.6995144166989249  0.6408511577156588  0.5556128993567313  1.0000
  O   O4        1.0  0.30048942476150137  0.3591543029089125  0.44439225245506714  1.0000
  O   O5        1.0  0.6465330482564581  0.8893809731197064  0.43239902637071026  1.0000
  O   O6        1.0  0.3534677827434862  0.11061509681324108  0.5675987033497449  1.0000
  O   O7        1.0  0.4316061977922133  0.1369233371827363  0.24722258379998147  1.0000
  O   O8        1.0  0.5683936530248346  0.8630800284612337  0.752779494337183  1.0000
  O   O9        1.0  0.23929131574973894  0.1788037550189614  0.11509016133133089  1.0000
  O   O10       1.0  0.7607032272041535  0.8211985604795659  0.884910575914077  1.0000
  O   O11       1.0  0.24308158667091118  0.8542099731255067  0.1436359399470534  1.0000
  O   O12       1.0  0.7569212386878804  0.14579234964607923  0.8563644943882662  1.0000
  O   O13       1.0  0.04157473793073047  0.3927735347392058  0.2849137750026216  1.0000
  O   O14       1.0  0.9584207989604892  0.607226699289484  0.7150863989573324  1.0000
  O   O15       1.0  0.6997145188957605  0.387748769157767  0.19681596054756062  1.0000
  O   O16       1.0  0.30028102220039443  0.6122514674117313  0.8031849612277354  1.0000
  O   O17       1.0  0.26258418955607976  0.4681700082776317  0.15682486470428364  1.0000
  O   O18       1.0  0.7374090434482812  0.5318281505189191  0.8431775592694919  1.0000
  O   O19       1.0  0.7410919156688321  0.38188750959379547  0.41419863230021287  1.0000
  O   O20       1.0  0.2589042899515945  0.6181200170270742  0.5858044834268127  1.0000
