data_image0
_chemical_formula_structural       Li8H36C28N4O32
_chemical_formula_sum              "Li8 H36 C28 N4 O32"
_cell_length_a       7.065200812
_cell_length_b       10.986263241945577
_cell_length_c       13.0607
_cell_angle_alpha    90.6633855873579
_cell_angle_beta     90.0
_cell_angle_gamma    90.0

_space_group_name_H-M_alt    "P 1"
_space_group_IT_number       1

loop_
  _space_group_symop_operation_xyz
  'x, y, z'

loop_
  _atom_site_type_symbol
  _atom_site_label
  _atom_site_symmetry_multiplicity
  _atom_site_fract_x
  _atom_site_fract_y
  _atom_site_fract_z
  _atom_site_occupancy
  Li  Li1       1.0  0.5096826114105326  0.6026119714748717  0.32431964903562965  1.0000
  Li  Li2       1.0  0.9903158008072737  0.1026122837948975  0.8243212216716101  1.0000
  Li  Li3       1.0  0.49031727365996136  0.39738831417369613  0.6756787458692556  1.0000
  Li  Li4       1.0  0.0096840842632204  0.8973889121422829  0.17568101037736028  1.0000
  Li  Li5       1.0  0.9845778181117026  0.637416856557131  0.6443160616764201  1.0000
  Li  Li6       1.0  0.5154220094940456  0.1374180791657693  0.1443184088335059  1.0000
  Li  Li7       1.0  0.0154220669587986  0.36258798053449226  0.35568467452250024  1.0000
  Li  Li8       1.0  0.4845736294126439  0.8625849373486361  0.8556846066019259  1.0000
  H   H1        1.0  0.7106634522648037  0.9282422343595724  0.3550247294531133  1.0000
  H   H2        1.0  0.7893392061168214  0.4282425466795985  0.8550270677448423  1.0000
  H   H3        1.0  0.2893392635815744  0.0717589615776077  0.6449744399728699  1.0000
  H   H4        1.0  0.210657848177803  0.5717577389689694  0.1449736241272745  1.0000
  H   H5        1.0  0.7788823200401325  0.8714948422835106  0.6710331967232719  1.0000
  H   H6        1.0  0.7211203383414855  0.371499706046599  0.17103557934179753  1.0000
  H   H7        1.0  0.22111614964242673  0.1285027124992126  0.3289667028970271  1.0000
  H   H8        1.0  0.2788809621169506  0.6285014898905813  0.8289651213956831  1.0000
  H   H9        1.0  0.7867617846840034  0.2354133791202742  0.5435745669382754  1.0000
  H   H10       1.0  0.7132337967579332  0.7354157976660929  0.0435737865541128  1.0000
  H   H11       1.0  0.2132423465503024  0.7645859962396742  0.4564268817242335  1.0000
  H   H12       1.0  0.286764672924626  0.26458539827108746  0.9564269141833677  1.0000
  H   H13       1.0  0.150014136639939  0.6050788536135698  0.3155317421808021  1.0000
  H   H14       1.0  0.349985805895308  0.1050782556449761  0.8155317746399361  1.0000
  H   H15       1.0  0.849987163818497  0.39492052174638553  0.6844674095144683  1.0000
  H   H16       1.0  0.650014079175193  0.8949220300035917  0.1844673859206978  1.0000
  H   H17       1.0  0.2315786972708622  0.7325784280622898  0.2783597543371386  1.0000
  H   H18       1.0  0.2684240760402616  0.23257691980508347  0.7783597779309162  1.0000
  H   H19       1.0  0.7684226031875736  0.2674218575862781  0.7216409375349784  1.0000
  H   H20       1.0  0.7315772244181744  0.7674224555548648  0.22164013942010288  1.0000
  H   H21       1.0  0.1098793963055442  0.42402244867406574  0.5671820983139425  1.0000
  H   H22       1.0  0.390119130841768  0.9240203157768221  0.06718203925873209  1.0000
  H   H23       1.0  0.890120488764957  0.57597965755172  0.4328178456331528  1.0000
  H   H24       1.0  0.6098807542287332  0.07598088016035828  0.9328178958230069  1.0000
  H   H25       1.0  0.14376802967507973  0.4410248193701989  0.6860028877471362  1.0000
  H   H26       1.0  0.3562347436360439  0.9410245070501729  0.186002846422646  1.0000
  H   H27       1.0  0.8562332707833562  0.558975466278369  0.31399627281349046  1.0000
  H   H28       1.0  0.643766556822392  0.058973958021169885  0.8139962964072608  1.0000
  H   H29       1.0  0.40004666183011034  0.406965460661219  0.4094424953969238  1.0000
  H   H30       1.0  0.0999518653172018  0.9069642380525806  0.9094432108628183  1.0000
  H   H31       1.0  0.5999546386283257  0.5930339146987365  0.5905558906425981  1.0000
  H   H32       1.0  0.9000466043653644  0.0930351373073748  0.09055747214394218  1.0000
  H   H33       1.0  0.6060422221442747  0.3803731994369953  0.3656062148732603  1.0000
  H   H34       1.0  0.8939547746856035  0.8803747076941943  0.8656084882467212  1.0000
  H   H35       1.0  0.3939576629262262  0.61962617592296  0.6343921711662617  1.0000
  H   H36       1.0  0.10604086422108587  0.1196273985315912  0.1343929870118643  1.0000
  C   C1        1.0  0.7444600854184458  0.8886546929095329  0.5089846630183246  1.0000
  C   C2        1.0  0.7555397421873022  0.3886559155181644  0.008987010175410098  1.0000
  C   C3        1.0  0.2555426304279251  0.1113437721618098  0.4910152454673309  1.0000
  C   C4        1.0  0.24445872749525674  0.6113434598417911  0.9910136728313501  1.0000
  C   C5        1.0  0.719131718290356  0.7552036515151315  0.4830660798631854  1.0000
  C   C6        1.0  0.7808723554792039  0.2552057844123823  0.9830669045741371  1.0000
  C   C7        1.0  0.280868166780138  0.24479481355620436  0.5169330629667286  1.0000
  C   C8        1.0  0.2191261142033625  0.7447935909475731  0.0169345440883646  1.0000
  C   C9        1.0  0.7713411331131468  0.9338177521084673  0.6068205137741813  1.0000
  C   C10       1.0  0.7286586944926012  0.4338207952943235  0.1068221130062454  1.0000
  C   C11       1.0  0.2286601673452893  0.0661807129628755  0.39317939471147406  1.0000
  C   C12       1.0  0.2713397751899578  0.5661794903542443  0.8931778132101299  1.0000
  C   C13       1.0  0.7819098348368385  0.06241757984060568  0.6247880629474807  1.0000
  C   C14       1.0  0.7180914081568515  0.5624218189636422  0.12478730029403808  1.0000
  C   C15       1.0  0.2180928810095395  0.9375799749421247  0.3752126023285598  1.0000
  C   C16       1.0  0.2819113076895263  0.437579376973538  0.8752134004434423  1.0000
  C   C17       1.0  0.7760345595114018  0.137035757948702  0.5361191062787825  1.0000
  C   C18       1.0  0.7239624373184768  0.637039086783126  0.0361168034484933  1.0000
  C   C19       1.0  0.2239695717229111  0.8629617968340282  0.46388232465300655  1.0000
  C   C20       1.0  0.2760360323640896  0.3629630194426595  0.9638823748428534  1.0000
  C   C21       1.0  0.7476376313364455  0.08714921114177089  0.4403305559815323  1.0000
  C   C22       1.0  0.7523678578210492  0.5871498091103575  0.9403312891781467  1.0000
  C   C23       1.0  0.2523679152858023  0.9128501642181844  0.5596701270252282  1.0000
  C   C24       1.0  0.2476306118615099  0.4128495662495979  0.059668628172865085  1.0000
  C   C25       1.0  0.7204013212696196  0.16461113087395057  0.3461811672602551  1.0000
  C   C26       1.0  0.77960558327581  0.664605356822257  0.8461764788091343  1.0000
  C   C27       1.0  0.2795999791888164  0.8353864239087798  0.6538179667042954  1.0000
  C   C28       1.0  0.2203900556308795  0.3353967494035359  0.15382423079370966  1.0000
  N   N1        1.0  0.7283784476811306  0.9649914959172037  0.42834426587312885  1.0000
  N   N2        1.0  0.7716242107004945  0.4649918082372295  0.9283450728533678  1.0000
  N   N3        1.0  0.2716256835531823  0.035007879442751695  0.5716556514778901  1.0000
  N   N4        1.0  0.2283728435941299  0.5350084774113384  0.0716556190187561  1.0000
  O   O1        1.0  0.6127115301022243  0.7314633245125106  0.4087714596778653  1.0000
  O   O2        1.0  0.8872911282794007  0.231466367698367  0.9087745902214193  1.0000
  O   O3        1.0  0.38728835496827674  0.26853605084744453  0.5912284576731537  1.0000
  O   O4        1.0  0.1127115875669773  0.7685320973729758  0.09122684957573308  1.0000
  O   O5        1.0  0.806255922736824  0.676937036649889  0.5376546214310736  1.0000
  O   O6        1.0  0.6937439048689313  0.17693643868129527  0.03765465389020759  1.0000
  O   O7        1.0  0.1937439623336772  0.32306233871006634  0.4623460615756869  1.0000
  O   O8        1.0  0.3062531494257001  0.8230647572558849  0.9623468125030215  1.0000
  O   O9        1.0  0.7952866662270353  0.10974348478180218  0.7159003163322595  1.0000
  O   O10       1.0  0.7047074998269736  0.6097495444820638  0.21589804009804678  1.0000
  O   O11       1.0  0.2047118034555311  0.890254070000928  0.2841011145995296  1.0000
  O   O12       1.0  0.2952938006314696  0.3902525617437219  0.7841019038490487  1.0000
  O   O13       1.0  0.629032368400857  0.11637948876374789  0.2741869390301659  1.0000
  O   O14       1.0  0.870968874592833  0.616384638175397  0.7741884822093184  1.0000
  O   O15       1.0  0.3709731782213908  0.8836171557303699  0.7258144830362666  1.0000
  O   O16       1.0  0.129031010477668  0.3836238400706762  0.22581152379529357  1.0000
  O   O17       1.0  0.7852289195485085  0.27266329941453893  0.350563331140158  1.0000
  O   O18       1.0  0.7147723234451817  0.7726666282489703  0.850562559621359  1.0000
  O   O19       1.0  0.21477096552199265  0.7273360759454093  0.6494358205551124  1.0000
  O   O20       1.0  0.2852204846856381  0.22733547797682258  0.1494404469487236  1.0000
  O   O21       1.0  0.2575425735825476  0.6431817143373378  0.2787815408731547  1.0000
  O   O22       1.0  0.2424573689526994  0.1431811163687442  0.7787815733322886  1.0000
  O   O23       1.0  0.7424573114879465  0.35681766102261747  0.7212176108221158  1.0000
  O   O24       1.0  0.7575425161178018  0.8568191692798237  0.22121835288408676  1.0000
  O   O25       1.0  0.0546566205654244  0.4617675659732967  0.6295815976650728  1.0000
  O   O26       1.0  0.4453419065818878  0.9617681639418832  0.12958003389444878  1.0000
  O   O27       1.0  0.9453432645050768  0.5382336299638836  0.37041910307240755  1.0000
  O   O28       1.0  0.5546565631006715  0.0382339422839024  0.8704199100526467  1.0000
  O   O29       1.0  0.5083521467499921  0.4439413840832529  0.3745066420723261  1.0000
  O   O30       1.0  0.9916476808557559  0.9439401614746146  0.874506591882472  1.0000
  O   O31       1.0  0.4916463229325672  0.5560570809880899  0.6254894381346007  1.0000
  O   O32       1.0  0.008352204214745  0.0560592138853409  0.1254933254685398  1.0000
