data_image0
_chemical_formula_structural       Ag6H34C48N8O16
_chemical_formula_sum              "Ag6 H34 C48 N8 O16"
_cell_length_a       7.375101199
_cell_length_b       8.176514349791772
_cell_length_c       19.586
_cell_angle_alpha    90.0
_cell_angle_beta     90.0
_cell_angle_gamma    92.78240384057092

_space_group_name_H-M_alt    "P 1"
_space_group_IT_number       1

loop_
  _space_group_symop_operation_xyz
  'x, y, z'

loop_
  _atom_site_type_symbol
  _atom_site_label
  _atom_site_symmetry_multiplicity
  _atom_site_fract_x
  _atom_site_fract_y
  _atom_site_fract_z
  _atom_site_occupancy
  Ag  Ag1       1.0  0.9999984815123639  0.0  5.105687748e-07  1.0000
  Ag  Ag2       1.0  0.5000015454282334  0.9999981638019407  0.5000005105687747  1.0000
  Ag  Ag3       1.0  0.2237714725273392  0.6425272827819841  0.7671280506484237  1.0000
  Ag  Ag4       1.0  0.2762274269715306  0.3574721054785216  0.2671285612171985  1.0000
  Ag  Ag5       1.0  0.7762274115823472  0.3574733299370791  0.23287041764525895  1.0000
  Ag  Ag6       1.0  0.7237713253424828  0.6425260583234262  0.7328709282140338  1.0000
  H   H1        1.0  0.3732732957386559  0.7477168443242805  0.0713330950679065  1.0000
  H   H2        1.0  0.1267270255716397  0.25228376839478284  0.5713325844991317  1.0000
  H   H3        1.0  0.6267255883710232  0.25228376839478284  0.9286669049320934  1.0000
  H   H4        1.0  0.8732734780429681  0.7477217421585254  0.42866741550086823  1.0000
  H   H5        1.0  2.0521024154597924e-05  0.5000125509451365  0.0  1.0000
  H   H6        1.0  0.49998813346122967  0.4999917351496066  0.4999999999999999  1.0000
  H   H7        1.0  0.7988784872272914  0.8300053574127233  0.8800260390074541  1.0000
  H   H8        1.0  0.7011189596817784  0.16999525530633974  0.38002501786990445  1.0000
  H   H9        1.0  0.20112026508672892  0.1699928063892244  0.11997498213009548  1.0000
  H   H10       1.0  0.2988812144436749  0.8300041329541585  0.6199754926988632  1.0000
  H   H11       1.0  0.6751446752776002  0.9073286910390197  0.0829107525783712  1.0000
  H   H12       1.0  0.8248567734744228  0.09267069722147883  0.5829102420095964  1.0000
  H   H13       1.0  0.32485407703641306  0.09266947276292113  0.9170892474216288  1.0000
  H   H14       1.0  0.1751463101717192  0.9073323644147067  0.41708975799040354  1.0000
  H   H15       1.0  0.5027069071941952  0.673534246905227  0.8596814050852685  1.0000
  H   H16       1.0  0.9972894473926032  0.3264712636480738  0.3596814050852686  1.0000
  H   H17       1.0  0.49729326693125125  0.3264651413552784  0.1403185949147385  1.0000
  H   H18       1.0  0.0027094367170832035  0.6735293490709895  0.6403180843459635  1.0000
  H   H19       1.0  0.8623268337274366  0.3526661056292256  0.6546992749923389  1.0000
  H   H20       1.0  0.6376719690952227  0.6473345070898375  0.15469927499233896  1.0000
  H   H21       1.0  0.13767069446864605  0.6473345070898375  0.345300725007661  1.0000
  H   H22       1.0  0.3623282050302236  0.3526648811706607  0.8453007250076608  1.0000
  H   H23       1.0  0.8381814375234382  0.4639632664704507  0.8611206984580803  1.0000
  H   H24       1.0  0.6618172994013917  0.5360361217900547  0.3611206984580804  1.0000
  H   H25       1.0  0.16181731479058206  0.5360348973314899  0.1388793015419196  1.0000
  H   H26       1.0  0.3381828747240547  0.4639632664704507  0.6388798121106943  1.0000
  H   H27       1.0  0.9669474160257607  0.201946276979605  0.8941044623710823  1.0000
  H   H28       1.0  0.5330526768126731  0.7980531112809006  0.3941044623710823  1.0000
  H   H29       1.0  0.0330527580996929  0.7980531112809006  0.10589502706014288  1.0000
  H   H30       1.0  0.46694885322637697  0.201946276979605  0.6058960481976925  1.0000
  H   H31       1.0  0.9935482340538753  0.07774699628817673  0.6807520678035317  1.0000
  H   H32       1.0  0.5064519246823878  0.9222536164308863  0.1807525783723065  1.0000
  H   H33       1.0  0.006450650055810991  0.9222536164308863  0.3192474216276935  1.0000
  H   H34       1.0  0.4935482494430587  0.077745771829612  0.8192479321964683  1.0000
  C   C1        1.0  0.2409910070602805  0.5963100944223143  0.9546793628101681  1.0000
  C   C2        1.0  0.2590093142500223  0.4036905182967488  0.4546793628101682  1.0000
  C   C3        1.0  0.7590103911831036  0.4036868449210687  0.0453196160522822  1.0000
  C   C4        1.0  0.7409897675531594  0.5963137677979944  0.545320126621057  1.0000
  C   C5        1.0  0.46499208634018874  0.7633005284216026  0.0280577963851698  1.0000
  C   C6        1.0  0.035005523142913796  0.23670008429746056  0.5280572858164021  1.0000
  C   C7        1.0  0.5350052441623987  0.23669641092177335  0.9719427141835979  1.0000
  C   C8        1.0  0.964994980471701  0.7633054262558474  0.4719432247523727  1.0000
  C   C9        1.0  0.41667334874924916  0.6958157193275625  0.9646722148473401  1.0000
  C   C10       1.0  0.0833257484431158  0.304187342308623  0.4646722148473401  1.0000
  C   C11       1.0  0.5833266935805312  0.3041812200158205  0.0353277851526599  1.0000
  C   C12       1.0  0.9166748210693285  0.6958193927032426  0.5353277851526598  1.0000
  C   C13       1.0  0.7006257819693289  0.809109972080684  0.9209440416624091  1.0000
  C   C14       1.0  0.7993742449712682  0.1908881917212568  0.4209440416624091  1.0000
  C   C15       1.0  0.2993729703446845  0.1908881917212568  0.07905544776881608  1.0000
  C   C16       1.0  0.2006274168634476  0.8091136454563641  0.5790559583375909  1.0000
  C   C17       1.0  0.6302651409189366  0.8505627921821102  0.0350336975390562  1.0000
  C   C18       1.0  0.869733661903723  0.1494378205369529  0.535034208107831  1.0000
  C   C19       1.0  0.36973225548148037  0.1494353716198376  0.9649647707546194  1.0000
  C   C20       1.0  0.13026813172665186  0.8505664655577903  0.464965791892169  1.0000
  C   C21       1.0  0.5371700153633511  0.7213505781446872  0.9102563055243563  1.0000
  C   C22       1.0  0.9628304069642437  0.2786549324086138  0.4102557949555816  1.0000
  C   C23       1.0  0.4628315146756988  0.2786488101158113  0.08974420504441838  1.0000
  C   C24       1.0  0.037168608941108496  0.7213481292275647  0.5897442050444182  1.0000
  C   C25       1.0  0.0736144676475377  0.9582563714802816  0.8060624936178868  1.0000
  C   C26       1.0  0.4263858536627651  0.0417442412387814  0.3060624936178868  1.0000
  C   C27       1.0  0.9263857064779086  0.0417430167802237  0.1939375063821132  1.0000
  C   C28       1.0  0.5736143204626883  0.958255147021724  0.6939375063821132  1.0000
  C   C29       1.0  0.8885968822804456  0.3121389761994067  0.7066552639640591  1.0000
  C   C30       1.0  0.6114032764558173  0.6878616365196564  0.20665526396405906  1.0000
  C   C31       1.0  0.1114047795542703  0.687862860978214  0.2933447360359409  1.0000
  C   C32       1.0  0.3885968976696289  0.312137751740849  0.7933447360359408  1.0000
  C   C33       1.0  0.8717838293841067  0.3757349049058476  0.8220555498825703  1.0000
  C   C34       1.0  0.6282163293521561  0.6242657078132154  0.3220550393137955  1.0000
  C   C35       1.0  0.12821634474134666  0.6242644833546578  0.1779444501174297  1.0000
  C   C36       1.0  0.37178526658472316  0.3757349049058476  0.6779449606862042  1.0000
  C   C37       1.0  0.9892157113985218  0.1181014770609821  0.7892249566016574  1.0000
  C   C38       1.0  0.510784315542068  0.8818966867409588  0.28922495660165737  1.0000
  C   C39       1.0  0.010784396829087902  0.8818966867409588  0.2107745328295749  1.0000
  C   C40       1.0  0.4892157926855418  0.1181014770609821  0.7107750433983424  1.0000
  C   C41       1.0  0.9437432888543924  0.22804071335880147  0.8402920453385079  1.0000
  C   C42       1.0  0.5562568039840342  0.7719586749017042  0.3402925559072827  1.0000
  C   C43       1.0  0.056256885271054095  0.7719586749017042  0.15970744409271725  1.0000
  C   C44       1.0  0.4437433701414121  0.22804071335880147  0.6597079546614921  1.0000
  C   C45       1.0  0.960052260819161  0.1621832096914346  0.7212626365771442  1.0000
  C   C46       1.0  0.5399478320192654  0.8378161785690708  0.2212626365771442  1.0000
  C   C47       1.0  0.03994791330628539  0.8378161785690708  0.2787373634228558  1.0000
  C   C48       1.0  0.4600522762083514  0.16218198523287705  0.7787373634228558  1.0000
  N   N1        1.0  0.7472465250578038  0.8722540755783614  0.9824711528642921  1.0000
  N   N2        1.0  0.752753633678452  0.1277465371407018  0.4824706422955173  1.0000
  N   N3        1.0  0.2527522272562094  0.1277440882235865  0.0175293577044826  1.0000
  N   N4        1.0  0.24724796225842735  0.8722540755783614  0.5175298682732573  1.0000
  N   N5        1.0  0.8443789380982734  0.4177999542874389  0.7562851016031826  1.0000
  N   N6        1.0  0.6556197988265637  0.5821994339730665  0.2562851016031829  1.0000
  N   N7        1.0  0.1556198801135835  0.5821994339730665  0.24371489839681704  1.0000
  N   N8        1.0  0.3443803094010533  0.4177987298288742  0.7437154089655849  1.0000
  O   O1        1.0  0.20847948277052805  0.5279681643360377  0.8988262023894649  1.0000
  O   O2        1.0  0.2915222603512007  0.4720336728415902  0.3988262023894648  1.0000
  O   O3        1.0  0.791523337284282  0.472029999465903  0.1011737976105351  1.0000
  O   O4        1.0  0.7084742414204469  0.5279730621702754  0.601173797610535  1.0000
  O   O5        1.0  0.1365564841050499  0.5880584681842507  0.008158889002345399  1.0000
  O   O6        1.0  0.36344254718948577  0.4119433689933772  0.5081588890023454  1.0000
  O   O7        1.0  0.8634409122953668  0.4119396956176971  0.9918406004288797  1.0000
  O   O8        1.0  0.6365605364566561  0.5880596926428083  0.4918406004288797  1.0000
  O   O9        1.0  0.08760926176658047  0.8617188341252771  0.7544383743490214  1.0000
  O   O10       1.0  0.4123896377322893  0.1382805541352283  0.2544383743490215  1.0000
  O   O11       1.0  0.9123894905474399  0.1382793296766636  0.2455616256509785  1.0000
  O   O12       1.0  0.5876091804795606  0.8617188341252771  0.7455616256509785  1.0000
  O   O13       1.0  0.12385457408976207  0.9310611468553418  0.8659159603798655  1.0000
  O   O14       1.0  0.3761415476840781  0.0689370169465988  0.3659154498110908  1.0000
  O   O15       1.0  0.8761401104834616  0.0689370169465988  0.1340840396201344  1.0000
  O   O16       1.0  0.6238572705277717  0.9310623713139068  0.6340845501889091  1.0000
