data_image0
_chemical_formula_structural       Zn4H18C32S7N4O34
_chemical_formula_sum              "Zn4 H18 C32 S7 N4 O34"
_cell_length_a       10.777727626532064
_cell_length_b       19.10875271871557
_cell_length_c       19.106628184432818
_cell_angle_alpha    93.96260149010169
_cell_angle_beta     95.8513834696255
_cell_angle_gamma    92.24113243965742

_space_group_name_H-M_alt    "P 1"
_space_group_IT_number       1

loop_
  _space_group_symop_operation_xyz
  'x, y, z'

loop_
  _atom_site_type_symbol
  _atom_site_label
  _atom_site_symmetry_multiplicity
  _atom_site_fract_x
  _atom_site_fract_y
  _atom_site_fract_z
  _atom_site_occupancy
  Zn  Zn1       1.0  0.6097828505700633  0.5744907787054457  0.5724428800964818  1.0000
  Zn  Zn2       1.0  0.39361548884664893  0.5560254526904417  0.4392459265245707  1.0000
  Zn  Zn3       1.0  0.4118911655313512  0.4433412859365543  0.5573254765295206  1.0000
  Zn  Zn4       1.0  0.6130880257651512  0.450213508347069  0.4503928858362444  1.0000
  H   H1        1.0  0.9943612090558319  0.42845140491461814  0.4792195661735336  1.0000
  H   H2        1.0  0.262588772691565  0.09229422852221347  0.6275865023563938  1.0000
  H   H3        1.0  0.1192575305729946  0.8284450578401773  0.3944344723714012  1.0000
  H   H4        1.0  0.45273074293108806  0.23342174857571504  0.5909601742200581  1.0000
  H   H5        1.0  0.46892952239851843  0.5755850026507686  0.09916722063379523  1.0000
  H   H6        1.0  0.7715754859830212  0.6941842794933988  0.8950571028334695  1.0000
  H   H7        1.0  0.611498098515341  0.6142035995548409  0.7929580639166577  1.0000
  H   H8        1.0  0.46819343771796446  0.34651541755295767  0.35621267926762823  1.0000
  H   H9        1.0  0.43025694468637005  0.40699069204026017  0.8990114397163897  1.0000
  H   H10       1.0  0.6624491945501133  0.2753022723128922  0.13219105407500115  1.0000
  H   H11       1.0  0.46197766018231334  0.5812218882565359  0.23083765760242878  1.0000
  H   H12       1.0  0.014229214101142395  0.5869737268548861  0.5273536571636087  1.0000
  H   H13       1.0  0.42280094465655793  0.40989050296860086  0.7670804396333681  1.0000
  H   H14       1.0  0.6675831886895693  0.7894022216825858  0.5298869254157312  1.0000
  H   H15       1.0  0.654530311386182  0.9203126426381015  0.5219171718610341  1.0000
  H   H16       1.0  0.6124187832473852  0.14957673174436786  0.2802511348820645  1.0000
  H   H17       1.0  0.6072681596046009  0.23127030938564266  0.3917677843119663  1.0000
  H   H18       1.0  0.08273247309980289  0.8132206659624116  0.5129960205697446  1.0000
  C   C1        1.0  0.49124745616986587  0.48342515087541926  0.31591868336960977  1.0000
  C   C2        1.0  0.48032675033147854  0.470310589676636  0.23725061677257744  1.0000
  C   C3        1.0  0.4882092706022903  0.4041245180929209  0.20053554004358895  1.0000
  C   C4        1.0  0.5154148243785598  0.5120109228443039  0.6946417774626641  1.0000
  C   C5        1.0  0.49644033857978787  0.40139910050115896  0.12725378380515914  1.0000
  C   C6        1.0  0.5221395982101741  0.2395370215258978  0.48962450046484934  1.0000
  C   C7        1.0  0.48421517211944126  0.20382347716338237  0.5458579225404636  1.0000
  C   C8        1.0  0.4895716627043285  0.13125394275547106  0.5454520161536537  1.0000
  C   C9        1.0  0.5329433571493425  0.09299113725977287  0.48736870073546634  1.0000
  C   C10       1.0  0.57936378176494  0.13044039599185447  0.433530261154232  1.0000
  C   C11       1.0  0.5726170945234442  0.2029271021496513  0.43389484564395553  1.0000
  C   C12       1.0  0.4649587574554701  0.4536505363348696  0.8021851121501486  1.0000
  C   C13       1.0  0.5717386177159794  0.8849082087107117  0.5137236282519596  1.0000
  C   C14       1.0  0.5781009513877962  0.8132354232330526  0.5188361749677739  1.0000
  C   C15       1.0  0.455721155290263  0.9135372488568194  0.4976614656075215  1.0000
  C   C16       1.0  0.4875201092414939  0.6920338994208848  0.5085065466578413  1.0000
  C   C17       1.0  0.4692599619508541  0.7697970152259328  0.5101337818247061  1.0000
  C   C18       1.0  0.3508364833914754  0.7986131404297723  0.4985860352415801  1.0000
  C   C19       1.0  0.3440650166474697  0.8707767726668008  0.48937069096955105  1.0000
  C   C20       1.0  0.5132070965898308  0.3170297596611534  0.4922004311397006  1.0000
  C   C21       1.0  0.17594715095146538  0.4870214980284187  0.4892839598852988  1.0000
  C   C22       1.0  0.8370359793063641  0.5237641786827394  0.518228442178348  1.0000
  C   C23       1.0  0.4681871812801007  0.45198802629911217  0.8747378567983264  1.0000
  C   C24       1.0  0.9720915775782187  0.5345984358026284  0.5121668751104168  1.0000
  C   C25       1.0  0.03878680711270019  0.48084487579593815  0.49102082488081333  1.0000
  C   C26       1.0  0.5176305207235928  0.5118383171331189  0.7728624111047042  1.0000
  C   C27       1.0  0.5217952093384284  0.5094266479313418  0.9188209777979001  1.0000
  C   C28       1.0  0.5729819581002857  0.5682589495049868  0.889146922681782  1.0000
  C   C29       1.0  0.5720978413092226  0.5692654940469095  0.8164074216540629  1.0000
  C   C30       1.0  0.47589104157547973  0.5288272635891573  0.12870188326985504  1.0000
  C   C31       1.0  0.4716014028011699  0.5314481585937116  0.20083191294652644  1.0000
  C   C32       1.0  0.4898759003095847  0.4641334885163814  0.09204257422052112  1.0000
  S   S1        1.0  0.6469127921259031  0.08108441172866782  0.3644889337700478  1.0000
  S   S2        1.0  0.21820389700349804  0.7377064543243889  0.5018956586585264  1.0000
  S   S3        1.0  0.46042657788314767  0.09413245188372343  0.626708243414548  1.0000
  S   S4        1.0  0.2076650476841593  0.9192543344633605  0.4610057730069955  1.0000
  S   S5        1.0  0.6367852983583546  0.6407464510716352  0.9482787377689167  1.0000
  S   S6        1.0  0.46645149149301796  0.32343840962824527  0.24432247580175218  1.0000
  S   S7        1.0  0.5256101515029599  0.3261242855766823  0.06820705356271622  1.0000
  N   N1        1.0  0.5297734276479602  0.512981543927367  0.993055806530919  1.0000
  N   N2        1.0  0.4872959014574789  0.4585796286741726  0.017996026433237895  1.0000
  N   N3        1.0  0.5396871826708605  0.019776060114601497  0.4807960363269431  1.0000
  N   N4        1.0  0.44384628723616965  0.9865912645080995  0.49581134079514316  1.0000
  O   O1        1.0  0.5070141480695014  0.5076836250087737  0.5054572905524992  1.0000
  O   O2        1.0  0.2205761189508735  0.5374415395215806  0.458260154095882  1.0000
  O   O3        1.0  0.7841463741610044  0.4652222085151579  0.4917024263632116  1.0000
  O   O4        1.0  0.2358074945607598  0.43943102736838574  0.5203635562474532  1.0000
  O   O5        1.0  0.7840041618976842  0.5738575117744417  0.5494693014651377  1.0000
  O   O6        1.0  0.7636889706372755  0.0570517693011894  0.39392502143336133  1.0000
  O   O7        1.0  0.5513711333499884  0.03465747122724849  0.326236345310008  1.0000
  O   O8        1.0  0.6829734853792006  0.1421492937340645  0.31524454784379696  1.0000
  O   O9        1.0  0.1613472325626759  0.7199766201369542  0.4308823048689022  1.0000
  O   O10       1.0  0.25865079586895234  0.6844017547801754  0.5471667533588447  1.0000
  O   O11       1.0  0.1263411169980557  0.7817537043689384  0.5457353327948766  1.0000
  O   O12       1.0  0.5551859073354423  0.6707751309101723  0.5602756705585394  1.0000
  O   O13       1.0  0.5424191802411117  0.03777683166690339  0.6374489857666676  1.0000
  O   O14       1.0  0.4576722887965873  0.152340364538901  0.6785234855146599  1.0000
  O   O15       1.0  0.3220559847380287  0.05881176657891268  0.6115074856479839  1.0000
  O   O16       1.0  0.16017113388603121  0.9542315601188776  0.5204555920168945  1.0000
  O   O17       1.0  0.237016921568312  0.9530145755578728  0.39969696012114053  1.0000
  O   O18       1.0  0.09882375284741576  0.8587360663224428  0.4350379705252936  1.0000
  O   O19       1.0  0.5364305951274274  0.6726659152082065  0.9803715958718799  1.0000
  O   O20       1.0  0.7482327449640279  0.6208083196485745  0.9887421798235255  1.0000
  O   O21       1.0  0.6804479179082747  0.6949649205763179  0.8927266944650685  1.0000
  O   O22       1.0  0.3696391655035002  0.28296012945121857  0.20085192606853045  1.0000
  O   O23       1.0  0.5497574342278994  0.349370286385799  0.4402293412655995  1.0000
  O   O24       1.0  0.5847863503391295  0.2944125337042394  0.2665787069463975  1.0000
  O   O25       1.0  0.40676281447581175  0.350319617920995  0.313705706444651  1.0000
  O   O26       1.0  0.4101703971372146  0.2989590507473565  0.031157300104979403  1.0000
  O   O27       1.0  0.6315781643226188  0.3473181573393375  0.03299746933258518  1.0000
  O   O28       1.0  0.5722609643964773  0.26743979380047017  0.11958498595256371  1.0000
  O   O29       1.0  0.40778988710667363  0.5195466476618833  0.3414427931250402  1.0000
  O   O30       1.0  0.4395557465325127  0.46705157287881605  0.6585398629107859  1.0000
  O   O31       1.0  0.5898701065305403  0.4621469428350479  0.3490292541939014  1.0000
  O   O32       1.0  0.5890689401222815  0.5561907413144311  0.6705699477285735  1.0000
  O   O33       1.0  0.4411706372235357  0.6568441103336156  0.45219767125198024  1.0000
  O   O34       1.0  0.47125258193251085  0.3466538688025338  0.5457691175691224  1.0000
