data_image0
_chemical_formula_structural       CoH24C18N8O4
_chemical_formula_sum              "Co1 H24 C18 N8 O4"
_cell_length_a       7.881753498886074
_cell_length_b       8.053079372427918
_cell_length_c       9.303548047711761
_cell_angle_alpha    95.81240458068893
_cell_angle_beta     112.3412222203304
_cell_angle_gamma    107.9323966345664

_space_group_name_H-M_alt    "P 1"
_space_group_IT_number       1

loop_
  _space_group_symop_operation_xyz
  'x, y, z'

loop_
  _atom_site_type_symbol
  _atom_site_label
  _atom_site_symmetry_multiplicity
  _atom_site_fract_x
  _atom_site_fract_y
  _atom_site_fract_z
  _atom_site_occupancy
  Co  Co1       1.0  1.3655308990037412e-06  0.9999999852457934  4.4045501109531113e-07  1.0000
  H   H1        1.0  0.229116569451179  0.5694641665846306  0.5130130648209601  1.0000
  H   H2        1.0  0.7708819669285277  0.43053634797986723  0.48698270239884067  1.0000
  H   H3        1.0  0.2019550806012802  0.61707185790425  0.3269370395219369  1.0000
  H   H4        1.0  0.7980438055439195  0.38293270961081294  0.673059326002793  1.0000
  H   H5        1.0  0.5550002598342303  0.7012204574137685  0.5035196096541837  1.0000
  H   H6        1.0  0.44500272290365234  0.2987840658386817  0.49647807723559356  1.0000
  H   H7        1.0  0.4767069466622901  0.5270099304009861  0.33370718389446796  1.0000
  H   H8        1.0  0.5232986890001713  0.47299439748599775  0.6662945660553203  1.0000
  H   H9        1.0  0.27247469931487706  0.8859109696858454  0.7439478311184614  1.0000
  H   H10       1.0  0.7275298213255895  0.1140842379486386  0.25604601166818225  1.0000
  H   H11       1.0  0.03664299447490293  0.2796960860598078  0.5483617035958659  1.0000
  H   H12       1.0  0.9633491297413529  0.7203055166270786  0.45163857190214424  1.0000
  H   H13       1.0  0.5415274016681338  0.7503846043723713  0.8210534133839855  1.0000
  H   H14       1.0  0.45847594693248084  0.24961433925279408  0.17894695155253967  1.0000
  H   H15       1.0  0.43235161492941643  0.23288151302071466  0.8133779306252648  1.0000
  H   H16       1.0  0.5676432713207477  0.7671071486288951  0.18660985718641135  1.0000
  H   H17       1.0  0.8394615328317699  0.3137373365386935  0.9580168127832278  1.0000
  H   H18       1.0  0.1605323351897994  0.6862618762229644  0.041977286818216386  1.0000
  H   H19       1.0  0.9149335861876295  0.9905937584623814  0.637304859637048  1.0000
  H   H20       1.0  0.08506877023013001  0.009415791560520909  0.3627007563725825  1.0000
  H   H21       1.0  0.2594028395286472  0.5492316424428836  0.7947625401915132  1.0000
  H   H22       1.0  0.7405930811431033  0.4507724570094496  0.20524249087313953  1.0000
  H   H23       1.0  0.2673667535401947  0.4081126564294024  0.0587604922806904  1.0000
  H   H24       1.0  0.7326298070857433  0.5918832670818972  0.9412448433457711  1.0000
  C   C1        1.0  0.5681982726898198  0.8925433521511863  0.8393419542072208  1.0000
  C   C2        1.0  0.4318039745228718  0.10744332205090502  0.1606587372478288  1.0000
  C   C3        1.0  0.5161027675739619  0.1463273359552559  0.8353164556450919  1.0000
  C   C4        1.0  0.48389561253131325  0.8536728468951438  0.16468567587467214  1.0000
  C   C5        1.0  0.7165971400185499  0.1849043662175589  0.9069783330144713  1.0000
  C   C6        1.0  0.2834058327708462  0.8150904691713591  0.09302249433378049  1.0000
  C   C7        1.0  0.011521259365224483  0.12226271962643406  0.7171159426241472  1.0000
  C   C8        1.0  0.9884711885707844  0.8777428807253429  0.2828859918954548  1.0000
  C   C9        1.0  0.19659545743586193  0.41278765028675934  0.8028812317496161  1.0000
  C   C10       1.0  0.8034155125846711  0.5872098587477125  0.19712142966367444  1.0000
  C   C11       1.0  0.1983684182369103  0.342937750043987  0.9321876789387387  1.0000
  C   C12       1.0  0.801647815489787  0.6570689455517426  0.06782208956941105  1.0000
  C   C13       1.0  0.10205040641530869  0.336817320238353  0.31381691028388997  1.0000
  C   C14       1.0  0.8979472865706767  0.6631779611671647  0.6861747302276837  1.0000
  C   C15       1.0  0.24725148030650962  0.5295249077824734  0.4048254670555379  1.0000
  C   C16       1.0  0.752742985526254  0.4704757063303262  0.5951679180825593  1.0000
  C   C17       1.0  0.4621139525670017  0.5577906283325759  0.4454947257603548  1.0000
  C   C18       1.0  0.5378793933173966  0.4422138323422616  0.554503060094298  1.0000
  N   N1        1.0  0.7471663854833468  0.024596265601694305  0.9095654114784323  1.0000
  N   N2        1.0  0.2528366890258198  0.975405274337227  0.0904373269430252  1.0000
  N   N3        1.0  0.4249792867887409  0.9615134440596408  0.7934437820759399  1.0000
  N   N4        1.0  0.5750161687636963  0.0384830470626909  0.2065505059289023  1.0000
  N   N5        1.0  0.08198417747917831  0.1607791279280093  0.8770015891102998  1.0000
  N   N6        1.0  0.9180166856421792  0.8392236770134148  0.12300273608776989  1.0000
  N   N7        1.0  0.07901237857420539  0.2716701334155828  0.6687120089272723  1.0000
  N   N8        1.0  0.9209938945792543  0.7283325019376503  0.331296199524175  1.0000
  O   O1        1.0  0.12787462690438645  0.25883182843995917  0.20412138939941826  1.0000
  O   O2        1.0  0.8721202544194  0.7411698000241955  0.7958787062919581  1.0000
  O   O3        1.0  0.9618952133105125  0.2675771046242019  0.3552758408029533  1.0000
  O   O4        1.0  0.03810845900984813  0.7324258366658539  0.6447261831551571  1.0000
