data_image0
_chemical_formula_structural       Pr2Fe4H50C72N4O16
_chemical_formula_sum              "Pr2 Fe4 H50 C72 N4 O16"
_cell_length_a       11.619752227110963
_cell_length_b       12.043917938722034
_cell_length_c       13.7012
_cell_angle_alpha    94.56997965253575
_cell_angle_beta     109.31265763844306
_cell_angle_gamma    117.50896040604404

_space_group_name_H-M_alt    "P 1"
_space_group_IT_number       1

loop_
  _space_group_symop_operation_xyz
  'x, y, z'

loop_
  _atom_site_type_symbol
  _atom_site_label
  _atom_site_symmetry_multiplicity
  _atom_site_fract_x
  _atom_site_fract_y
  _atom_site_fract_z
  _atom_site_occupancy
  Pr  Pr1       1.0  0.8005521743251408  0.3587687991464037  0.38350784726310383  1.0000
  Pr  Pr2       1.0  0.19944472929783072  0.6412315522437879  0.6164910899159465  1.0000
  Fe  Fe1       1.0  0.8494319776982238  0.7612401696565101  0.2503377782411533  1.0000
  Fe  Fe2       1.0  0.1505669452400085  0.23876213065320678  0.74965967222748  1.0000
  Fe  Fe3       1.0  0.7731624673742064  0.6555989869607544  0.7520491057035201  1.0000
  Fe  Fe4       1.0  0.22683534816791004  0.3444013644294373  0.24795081711405934  1.0000
  H   H1        1.0  0.521239197049951  0.3222840512328133  0.11604307590640421  1.0000
  H   H2        1.0  0.4787622661687295  0.6777163001573712  0.8839571401498674  1.0000
  H   H3        1.0  0.692342822085486  0.5919521476675769  0.34773707566897366  1.0000
  H   H4        1.0  0.30765665455080443  0.4080511271018993  0.6522620580775038  1.0000
  H   H5        1.0  0.607782924364848  0.7528296074588567  0.26440308405208407  1.0000
  H   H6        1.0  0.3922152493983475  0.2471697694715687  0.7355939515369413  1.0000
  H   H7        1.0  0.8435458087625848  0.9884266928081616  0.3130083793276625  1.0000
  H   H8        1.0  0.1564520067795243  0.011573658582023  0.6869871643114465  1.0000
  H   H9        1.0  0.07492387075154029  0.9745893642012078  0.4263400842718994  1.0000
  H   H10       1.0  0.9250741402675473  0.025412936108502003  0.5736571104212941  1.0000
  H   H11       1.0  0.6200387944342866  0.6370228605358008  0.044917779773619805  1.0000
  H   H12       1.0  0.37996175686525663  0.3629774908543908  0.955078531191816  1.0000
  H   H13       1.0  0.8367318095048192  0.881931883361723  0.08160528449320742  1.0000
  H   H14       1.0  0.163270565633006  0.1180684680284614  0.9183929977492651  1.0000
  H   H15       1.0  0.08536514624709922  0.8991700765347517  0.20039937719030826  1.0000
  H   H16       1.0  0.9146337439582624  0.1008273514761555  0.7995977228462293  1.0000
  H   H17       1.0  0.020486462794544018  0.6615967867900352  0.23811262105305528  1.0000
  H   H18       1.0  0.9795161078202598  0.3384055135196746  0.7618865823804198  1.0000
  H   H19       1.0  0.5760724645000579  0.3973924862354963  0.6271548932488002  1.0000
  H   H20       1.0  0.4239240809018271  0.6026088396144544  0.37284255198034083  1.0000
  H   H21       1.0  0.5675924324895902  0.4795277505751301  0.814017393801798  1.0000
  H   H22       1.0  0.43240372195834453  0.5204696774357771  0.1859833180868833  1.0000
  H   H23       1.0  0.8383344473329687  0.6310084948905796  0.9640614164112832  1.0000
  H   H24       1.0  0.1616642473954215  0.3689869842008022  0.0359384117496333  1.0000
  H   H25       1.0  0.016099158659450635  0.6452989472864203  0.8712564503177302  1.0000
  H   H26       1.0  0.9838971912654628  0.3547004296440051  0.12874226330963975  1.0000
  H   H27       1.0  0.5724320994970569  0.635427669906953  0.5592085426169575  1.0000
  H   H28       1.0  0.4275690055005441  0.3645736559429977  0.4407923710786291  1.0000
  H   H29       1.0  0.8470513031899004  0.7386775283490863  0.5842362487248351  1.0000
  H   H30       1.0  0.152949052632664  0.26132087412158  0.4157657098172933  1.0000
  H   H31       1.0  0.01956462221826881  0.8946778170362961  0.786987641300932  1.0000
  H   H32       1.0  0.9804366455234401  0.1053205854343702  0.2130145730166433  1.0000
  H   H33       1.0  0.8515912540377641  0.8872115063471143  0.8894571553800857  1.0000
  H   H34       1.0  0.1484081898656626  0.1127868961235592  0.11054381752352777  1.0000
  H   H35       1.0  0.8322618080151402  0.2290857452259445  0.172920541009688  1.0000
  H   H36       1.0  0.1677407298668001  0.7709116827849556  0.8270797717178552  1.0000
  H   H37       1.0  0.735103063623356  0.027844213212325997  0.025650354063287806  1.0000
  H   H38       1.0  0.2648983668624609  0.9721512658790559  0.9743509712870376  1.0000
  H   H39       1.0  0.5231775296056115  0.8210388673532877  0.011000703775408748  1.0000
  H   H40       1.0  0.4768217188208368  0.1789575861978605  0.9890022673895086  1.0000
  H   H41       1.0  0.2262186603533536  0.835852604640813  0.36120995258959704  1.0000
  H   H42       1.0  0.7737848221805876  0.1641496956688968  0.6387916962085568  1.0000
  H   H43       1.0  0.3378054781830074  0.0467467836572339  0.4961322989515152  1.0000
  H   H44       1.0  0.6621959850356802  0.9532535677329577  0.5038701066939879  1.0000
  H   H45       1.0  0.5613510864103759  0.23978628786206707  0.5029873056416889  1.0000
  H   H46       1.0  0.43865239612357243  0.7602160124476427  0.497015073019547  1.0000
  H   H47       1.0  0.3361256524919512  0.7042040653823136  0.07834575958610664  1.0000
  H   H48       1.0  0.6638752570286783  0.2957953115481118  0.9216578822338659  1.0000
  H   H49       1.0  0.22650382895669455  0.7093043877716667  0.20408559897349934  1.0000
  H   H50       1.0  0.7734965268658699  0.2906940146989996  0.7959170894317109  1.0000
  C   C1        1.0  0.005536731870094545  0.7169646159533016  0.4638250718448944  1.0000
  C   C2        1.0  0.9944631029872752  0.2830376843564082  0.5361740941253358  1.0000
  C   C3        1.0  0.9148563907540891  0.7673831639901891  0.4085447665816843  1.0000
  C   C4        1.0  0.08514289040522982  0.2326181618597616  0.5914534459737836  1.0000
  C   C5        1.0  0.7610224752611217  0.6941252280737444  0.3546917588112278  1.0000
  C   C6        1.0  0.23897625220013202  0.3058751233164472  0.6453047704664029  1.0000
  C   C7        1.0  0.7170141982074513  0.7789938520431292  0.3109934947194972  1.0000
  C   C8        1.0  0.2829845292538026  0.22100649934705532  0.6890030345581336  1.0000
  C   C9        1.0  0.8420810478116679  0.9037198291591082  0.33596437792544975  1.0000
  C   C10       1.0  0.1579178751265644  0.0962824711506016  0.6640316128170269  1.0000
  C   C11       1.0  0.9641901495611834  0.8970184693823455  0.3961959279290567  1.0000
  C   C12       1.0  0.03580857790007741  0.10298188200783899  0.6037991416224172  1.0000
  C   C13       1.0  0.7163630750907046  0.4705646696929692  0.14854373000667917  1.0000
  C   C14       1.0  0.28363548962644103  0.529438605076507  0.8514544181012764  1.0000
  C   C15       1.0  0.7944551190065852  0.6031866942527557  0.13968158185959814  1.0000
  C   C16       1.0  0.2055459859910158  0.396814631597195  0.8603171422467567  1.0000
  C   C17       1.0  0.7331351201148735  0.6751554199053231  0.08911191124980179  1.0000
  C   C18       1.0  0.2668647147424963  0.3248468804043867  0.9108857949942785  1.0000
  C   C19       1.0  0.8481102794319284  0.8036778922503629  0.10829656045437026  1.0000
  C   C20       1.0  0.15189027186761447  0.19632245913982163  0.8917012102372224  1.0000
  C   C21       1.0  0.9799507602275099  0.812331094928517  0.1707740029031157  1.0000
  C   C22       1.0  0.0200492373739749  0.1876682820019155  0.8292257338260212  1.0000
  C   C23       1.0  0.9471592935473084  0.6888972514556926  0.1910828532964217  1.0000
  C   C24       1.0  0.05283943391394532  0.3111030999344919  0.8089180551596797  1.0000
  C   C25       1.0  0.8724859947626059  0.5097106672139873  0.6404519439744191  1.0000
  C   C26       1.0  0.1275111043373371  0.4902916330957225  0.35954572480640923  1.0000
  C   C27       1.0  0.8148980428563777  0.5146131742718438  0.7216943725176677  1.0000
  C   C28       1.0  0.18509684145133323  0.48538522819882246  0.27830386178257527  1.0000
  C   C29       1.0  0.6671740568814286  0.4579532114654228  0.7034380780629376  1.0000
  C   C30       1.0  0.3328228467415428  0.5420471399247688  0.29656085911612  1.0000
  C   C31       1.0  0.6627356144624842  0.5003928829788009  0.8020381528647248  1.0000
  C   C32       1.0  0.33726200560265346  0.4996055194918654  0.1979615786249269  1.0000
  C   C33       1.0  0.8065694397606508  0.5818245873709529  0.8817680310494325  1.0000
  C   C34       1.0  0.19343055784083427  0.4181747895594725  0.11823097581663693  1.0000
  C   C35       1.0  0.9004500681601258  0.5910566191471673  0.8326836289407636  1.0000
  C   C36       1.0  0.0995479101260983  0.40894080886373974  0.16731540490956578  1.0000
  C   C37       1.0  0.5446860368099564  0.714290698368977  0.7563856232215966  1.0000
  C   C38       1.0  0.4553115832551811  0.2857077041016893  0.243613378404973  1.0000
  C   C39       1.0  0.6693940150788295  0.7540798393322916  0.7306765575992529  1.0000
  C   C40       1.0  0.33060764361682976  0.2459224609774182  0.2693245796480142  1.0000
  C   C41       1.0  0.6677294400108025  0.7049212677664514  0.6304524659300055  1.0000
  C   C42       1.0  0.33226928745045115  0.2950790836237402  0.3695484425260886  1.0000
  C   C43       1.0  0.8122440281125449  0.7597638631185148  0.6439465911444343  1.0000
  C   C44       1.0  0.187756523186998  0.24023648827167676  0.35605482886254686  1.0000
  C   C45       1.0  0.9038334058883422  0.8417578307927941  0.7520797063262489  1.0000
  C   C46       1.0  0.09616659171314271  0.1582415461376314  0.24792149012905174  1.0000
  C   C47       1.0  0.8164118413620971  0.8384894927542206  0.8061253181568659  1.0000
  C   C48       1.0  0.18358870993744597  0.1615108586359639  0.19387683171319026  1.0000
  C   C49       1.0  0.7388830242883913  0.1366884451426671  0.16199498605755017  1.0000
  C   C50       1.0  0.2611189598954837  0.8633080084084809  0.8380072927075445  1.0000
  C   C51       1.0  0.6855422833162095  0.0241549085569801  0.08133610848038594  1.0000
  C   C52       1.0  0.31446172018293345  0.9758434939136862  0.9186646835742776  1.0000
  C   C53       1.0  0.5679824941611571  0.9098676957915899  0.07286489350309468  1.0000
  C   C54       1.0  0.4320173079633492  0.0901297322193102  0.9271375713504281  1.0000
  C   C55       1.0  0.5039977124921365  0.9086769059635884  0.14451475090639584  1.0000
  C   C56       1.0  0.4960035552495726  0.0913214965070779  0.8554867335480978  1.0000
  C   C57       1.0  0.5656804142976384  0.027094853656080903  0.2239682788896218  1.0000
  C   C58       1.0  0.43432176536321526  0.9729035488145925  0.7760334613403188  1.0000
  C   C59       1.0  0.503149816072451  0.0297103036547455  0.29878580392698234  1.0000
  C   C60       1.0  0.4968499860520553  0.9702871243561618  0.7012152012003837  1.0000
  C   C61       1.0  0.3788429995688887  0.9145119710127716  0.28971518154092724  1.0000
  C   C62       1.0  0.6211590173478568  0.0854893548371791  0.7102881775193309  1.0000
  C   C63       1.0  0.31917052249684735  0.9220659830804578  0.3630169753445144  1.0000
  C   C64       1.0  0.6808320481179564  0.0779363172292591  0.6369866072674311  1.0000
  C   C65       1.0  0.3813522152295121  0.038799089846087  0.4384161705576445  1.0000
  C   C66       1.0  0.6186514627814078  0.9612051593831481  0.5615878591576686  1.0000
  C   C67       1.0  0.5056284786434588  0.1465918796942489  0.44257518574226395  1.0000
  C   C68       1.0  0.4943740919713449  0.853410420615468  0.5574262072804501  1.0000
  C   C69       1.0  0.3804960630601286  0.7942373260852875  0.13904916345163798  1.0000
  C   C70       1.0  0.619506116600725  0.2057610763853859  0.8609525767783024  1.0000
  C   C71       1.0  0.3200001648022948  0.7972367132298074  0.20867207914887584  1.0000
  C   C72       1.0  0.680000386497241  0.2027636381603841  0.791330800584255  1.0000
  N   N1        1.0  0.6814435830856596  0.1386393135842923  0.23123979876849177  1.0000
  N   N2        1.0  0.31855859657519403  0.8613590888863741  0.7687612115983739  1.0000
  N   N3        1.0  0.5654029576275192  0.1428187714994493  0.37550497838200403  1.0000
  N   N4        1.0  0.4345972354509443  0.8571825543505014  0.6244971392642924  1.0000
  O   O1        1.0  0.950663048251954  0.5932520769888185  0.44637813512176183  1.0000
  O   O2        1.0  0.049338414966733524  0.406748274401366  0.5536220809345096  1.0000
  O   O3        1.0  0.13451161769670256  0.7965039194894956  0.5293191407739712  1.0000
  O   O4        1.0  0.8654852859262692  0.203496431900696  0.47067906654200437  1.0000
  O   O5        1.0  0.7782177975165325  0.425061296690835  0.20999066347953732  1.0000
  O   O6        1.0  0.22178145090991563  0.574935156860306  0.790011577822305  1.0000
  O   O7        1.0  0.5787678761175954  0.4053138696330976  0.08707663410632448  1.0000
  O   O8        1.0  0.42123231696086094  0.5946874562168531  0.9129240238138222  1.0000
  O   O9        1.0  0.7896409703313341  0.4159286598102483  0.553892983316949  1.0000
  O   O10       1.0  0.21035664973380372  0.584069742660418  0.44610674817269563  1.0000
  O   O11       1.0  0.9997621820161413  0.5992440300595376  0.6635842146579022  1.0000
  O   O12       1.0  0.00023126940723021264  0.4007582702501722  0.3364131608842342  1.0000
  O   O13       1.0  0.5700620398850021  0.7682650500739356  0.8518803764106547  1.0000
  O   O14       1.0  0.42993776223951136  0.2317323779369644  0.14812135857979308  1.0000
  O   O15       1.0  0.420745030751533  0.6295789624211139  0.6847513054641395  1.0000
  O   O16       1.0  0.5792560742460608  0.3704223634288368  0.3152488783683721  1.0000
