data_image0
_chemical_formula_structural       Zn16H24C96S16N8O52F16
_chemical_formula_sum              "Zn16 H24 C96 S16 N8 O52 F16"
_cell_length_a       19.679986648772623
_cell_length_b       19.750715873470323
_cell_length_c       33.39114245876708
_cell_angle_alpha    78.89717025484542
_cell_angle_beta     79.10120645192504
_cell_angle_gamma    63.891542762082906

_space_group_name_H-M_alt    "P 1"
_space_group_IT_number       1

loop_
  _space_group_symop_operation_xyz
  'x, y, z'

loop_
  _atom_site_type_symbol
  _atom_site_label
  _atom_site_symmetry_multiplicity
  _atom_site_fract_x
  _atom_site_fract_y
  _atom_site_fract_z
  _atom_site_occupancy
  Zn  Zn1       1.0  0.05384932014279541  0.4010679651809924  0.47758276824490753  1.0000
  Zn  Zn2       1.0  0.9857435617651831  0.48402513763590366  0.5607341366650259  1.0000
  Zn  Zn3       1.0  0.05938505279572579  0.5599039284787395  0.4830004993831947  1.0000
  Zn  Zn4       1.0  0.9014901831160174  0.5538478055495375  0.47929343030735766  1.0000
  Zn  Zn5       1.0  0.695675863273408  0.348599093975558  0.2726008059312406  1.0000
  Zn  Zn6       1.0  0.6896826363774479  0.1889475830292184  0.2654695986159439  1.0000
  Zn  Zn7       1.0  0.7669879288351352  0.266742257145623  0.19023149478581294  1.0000
  Zn  Zn8       1.0  0.8472176903108847  0.19529606394041815  0.27194545624534777  1.0000
  Zn  Zn9       1.0  0.26513240487828693  0.7650756945610979  0.6893641593716423  1.0000
  Zn  Zn10      1.0  0.34917891469189744  0.6976884797603023  0.772151274097936  1.0000
  Zn  Zn11      1.0  0.1945045480466163  0.8482338321042634  0.7711218042326207  1.0000
  Zn  Zn12      1.0  0.19147038668411653  0.6891839890605383  0.7670772583363712  1.0000
  Zn  Zn13      1.0  0.5594726001480125  0.06177744058786772  0.9845364086599342  1.0000
  Zn  Zn14      1.0  0.40169321124762547  0.05310902289075159  0.9767343371005522  1.0000
  Zn  Zn15      1.0  0.555891243216138  0.9023320302637288  0.9786085418911838  1.0000
  Zn  Zn16      1.0  0.481833599734557  0.9844005003824778  0.059696933869815866  1.0000
  H   H1        1.0  0.7505985613881452  0.4491703418188068  0.34796338542152927  1.0000
  H   H2        1.0  0.00038536395352650017  0.3030804367166128  0.40030657622876475  1.0000
  H   H3        1.0  0.19908456157404691  0.7018462120949778  0.6019622354584938  1.0000
  H   H4        1.0  0.0477221704872903  0.5513622115221964  0.648092166692436  1.0000
  H   H5        1.0  0.6497537135195658  0.14665141792678335  0.049385215084946275  1.0000
  H   H6        1.0  0.6043210138503526  0.0992729120173905  0.20057083946910834  1.0000
  H   H7        1.0  0.3023771914756921  0.9980385907951189  0.9021347385931118  1.0000
  H   H8        1.0  0.4463820838171202  0.749587042319277  0.8496827694511707  1.0000
  H   H9        1.0  0.7915109606158454  0.5407131930234428  0.4184366710091609  1.0000
  H   H10       1.0  0.7246039747818713  0.5443316105948028  0.3897376968405266  1.0000
  H   H11       1.0  0.9556689454964342  0.20742113655016683  0.3338814602094045  1.0000
  H   H12       1.0  0.0191037928986901  0.2007845501481285  0.36584711468745457  1.0000
  H   H13       1.0  0.14816600205058714  0.6432945587123342  0.5200738570935497  1.0000
  H   H14       1.0  0.19949801002822198  0.6867992563735399  0.5330467081926142  1.0000
  H   H15       1.0  0.10643788042332149  0.6021541535020846  0.7300402185729948  1.0000
  H   H16       1.0  0.0620766227799976  0.5514855648378473  0.7171004731033293  1.0000
  H   H17       1.0  0.7270680629561569  0.23232615130388024  0.10444798712409654  1.0000
  H   H18       1.0  0.7104809935347802  0.22327320786642002  0.05688726830683068  1.0000
  H   H19       1.0  0.51770866513138  0.022760752770587117  0.1454824833565596  1.0000
  H   H20       1.0  0.527476030550261  0.03859376129882726  0.1931194421891504  1.0000
  H   H21       1.0  0.20880540489336846  0.9593925773876744  0.8316215222117762  1.0000
  H   H22       1.0  0.20645665663572996  0.025502622515539017  0.8601610494240928  1.0000
  H   H23       1.0  0.5441861737486775  0.792780909572208  0.9158329977863102  1.0000
  H   H24       1.0  0.55014217073888  0.7300884918515679  0.883877918098484  1.0000
  C   C1        1.0  0.061835325016460316  0.316887511711009  0.5614050641088326  1.0000
  C   C2        1.0  0.0710709483774394  0.5717539559744651  0.5682711376971241  1.0000
  C   C3        1.0  0.18325097756909514  0.4390767948299087  0.43859342505915305  1.0000
  C   C4        1.0  0.936971943303142  0.6831169520624629  0.43879624457697725  1.0000
  C   C5        1.0  0.9280495007033168  0.4322907420109418  0.43018280431719075  1.0000
  C   C6        1.0  0.817650020240727  0.5602569469836709  0.5624506404079738  1.0000
  C   C7        1.0  0.5667271499679887  0.3099631593119839  0.31101028633673866  1.0000
  C   C8        1.0  0.6826049751572684  0.18047574950312403  0.17882068221007325  1.0000
  C   C9        1.0  0.6891078723611487  0.43329563512916996  0.18866276339956295  1.0000
  C   C10       1.0  0.934046926160036  0.1885288960903965  0.18943753983166534  1.0000
  C   C11       1.0  0.821569257983711  0.31842290607531953  0.31956993611474616  1.0000
  C   C12       1.0  0.8108959285600223  0.06643904095520971  0.31141770148614256  1.0000
  C   C13       1.0  0.4326841987294899  0.6898764793747675  0.6883632860007223  1.0000
  C   C14       1.0  0.3165982488194673  0.823085550270086  0.819767271478838  1.0000
  C   C15       1.0  0.18822834539678723  0.9326726542373719  0.6879689251455117  1.0000
  C   C16       1.0  0.06644542367789089  0.809870526248318  0.8111763199377007  1.0000
  C   C17       1.0  0.17860757456416818  0.6785191984094894  0.6817889843767232  1.0000
  C   C18       1.0  0.3142436004025697  0.5669403102486683  0.8114686965359608  1.0000
  C   C19       1.0  0.43784887955340684  0.1832373774399869  0.9385233611312741  1.0000
  C   C20       1.0  0.4338573449974916  0.9264284310362286  0.9302226072907444  1.0000
  C   C21       1.0  0.6837400536339401  0.9412636433269482  0.9392888689613271  1.0000
  C   C22       1.0  0.5606508779187961  0.8174290606211869  0.06187967091730677  1.0000
  C   C23       1.0  0.5681452744057937  0.06876552430973251  0.07113600798720648  1.0000
  C   C24       1.0  0.31508428347211037  0.061552829814019105  0.0598076544446968  1.0000
  C   C25       1.0  0.8990825091749173  0.40615827829438444  0.4011727371859236  1.0000
  C   C26       1.0  0.8518232918809546  0.34600553831782604  0.34719608034398414  1.0000
  C   C27       1.0  0.8267438938460359  0.45045793879265983  0.38616403027647545  1.0000
  C   C28       1.0  0.9249997113352465  0.3025293109032531  0.3613666241157673  1.0000
  C   C29       1.0  0.8055984984003005  0.41775025078444367  0.3597680053878349  1.0000
  C   C30       1.0  0.9454802278173488  0.33461817747505074  0.3884142487057858  1.0000
  C   C31       1.0  0.0984085754272215  0.6017686553900743  0.5961437320761575  1.0000
  C   C32       1.0  0.148488269896923  0.6513304738434869  0.6539140884730158  1.0000
  C   C33       1.0  0.14128625982503001  0.646130653217007  0.5816922606916817  1.0000
  C   C34       1.0  0.10387989932917209  0.6087083491526999  0.6683657164722516  1.0000
  C   C35       1.0  0.1654888227841838  0.6687099797136327  0.6115954262230474  1.0000
  C   C36       1.0  0.0810601781286593  0.5847420881874754  0.6384602085109633  1.0000
  C   C37       1.0  0.3045529672173686  0.45219099523873035  0.4005648276767104  1.0000
  C   C38       1.0  0.4457007343978888  0.29640130287691585  0.3493684188904069  1.0000
  C   C39       1.0  0.25816812834545294  0.4139385461814841  0.4138907849447548  1.0000
  C   C40       1.0  0.4919759594896505  0.3347451101888481  0.3359329252205682  1.0000
  C   C41       1.0  0.37725622456961355  0.33861502391102505  0.372955012785077  1.0000
  C   C42       1.0  0.373017309209466  0.4099396682883453  0.37701854751562536  1.0000
  C   C43       1.0  0.7251912903511483  0.5760675480028894  0.6296394810265724  1.0000
  C   C44       1.0  0.5252213946385994  0.673225471824665  0.6212334881896024  1.0000
  C   C45       1.0  0.7428800519675463  0.584892232547418  0.5872773479318525  1.0000
  C   C46       1.0  0.5075574272673437  0.6645552414506073  0.6636031901015257  1.0000
  C   C47       1.0  0.6043547475802741  0.6410955512584025  0.6085006656207311  1.0000
  C   C48       1.0  0.6460452073486849  0.6079300915084217  0.6423809340917755  1.0000
  C   C49       1.0  0.07749628382340751  0.22436353079794463  0.6285962011332413  1.0000
  C   C50       1.0  0.1736081427291936  0.024917339352256835  0.6206948530832646  1.0000
  C   C51       1.0  0.08673119635416532  0.2420877325037624  0.5862282673215231  1.0000
  C   C52       1.0  0.1641333450453715  0.0073211871330087904  0.6630580212221273  1.0000
  C   C53       1.0  0.14226408199391466  0.10387488080679932  0.6077489550549371  1.0000
  C   C54       1.0  0.10895384913246892  0.1454205835605862  0.6414844241710469  1.0000
  C   C55       1.0  0.8437458074492028  0.8010687912144194  0.39749649466642717  1.0000
  C   C56       1.0  0.903775637775297  0.9486611150907012  0.3529275364871082  1.0000
  C   C57       1.0  0.9120417202001648  0.7577904754141896  0.4139220811987343  1.0000
  C   C58       1.0  0.8355349246542048  0.991825273384471  0.336404580083254  1.0000
  C   C59       1.0  0.9075644793214012  0.87887986869481  0.3751227010601211  1.0000
  C   C60       1.0  0.8402047582606046  0.8705967094869251  0.3750713382672401  1.0000
  C   C61       1.0  0.6559518602868052  0.15155339238302207  0.15003742171051465  1.0000
  C   C62       1.0  0.597776259262723  0.0946775868451226  0.09990882529133668  1.0000
  C   C63       1.0  0.6709316246897715  0.16558639240491851  0.10633567968566378  1.0000
  C   C64       1.0  0.5843389910574786  0.07910544332344928  0.14360850069120798  1.0000
  C   C65       1.0  0.6403304605912226  0.13664129574559075  0.08280785732492286  1.0000
  C   C66       1.0  0.6138903097788457  0.10911237079242408  0.16714150105831038  1.0000
  C   C67       1.0  0.6733572243550441  0.5257167617899157  0.12143968410745738  1.0000
  C   C68       1.0  0.5757668805246539  0.725125035603604  0.1291484113421433  1.0000
  C   C69       1.0  0.6638431285927667  0.5080951318235377  0.16381561874042205  1.0000
  C   C70       1.0  0.5854643188699171  0.7427370514750463  0.08677635521095786  1.0000
  C   C71       1.0  0.6076903260981297  0.6462265076026699  0.14213771274093284  1.0000
  C   C72       1.0  0.6416410302059602  0.6046230657581829  0.10844884977474577  1.0000
  C   C73       1.0  0.08085395182521891  0.124425639475767  0.17672118080828614  1.0000
  C   C74       1.0  0.16821769951718576  0.12622470423426083  0.07250754980624659  1.0000
  C   C75       1.0  0.0085194780743265  0.16378915458971482  0.16436932280262076  1.0000
  C   C76       1.0  0.24053975028967767  0.086848601403517  0.08483698640937118  1.0000
  C   C77       1.0  0.1095600085598747  0.14043679932640882  0.10572705082424248  1.0000
  C   C78       1.0  0.13949966214830312  0.11058997908642713  0.14351009676425966  1.0000
  C   C79       1.0  0.34343983028875874  0.8511078274949496  0.8489054595902272  1.0000
  C   C80       1.0  0.4054308216916879  0.8966610998063728  0.9027640800649973  1.0000
  C   C81       1.0  0.29972491978091403  0.923008670317522  0.8639697850517862  1.0000
  C   C82       1.0  0.44824911460897  0.8238605546737144  0.8886120014747189  1.0000
  C   C83       1.0  0.33329760580216566  0.9433273511379883  0.8903250630404567  1.0000
  C   C84       1.0  0.41532700072868783  0.8041664743981161  0.8616219170058553  1.0000
  C   C85       1.0  0.40714269235591155  0.4483178443428599  0.8527885282372549  1.0000
  C   C86       1.0  0.3454813730739943  0.301619171144914  0.8969056416948504  1.0000
  C   C87       1.0  0.33918360592894464  0.49199939627847306  0.8361199351425765  1.0000
  C   C88       1.0  0.41341282409014474  0.25797984964896875  0.9136381834294838  1.0000
  C   C89       1.0  0.34260558657248197  0.3710419072801515  0.8746149673977185  1.0000
  C   C90       1.0  0.4101540595745945  0.3787527089268038  0.8749672121556741  1.0000
  C   C91       1.0  0.9451588362216511  0.7972321330680573  0.8497959393441902  1.0000
  C   C92       1.0  0.8046727700980227  0.9543561710318544  0.9002968365237433  1.0000
  C   C93       1.0  0.991668913998943  0.8352220856638658  0.8359781993891173  1.0000
  C   C94       1.0  0.7581859542114203  0.9163712167267026  0.9141345573854307  1.0000
  C   C95       1.0  0.8729198357426071  0.9115518881483311  0.876757138262718  1.0000
  C   C96       1.0  0.87679430200928  0.8401490295084532  0.8731868821692073  1.0000
  S   S1        1.0  0.2986263025461895  0.32425255263825653  0.3975117960510061  1.0000
  S   S2        1.0  0.451512562601522  0.4244034848146824  0.3523487630289423  1.0000
  S   S3        1.0  0.661414265765096  0.633006651778672  0.5621523940027585  1.0000
  S   S4        1.0  0.5889991126411899  0.6161901737486488  0.6887256891764081  1.0000
  S   S5        1.0  0.13487403322422153  0.1609356342111496  0.5613136452289067  1.0000
  S   S6        1.0  0.1161482923083383  0.08851237973608764  0.6879404015381424  1.0000
  S   S7        1.0  0.9736627760272255  0.8025857444452814  0.4019414690591176  1.0000
  S   S8        1.0  0.7742085958445133  0.9467385891748351  0.3481054684136493  1.0000
  S   S9        1.0  0.6150583198186653  0.589332639548424  0.1886178620169899  1.0000
  S   S10       1.0  0.6345730820084723  0.6615193824889474  0.06197353424175133  1.0000
  S   S11       1.0  0.011569269577449902  0.18464055699494966  0.11109632328667367  1.0000
  S   S12       1.0  0.23748173507730294  0.06648575640976163  0.13813471255467386  1.0000
  S   S13       1.0  0.27718981212646543  0.4476234812000611  0.847578345107088  1.0000
  S   S14       1.0  0.47547183700773143  0.30227034479457865  0.9021317614772854  1.0000
  S   S15       1.0  0.9515477813408282  0.9253868381745183  0.8517264004222297  1.0000
  S   S16       1.0  0.7981151544583441  0.8263662327578204  0.8981857067095047  1.0000
  N   N1        1.0  0.7794745075647357  0.5228394305174293  0.39526143984145523  1.0000
  N   N2        1.0  0.9757066698309983  0.23351241127652864  0.3489392083298312  1.0000
  N   N3        1.0  0.1573214524786408  0.6689015399544476  0.5407771716722178  1.0000
  N   N4        1.0  0.08113477925454052  0.5927132559776072  0.7092386589872317  1.0000
  N   N5        1.0  0.7149868899157  0.2032626608518555  0.08696832455733267  1.0000
  N   N6        1.0  0.5466572453128863  0.03514351324162131  0.16294886968989886  1.0000
  N   N7        1.0  0.22709109880627662  0.9708237231366966  0.8548718248128534  1.0000
  N   N8        1.0  0.5175851821543844  0.7727695373098982  0.9010713173225608  1.0000
  O   O1        1.0  0.0005995440608757013  0.49880339377244803  0.5002037069685981  1.0000
  O   O2        1.0  0.07756540861030459  0.31595805911995717  0.5224308921752011  1.0000
  O   O3        1.0  0.034083138216829005  0.5318208699464934  0.5845574477044265  1.0000
  O   O4        1.0  0.15623509664115431  0.5047162020671507  0.4502484731788598  1.0000
  O   O5        1.0  0.027382245054532496  0.37486204295481673  0.5807092565788352  1.0000
  O   O6        1.0  0.15243061540120814  0.3921142451892123  0.44594956785824985  1.0000
  O   O7        1.0  0.08618530553575  0.587224782550166  0.5292147781594351  1.0000
  O   O8        1.0  0.004509268701710301  0.6557347814572624  0.4489669700722486  1.0000
  O   O9        1.0  0.8851964653045529  0.4975003558816694  0.4426617622476953  1.0000
  O   O10       1.0  0.8898999623136135  0.6527191589211938  0.44794401441404097  1.0000
  O   O11       1.0  0.9939423930617651  0.38862788153300454  0.44139366781643447  1.0000
  O   O12       1.0  0.8764167226597337  0.5271269914943841  0.5814837213102564  1.0000
  O   O13       1.0  0.8159043876261692  0.5750805178081893  0.523457282401999  1.0000
  O   O14       1.0  0.7487917005092158  0.2505718850472931  0.250280492173104  1.0000
  O   O15       1.0  0.5968005758122601  0.35760202976382516  0.30351154771987143  1.0000
  O   O16       1.0  0.6660287073002281  0.1645254949630582  0.21739036155308603  1.0000
  O   O17       1.0  0.7239068173758412  0.37541904636837137  0.16925477752771195  1.0000
  O   O18       1.0  0.5941677997025607  0.2443190022815003  0.2993556846803783  1.0000
  O   O19       1.0  0.6734750912943639  0.43387730381852657  0.22764004671450516  1.0000
  O   O20       1.0  0.7207623336529069  0.22023752362123625  0.16349848295677558  1.0000
  O   O21       1.0  0.8761931363734377  0.22544131147396484  0.16946747003104423  1.0000
  O   O22       1.0  0.8635852742236737  0.2523009532689286  0.30805773122181535  1.0000
  O   O23       1.0  0.9336019058569677  0.17128369087951262  0.22823829058081907  1.0000
  O   O24       1.0  0.7552725275283195  0.3616245306461822  0.308728952979905  1.0000
  O   O25       1.0  0.7452301667770698  0.09235929764649603  0.2990836126887259  1.0000
  O   O26       1.0  0.8568009165858683  0.09813364666988635  0.30440214682786143  1.0000
  O   O27       1.0  0.2504924892943521  0.7500293416939954  0.7498958527539654  1.0000
  O   O28       1.0  0.3743405940514251  0.724175328867176  0.6690088769692009  1.0000
  O   O29       1.0  0.3608193695209181  0.7581924937938708  0.8079570485871768  1.0000
  O   O30       1.0  0.17262965639752545  0.9340899219071659  0.7269368478484848  1.0000
  O   O31       1.0  0.4339414342667424  0.674572504444093  0.7273589767636321  1.0000
  O   O32       1.0  0.22173118322387356  0.874319721364209  0.6689468642761226  1.0000
  O   O33       1.0  0.250485582202387  0.8655605133938377  0.8078175912143164  1.0000
  O   O34       1.0  0.0956250044523514  0.8582856996514395  0.8022928981181604  1.0000
  O   O35       1.0  0.16386843044801944  0.6626747516278969  0.7208456299220811  1.0000
  O   O36       1.0  0.09517508061949802  0.7430386339987293  0.800916163914671  1.0000
  O   O37       1.0  0.21793547499498087  0.716163433599874  0.6655262699856691  1.0000
  O   O38       1.0  0.3596162523060472  0.5992307564421252  0.804056767408255  1.0000
  O   O39       1.0  0.2479641114308961  0.5925479983181248  0.7998407000602795  1.0000
  O   O40       1.0  0.49980445158215053  0.0007018552873318943  0.9996454059334492  1.0000
  O   O41       1.0  0.5039980168807147  0.15713627952733603  0.9503357051620114  1.0000
  O   O42       1.0  0.39079115949690657  0.9925619998830941  0.9407339531587622  1.0000
  O   O43       1.0  0.6537465047435732  0.8935208468937146  0.9467855590422187  1.0000
  O   O44       1.0  0.3917125474579207  0.15181313031168034  0.945929664519184  1.0000
  O   O45       1.0  0.6562865146403709  0.006642157692219488  0.9512296887956921  1.0000
  O   O46       1.0  0.5002881008799634  0.8844216698839064  0.9418897322551415  1.0000
  O   O47       1.0  0.5793401471547243  0.8165405629571224  0.023019705505568297  1.0000
  O   O48       1.0  0.5284973865861814  0.030469280519120942  0.08644894211258959  1.0000
  O   O49       1.0  0.5231929089187729  0.8755684192589683  0.08087829096562867  1.0000
  O   O50       1.0  0.5833238919894655  0.08610011130566878  0.03257086729887247  1.0000
  O   O51       1.0  0.31581151758287973  0.07497942639133734  0.020909241970258594  1.0000
  O   O52       1.0  0.3727156471155979  0.027779101421316524  0.08014282592986889  1.0000
  F   F1        1.0  0.28766315490356226  0.5223043670219027  0.4086307143352101  1.0000
  F   F2        1.0  0.46273282366765056  0.22626737457598267  0.3413291513055795  1.0000
  F   F3        1.0  0.7768298200788878  0.5410433541704194  0.6564964584050939  1.0000
  F   F4        1.0  0.4736710560046263  0.7084241986618736  0.594324662290603  1.0000
  F   F5        1.0  0.04236264201200869  0.2756421033597931  0.6553948552829637  1.0000
  F   F6        1.0  0.20879367888979772  0.9734526511323764  0.5940133145522778  1.0000
  F   F7        1.0  0.7859870031399866  0.7803743546848025  0.40191185005733837  1.0000
  F   F8        1.0  0.9614408422084965  0.9694653714119853  0.3486776958669537  1.0000
  F   F9        1.0  0.7089577009578605  0.4743058362329861  0.0947099352858203  1.0000
  F   F10       1.0  0.5400913629777477  0.7765605571433412  0.15583719559247558  1.0000
  F   F11       1.0  0.09539399600316761  0.1011928812134713  0.21594754986059425  1.0000
  F   F12       1.0  0.153772385861366  0.14934901123217514  0.03326783190118477  1.0000
  F   F13       1.0  0.4651051576899691  0.46862273824817186  0.8487248020862237  1.0000
  F   F14       1.0  0.28742234612424516  0.28145210685043764  0.9010036436390009  1.0000
  F   F15       1.0  0.9618564164687627  0.7269049213077992  0.8422075389014052  1.0000
  F   F16       1.0  0.7879815467164449  0.024618140177565855  0.9079718205026449  1.0000
