data_image0
_chemical_formula_structural       Co6H60C84N24
_chemical_formula_sum              "Co6 H60 C84 N24"
_cell_length_a       14.113264995030935
_cell_length_b       14.113414531707088
_cell_length_c       14.11261141506804
_cell_angle_alpha    107.14395682517338
_cell_angle_beta     107.14218206060596
_cell_angle_gamma    107.14459636861218

_space_group_name_H-M_alt    "P 1"
_space_group_IT_number       1

loop_
  _space_group_symop_operation_xyz
  'x, y, z'

loop_
  _atom_site_type_symbol
  _atom_site_label
  _atom_site_symmetry_multiplicity
  _atom_site_fract_x
  _atom_site_fract_y
  _atom_site_fract_z
  _atom_site_occupancy
  Co  Co1       1.0  0.7278390310885925  0.988162053171301  0.26062477974458875  1.0000
  Co  Co2       1.0  0.2606156813285168  0.7278150796542278  0.9881649092093239  1.0000
  Co  Co3       1.0  0.988165260304612  0.2606031805937405  0.727816920886411  1.0000
  Co  Co4       1.0  0.2721633932491585  0.011838277585340498  0.7393727910636088  1.0000
  Co  Co5       1.0  0.7393867394793503  0.27218376220564977  0.011835762876366129  1.0000
  Co  Co6       1.0  0.0118363493659999  0.7393968086382826  0.272179599189215  1.0000
  H   H1        1.0  0.49558410647774315  0.9105069556222745  0.08476050966625341  1.0000
  H   H2        1.0  0.08474783668155791  0.49550870739394537  0.9104645300658092  1.0000
  H   H3        1.0  0.9104885608056038  0.08476954452922324  0.49556341284619515  1.0000
  H   H4        1.0  0.504424031323893  0.08949577653784498  0.915239462524873  1.0000
  H   H5        1.0  0.9152529584240412  0.5044887123338883  0.08953311432090055  1.0000
  H   H6        1.0  0.08952204731336622  0.9152320102865658  0.5044298560624795  1.0000
  H   H7        1.0  0.6931652355189329  0.8083656812935869  0.3705651996354931  1.0000
  H   H8        1.0  0.37053207578421876  0.6931331481192016  0.8083504419327949  1.0000
  H   H9        1.0  0.8083532768672085  0.3705605182600846  0.6931605833814413  1.0000
  H   H10       1.0  0.30683717031496366  0.1916346310667834  0.6294408633071952  1.0000
  H   H11       1.0  0.6294638219644996  0.30686444124235385  0.19164296908202522  1.0000
  H   H12       1.0  0.19165159849433883  0.6294334171149387  0.30684432316593296  1.0000
  H   H13       1.0  0.5901350006361668  0.6407054690861571  0.3854391207460564  1.0000
  H   H14       1.0  0.3854102950037089  0.5901084182823837  0.6406929266698355  1.0000
  H   H15       1.0  0.6407068962344483  0.38544918771640363  0.5901418129144813  1.0000
  H   H16       1.0  0.4098543285834495  0.3592960214274257  0.6145627126469789  1.0000
  H   H17       1.0  0.614586390891965  0.4098961704811187  0.3593070404704191  1.0000
  H   H18       1.0  0.3592971343077665  0.6145518030941377  0.40986847452698777  1.0000
  H   H19       1.0  0.75468133784873  0.2117002106970601  0.22370132403566595  1.0000
  H   H20       1.0  0.22365049479986251  0.7546664191673784  0.2117077284915965  1.0000
  H   H21       1.0  0.21170059435831942  0.2236833008887871  0.7546817079833871  1.0000
  H   H22       1.0  0.2453194499928415  0.7882986871963804  0.7762981728186771  1.0000
  H   H23       1.0  0.776351101336637  0.2453372700777337  0.7882912997194893  1.0000
  H   H24       1.0  0.7882969233706163  0.7763171903034374  0.2453158755201698  1.0000
  H   H25       1.0  0.65523941803702  0.8120291145211951  0.028316201358343566  1.0000
  H   H26       1.0  0.0283274405987086  0.6552281696085342  0.8120184579999687  1.0000
  H   H27       1.0  0.812014752958035  0.028310183567434435  0.6552251349364652  1.0000
  H   H28       1.0  0.3447679043077941  0.18796807647329675  0.9716882669873568  1.0000
  H   H29       1.0  0.9716758208484392  0.3447650980474746  0.18797727030351283  1.0000
  H   H30       1.0  0.1879852202164045  0.9716883728013882  0.3447733111853068  1.0000
  H   H31       1.0  0.6172234805669348  0.7361734024443436  0.8308007327603872  1.0000
  H   H32       1.0  0.830826445601943  0.6172306789066012  0.7361809245615091  1.0000
  H   H33       1.0  0.7361712524619008  0.8308118866357503  0.6172193472068271  1.0000
  H   H34       1.0  0.38277567958447634  0.2638225859533136  0.1691981299945979  1.0000
  H   H35       1.0  0.16917518352907732  0.3827596746545581  0.2638162926762249  1.0000
  H   H36       1.0  0.2638254455280276  0.1691867726020746  0.3827809945195071  1.0000
  H   H37       1.0  0.6795982247032981  0.05326676571817053  0.8260857687575153  1.0000
  H   H38       1.0  0.8260639004670624  0.6795720469673229  0.05325273099720824  1.0000
  H   H39       1.0  0.053278556340629314  0.8260957553102272  0.6796020611271486  1.0000
  H   H40       1.0  0.320400116600922  0.9467303623865178  0.17391248037677096  1.0000
  H   H41       1.0  0.17394018709130427  0.3204186028160478  0.9467417584593318  1.0000
  H   H42       1.0  0.9467246661483061  0.1739063859385013  0.3204026589485095  1.0000
  H   H43       1.0  0.6320360166285326  0.8556677690145091  0.732696555976318  1.0000
  H   H44       1.0  0.7326998053402035  0.6320297845661781  0.8556511497378094  1.0000
  H   H45       1.0  0.8556769557202202  0.7327239956893125  0.6320367703198925  1.0000
  H   H46       1.0  0.36796150593062293  0.1443282708176454  0.2673032545809519  1.0000
  H   H47       1.0  0.2673067131313829  0.3679670756348514  0.14434731413018645  1.0000
  H   H48       1.0  0.1443254484695586  0.2672785431176051  0.36796782525700417  1.0000
  H   H49       1.0  0.2923558103814656  0.5766822897045216  0.12478886814441376  1.0000
  H   H50       1.0  0.12478886033530762  0.2923293669050508  0.5766408695786608  1.0000
  H   H51       1.0  0.5766661377262352  0.12479024905443477  0.29236949847040705  1.0000
  H   H52       1.0  0.7076334703216247  0.42333474914234864  0.8752196779570481  1.0000
  H   H53       1.0  0.875203744208335  0.7076801905089597  0.4233508571570681  1.0000
  H   H54       1.0  0.42334197047124883  0.8752191379169716  0.7076373944693231  1.0000
  H   H55       1.0  0.3945913451411158  0.5274819010677589  0.26508734697692654  1.0000
  H   H56       1.0  0.2650842484898702  0.3945771921158893  0.5274498263500503  1.0000
  H   H57       1.0  0.5274773516593925  0.2650892796213355  0.3946120030107706  1.0000
  H   H58       1.0  0.6053938671586252  0.47252675081638523  0.7349203475590257  1.0000
  H   H59       1.0  0.7349124366535024  0.6054325947555981  0.4725453015809363  1.0000
  H   H60       1.0  0.4725283147288266  0.7349161141808195  0.6053936942189537  1.0000
  C   C1        1.0  0.4947723209570327  0.8564188311470886  0.12587742719776426  1.0000
  C   C2        1.0  0.12586976108654113  0.4947342631028561  0.8564076491168178  1.0000
  C   C3        1.0  0.8564052616195853  0.12587909792474508  0.4947597882449698  1.0000
  C   C4        1.0  0.5052325525561372  0.14358178663362514  0.8741216618964812  1.0000
  C   C5        1.0  0.874128571755442  0.5052680554447094  0.14358929919757205  1.0000
  C   C6        1.0  0.14360042601268222  0.874122603529436  0.5052398624599235  1.0000
  C   C7        1.0  0.549945988531505  0.7852630767731059  0.23698609425247244  1.0000
  C   C8        1.0  0.23696332926199665  0.5499041368394799  0.7852299112255209  1.0000
  C   C9        1.0  0.7852417967604951  0.23698007835115933  0.5499504116595375  1.0000
  C   C10       1.0  0.4500547686098315  0.21474396022932044  0.7630193451066132  1.0000
  C   C11       1.0  0.7630350008397927  0.45010189245233095  0.21476459147922364  1.0000
  C   C12       1.0  0.2147557250089775  0.7630107618399861  0.45005494578487054  1.0000
  C   C13       1.0  0.606809431741901  0.7583970447914937  0.3168523340498339  1.0000
  C   C14       1.0  0.31682884526497906  0.606769392742322  0.7583691460763902  1.0000
  C   C15       1.0  0.7583878866444423  0.31685968819928695  0.6068119850950922  1.0000
  C   C16       1.0  0.3931872599779426  0.24160383629381252  0.6831486633443261  1.0000
  C   C17       1.0  0.6831662201024288  0.39323303633936046  0.2416261594531974  1.0000
  C   C18       1.0  0.24161860914323086  0.6831386348371283  0.39319540801928093  1.0000
  C   C19       1.0  0.5482714831792989  0.6650997601472922  0.32529071139366994  1.0000
  C   C20       1.0  0.3252642960362451  0.5482430166628446  0.6650734782973089  1.0000
  C   C21       1.0  0.6651030849371227  0.32530311808324097  0.5482889434990312  1.0000
  C   C22       1.0  0.45171619710610855  0.33490251321848047  0.6747165344248386  1.0000
  C   C23       1.0  0.6747332195005313  0.4517604431247832  0.3349221487185189  1.0000
  C   C24       1.0  0.33490340557442266  0.6746981704825286  0.4517179084833599  1.0000
  C   C25       1.0  0.7332649947265608  0.14215247737111267  0.1495555142751215  1.0000
  C   C26       1.0  0.1495327085288665  0.7332408361895445  0.14215265744092423  1.0000
  C   C27       1.0  0.14215118637115856  0.14954671091202704  0.7332628214443346  1.0000
  C   C28       1.0  0.26673416840669256  0.8578457420721577  0.8504397580804479  1.0000
  C   C29       1.0  0.8504721624483694  0.2667590363762713  0.857848336130999  1.0000
  C   C30       1.0  0.8578463360858706  0.8504515568996993  0.2667348140692666  1.0000
  C   C31       1.0  0.6894797066146978  0.9761570716321726  0.037784304287057965  1.0000
  C   C32       1.0  0.037765027043427296  0.689458444292555  0.9761438961845598  1.0000
  C   C33       1.0  0.9761497406983323  0.03777353992367686  0.6894740262919468  1.0000
  C   C34       1.0  0.31052270548927646  0.02384101888071653  0.9622211029878043  1.0000
  C   C35       1.0  0.962237422374649  0.3105329990741624  0.02385105195233446  1.0000
  C   C36       1.0  0.023851038337227203  0.9622268346023544  0.3105280307079069  1.0000
  C   C37       1.0  0.6609837976835566  0.864380792744548  0.9849205495251853  1.0000
  C   C38       1.0  0.9849011202298499  0.6609639078797614  0.8643610279980364  1.0000
  C   C39       1.0  0.8643716853873115  0.9849208631167059  0.6609810532547512  1.0000
  C   C40       1.0  0.3390186085962484  0.13562100544653793  0.015083827495764986  1.0000
  C   C41       1.0  0.015098053901581901  0.3390298663355224  0.1356336406997514  1.0000
  C   C42       1.0  0.1356282950511485  0.015076215086509085  0.3390155403993872  1.0000
  C   C43       1.0  0.6400185572818557  0.822902865374118  0.87466828559954  1.0000
  C   C44       1.0  0.8746667007802245  0.6400104296816876  0.8228980746184573  1.0000
  C   C45       1.0  0.8229046922292654  0.8746752637524295  0.6400143285994984  1.0000
  C   C46       1.0  0.3599814210665854  0.17709495344492146  0.12532852661053784  1.0000
  C   C47       1.0  0.12533492417074396  0.3599814051111282  0.17709957973116272  1.0000
  C   C48       1.0  0.1770960847162613  0.1253258513894195  0.359987946956295  1.0000
  C   C49       1.0  0.6955807566487097  0.0439099273974293  0.9808631754150524  1.0000
  C   C50       1.0  0.9808566487220532  0.6955631554284166  0.043899923027971965  1.0000
  C   C51       1.0  0.043901255390594  0.9808620404888302  0.6955804508402963  1.0000
  C   C52       1.0  0.3044167669043958  0.9560868561165988  0.01913543834240973  1.0000
  C   C53       1.0  0.019149068718633103  0.3044274352553415  0.9560971570156551  1.0000
  C   C54       1.0  0.9560954311552408  0.0191395781462591  0.3044221804655578  1.0000
  C   C55       1.0  0.6747460000446636  0.0015521170900072037  0.8701503415358685  1.0000
  C   C56       1.0  0.8701374056511142  0.6747212761001933  0.0015421204125872013  1.0000
  C   C57       1.0  0.0015551068208096996  0.8701565360901781  0.6747538662050657  1.0000
  C   C58       1.0  0.32525234972179357  0.9984398205718036  0.1298492084183208  1.0000
  C   C59       1.0  0.12986503078088418  0.3252731251307636  0.9984558249816968  1.0000
  C   C60       1.0  0.9984456664927067  0.12984531813447842  0.32524933558455144  1.0000
  C   C61       1.0  0.6475737906008519  0.8906180727494544  0.8185409365230923  1.0000
  C   C62       1.0  0.8185312894913039  0.6475663693254956  0.8906047163097524  1.0000
  C   C63       1.0  0.8906248031734236  0.818554733697802  0.6475763066887338  1.0000
  C   C64       1.0  0.35242537935052104  0.10937718269748588  0.18145416928658156  1.0000
  C   C65       1.0  0.1814687082154123  0.35242404180225156  0.10939061801877162  1.0000
  C   C66       1.0  0.1093792302484999  0.181450716137924  0.3524282153096507  1.0000
  C   C67       1.0  0.4367771828474859  0.721359281915831  0.16928890307349326  1.0000
  C   C68       1.0  0.1692720125205653  0.4367577258124982  0.721332507781426  1.0000
  C   C69       1.0  0.7213499837884497  0.16928150224940447  0.4367825015472987  1.0000
  C   C70       1.0  0.5632211064103174  0.27865190562539516  0.8307191600467048  1.0000
  C   C71       1.0  0.8307238570638518  0.5632487478729331  0.27866494126045877  1.0000
  C   C72       1.0  0.2786499916802684  0.8307118575444508  0.5632200761058642  1.0000
  C   C73       1.0  0.3787785770703351  0.6274002460846403  0.17779520904068838  1.0000
  C   C74       1.0  0.17778382882419663  0.3787546300505937  0.6273689498642058  1.0000
  C   C75       1.0  0.6273917059559223  0.1778043212826432  0.37878587016965065  1.0000
  C   C76       1.0  0.6212156176077314  0.3726129261814677  0.8222136469414493  1.0000
  C   C77       1.0  0.8222046995040416  0.6212487607151402  0.3726232886517166  1.0000
  C   C78       1.0  0.37261153613294345  0.8221963540646584  0.6212113360153778  1.0000
  C   C79       1.0  0.4367358453681122  0.6004494607665408  0.256369271256176  1.0000
  C   C80       1.0  0.25635601821217335  0.4367105888056812  0.6004142300972004  1.0000
  C   C81       1.0  0.6004392859439349  0.2563741502603776  0.43675556322082076  1.0000
  C   C82       1.0  0.5632534693234418  0.3995549860782575  0.7436362670721336  1.0000
  C   C83       1.0  0.7436341513403377  0.5632920114427407  0.39957613438262735  1.0000
  C   C84       1.0  0.399559862865523  0.7436225695549722  0.563247764157353  1.0000
  N   N1        1.0  0.5846671683114053  0.8699476481724273  0.2065607080829891  1.0000
  N   N2        1.0  0.20653106366739143  0.5846256122482102  0.869934540047353  1.0000
  N   N3        1.0  0.8699260865268883  0.2065541471818904  0.58465886186341  1.0000
  N   N4        1.0  0.41533851579097814  0.1300525643849824  0.7934420438993897  1.0000
  N   N5        1.0  0.7934713549483162  0.41537619820705624  0.13006417555060765  1.0000
  N   N6        1.0  0.1300755113558623  0.793445087637103  0.41534380875713584  1.0000
  N   N7        1.0  0.7140963510186467  0.041066802298615854  0.14513484891966746  1.0000
  N   N8        1.0  0.14511300682919884  0.7140733935147522  0.04106561510396022  1.0000
  N   N9        1.0  0.0410533961480155  0.14511018548281376  0.7140862160111822  1.0000
  N   N10       1.0  0.28590526547008466  0.9589302229370773  0.8548615046100563  1.0000
  N   N11       1.0  0.8548918755921165  0.2859235196537995  0.9589330888884433  1.0000
  N   N12       1.0  0.95894985077107  0.8548860385044179  0.28591321722756646  1.0000
  N   N13       1.0  0.723162678462053  0.1491573996875032  0.05399793152446348  1.0000
  N   N14       1.0  0.05398892946139709  0.7231423243517908  0.14914616916928475  1.0000
  N   N15       1.0  0.14915761695439758  0.054003972329972796  0.7231643404922536  1.0000
  N   N16       1.0  0.2768373050603827  0.8508396815817533  0.9459972467739204  1.0000
  N   N17       1.0  0.9460143164637388  0.2768531559535675  0.8508544608692715  1.0000
  N   N18       1.0  0.8508398996784621  0.94599800315995  0.27683226476744227  1.0000
  N   N19       1.0  0.4038717198069079  0.7695874023252427  0.100308676040619  1.0000
  N   N20       1.0  0.10031307627952658  0.4038698841199276  0.769580393208244  1.0000
  N   N21       1.0  0.7695844394953398  0.1003033593443093  0.4038724732908747  1.0000
  N   N22       1.0  0.5961265980611046  0.23041638672282258  0.8996936631307831  1.0000
  N   N23       1.0  0.899682795942951  0.5961351068008228  0.23041732639963197  1.0000
  N   N24       1.0  0.23041880224974423  0.8996936021926982  0.5961285938595606  1.0000
