data_image0
_chemical_formula_structural       Ag2H32C32S2N6O6
_chemical_formula_sum              "Ag2 H32 C32 S2 N6 O6"
_cell_length_a       9.514941389877057
_cell_length_b       9.514892223023214
_cell_length_c       10.470625641626446
_cell_angle_alpha    90.95106450657742
_cell_angle_beta     90.95122691744565
_cell_angle_gamma    116.81334768228464

_space_group_name_H-M_alt    "P 1"
_space_group_IT_number       1

loop_
  _space_group_symop_operation_xyz
  'x, y, z'

loop_
  _atom_site_type_symbol
  _atom_site_label
  _atom_site_symmetry_multiplicity
  _atom_site_fract_x
  _atom_site_fract_y
  _atom_site_fract_z
  _atom_site_occupancy
  Ag  Ag1       1.0  0.3311786669452345  0.8313548142045518  0.9974826806105596  1.0000
  Ag  Ag2       1.0  0.831359569485926  0.33117627078891587  0.4974821653085257  1.0000
  H   H1        1.0  0.03187597916023325  0.30723300804903897  0.722089118378392  1.0000
  H   H2        1.0  0.3072351931555986  0.03186545883303178  0.222093906274992  1.0000
  H   H3        1.0  0.6988996781749959  0.2605042980918384  0.9720955400926528  1.0000
  H   H4        1.0  0.26049603806330873  0.6988993283258935  0.47209463083017067  1.0000
  H   H5        1.0  0.0821720986591288  0.849534540679656  0.1409140190954972  1.0000
  H   H6        1.0  0.8495266439910624  0.08217038757143061  0.6409189368632937  1.0000
  H   H7        1.0  0.08818504069719071  0.6832343211612795  0.1951285695523808  1.0000
  H   H8        1.0  0.6832269092988241  0.08818730544111021  0.695134278223037  1.0000
  H   H9        1.0  0.930699299276739  0.43034098959982003  0.1072920153336767  1.0000
  H   H10       1.0  0.43033148014796296  0.9306914291047902  0.6072990221077461  1.0000
  H   H11       1.0  0.18184732141742896  0.8653801884970349  0.7491211290750996  1.0000
  H   H12       1.0  0.8653811250977198  0.18183331966024951  0.2491235159218306  1.0000
  H   H13       1.0  0.9536962124811267  0.6544871388064166  0.46353862094222364  1.0000
  H   H14       1.0  0.6544832505401459  0.9536923041579471  0.9635383696098571  1.0000
  H   H15       1.0  0.8435836765961824  0.686715600674745  0.5866252827904218  1.0000
  H   H16       1.0  0.6867119944992341  0.8435729298436102  0.08661606610029081  1.0000
  H   H17       1.0  0.03439250199605938  0.8378991611564642  0.5527510385101451  1.0000
  H   H18       1.0  0.8378916498873749  0.034381614658016695  0.05274778053463079  1.0000
  H   H19       1.0  0.9278423031548684  0.8441511819433954  0.9494365120390285  1.0000
  H   H20       1.0  0.8441412259497838  0.9278472150718854  0.4494399253659651  1.0000
  H   H21       1.0  0.5023311592906623  0.6508382301199302  0.6435829704733962  1.0000
  H   H22       1.0  0.6508328159115918  0.5023362064188177  0.143588652991717  1.0000
  H   H23       1.0  0.37977527601804445  0.3591493229444113  0.6563652580679005  1.0000
  H   H24       1.0  0.359147025475707  0.3797743079864162  0.1563640001671374  1.0000
  H   H25       1.0  0.7298309972639316  0.8183438275032486  0.7856711206877236  1.0000
  H   H26       1.0  0.8183347566578973  0.729830525207298  0.2856794728578933  1.0000
  H   H27       1.0  0.36242025281641316  0.5422667522382338  0.942960037139983  1.0000
  H   H28       1.0  0.5422713506771544  0.36241774082367334  0.4429591061958931  1.0000
  H   H29       1.0  0.1752045892884269  0.4432229854752237  0.013458478713019402  1.0000
  H   H30       1.0  0.44322669618197347  0.17520302798386206  0.513456220255776  1.0000
  H   H31       1.0  0.2294319362108368  0.34584736182377174  0.8929208295523949  1.0000
  H   H32       1.0  0.345852862713258  0.22942816661071672  0.3929198124206081  1.0000
  C   C1        1.0  0.675179986445052  0.45249675137297624  0.8827134888403805  1.0000
  C   C2        1.0  0.4524834063260315  0.6751758386065347  0.3827175178444264  1.0000
  C   C3        1.0  0.06198365892367261  0.4318247456567335  0.7307765239729918  1.0000
  C   C4        1.0  0.4318286956044091  0.061975532775640815  0.23078053201003  1.0000
  C   C5        1.0  0.7474865297811562  0.3878530985589208  0.9676038492645062  1.0000
  C   C6        1.0  0.3878449987062638  0.7474853762890987  0.46760685328687407  1.0000
  C   C7        1.0  0.5403499501779051  0.3609578339038535  0.8026762084388892  1.0000
  C   C8        1.0  0.36095237944832087  0.5403479023764318  0.3026775568158726  1.0000
  C   C9        1.0  0.03425401081673841  0.6434449091913592  0.652508446256931  1.0000
  C   C10       1.0  0.643443584611468  0.03424098775638382  0.1525088107883832  1.0000
  C   C11       1.0  0.9416862589860243  0.6492848279622622  0.03964881880359171  1.0000
  C   C12       1.0  0.6492695272627742  0.9416835424834531  0.5396560848971035  1.0000
  C   C13       1.0  0.7440502989551803  0.6215212908476743  0.876309521748155  1.0000
  C   C14       1.0  0.6215130667871094  0.7440459839752975  0.3763137435061239  1.0000
  C   C15       1.0  0.8772662044362107  0.4823468938740377  0.0426291552062708  1.0000
  C   C16       1.0  0.48233599558017193  0.8772621996754708  0.5426382397000395  1.0000
  C   C17       1.0  0.1442187353311368  0.7387965413721673  0.7458599370748189  1.0000
  C   C18       1.0  0.7387972085977311  0.1442054636205015  0.2458641255419494  1.0000
  C   C19       1.0  0.962845052973961  0.7099300480662407  0.5583174196066308  1.0000
  C   C20       1.0  0.709928304242503  0.9628364289731339  0.05831290606053589  1.0000
  C   C21       1.0  0.8764094342532686  0.716145502520895  0.95559926841495  1.0000
  C   C22       1.0  0.7161356169409103  0.8764074549145279  0.4556063155054133  1.0000
  C   C23       1.0  0.17006574071722716  0.5258368465393772  0.8257539939980701  1.0000
  C   C24       1.0  0.5258389190030996  0.17005920000263328  0.3257570251011614  1.0000
  C   C25       1.0  0.5513323849319604  0.5973389546446481  0.710457734482759  1.0000
  C   C26       1.0  0.5973360193312516  0.5513328300018827  0.2104623026842702  1.0000
  C   C27       1.0  0.4818922956255349  0.43188945139771556  0.7170570915942562  1.0000
  C   C28       1.0  0.43188344165071163  0.481894527149727  0.21706056459483136  1.0000
  C   C29       1.0  0.6778234386785443  0.6901286435391398  0.7895573980045826  1.0000
  C   C30       1.0  0.6901257897089081  0.6778232447904813  0.2895600055314418  1.0000
  C   C31       1.0  0.2379925085332744  0.4603646732695665  0.9231496219689959  1.0000
  C   C32       1.0  0.4603670809333238  0.23799115609804034  0.4231487324339581  1.0000
  S   S1        1.0  0.43119942841070014  0.1519598065369152  0.8158584178633461  1.0000
  S   S2        1.0  0.1519567044923562  0.43119667159368186  0.3158548836645352  1.0000
  N   N1        1.0  0.21096348610604576  0.6818278575771117  0.8311805816380726  1.0000
  N   N2        1.0  0.6818305870814995  0.21095490321083324  0.3311837429520992  1.0000
  N   N3        1.0  0.9930683914428898  0.4879452996704997  0.6467728774726779  1.0000
  N   N4        1.0  0.48794355503339665  0.9930561166266685  0.1467756328502361  1.0000
  N   N5        1.0  0.0732264429795109  0.7416024114123444  0.1178011402115047  1.0000
  N   N6        1.0  0.7415931997739093  0.0732266084290814  0.6178059378681482  1.0000
  O   O1        1.0  0.3242771144944853  0.09799154918120219  0.7031296062750769  1.0000
  O   O2        1.0  0.09798847550230508  0.3242721234143601  0.20312611175450707  1.0000
  O   O3        1.0  0.546928524604816  0.08743303220258268  0.8167835030074784  1.0000
  O   O4        1.0  0.08742550170305204  0.5469220575793015  0.3167777217976351  1.0000
  O   O5        1.0  0.3480980175042774  0.12616206755767223  0.9371191875374407  1.0000
  O   O6        1.0  0.1261519819563262  0.34809277347616785  0.43711464984212256  1.0000
