data_image0
_chemical_formula_structural       Cd2H32C36I4N12
_chemical_formula_sum              "Cd2 H32 C36 I4 N12"
_cell_length_a       4.373494568854225
_cell_length_b       15.554470285647424
_cell_length_c       15.547836416891908
_cell_angle_alpha    112.48531602034586
_cell_angle_beta     90.00666821835613
_cell_angle_gamma    98.0876941765693

_space_group_name_H-M_alt    "P 1"
_space_group_IT_number       1

loop_
  _space_group_symop_operation_xyz
  'x, y, z'

loop_
  _atom_site_type_symbol
  _atom_site_label
  _atom_site_symmetry_multiplicity
  _atom_site_fract_x
  _atom_site_fract_y
  _atom_site_fract_z
  _atom_site_occupancy
  Cd  Cd1       1.0  0.460415797749576  1.6414189623498905e-05  0.7499848990305582  1.0000
  Cd  Cd2       1.0  0.5395624988883155  0.9999868259579757  0.2500187114222428  1.0000
  H   H1        1.0  0.10444060938028331  0.7660568387570166  0.6689174581569122  1.0000
  H   H2        1.0  0.3394828796465816  0.23404716216593613  0.8312765401457514  1.0000
  H   H3        1.0  0.8955899559165631  0.23395490036414668  0.3310911429606095  1.0000
  H   H4        1.0  0.660535982390506  0.7659503267478487  0.16872049682172033  1.0000
  H   H5        1.0  0.7624791970920128  0.8938294408264583  0.8955492214252563  1.0000
  H   H6        1.0  0.8690975529894799  0.10626778838414451  0.6045181245555967  1.0000
  H   H7        1.0  0.237532308886145  0.1061761901399407  0.10446554424083133  1.0000
  H   H8        1.0  0.1309052856347819  0.893729665310403  0.3954776127350146  1.0000
  H   H9        1.0  0.8643644303701095  0.7495313975764687  0.9182743696678275  1.0000
  H   H10       1.0  0.11499892709863958  0.2506153305732042  0.5817947838056556  1.0000
  H   H11       1.0  0.13565106540225708  0.25046849868584087  0.08173447126375072  1.0000
  H   H12       1.0  0.8850069022189829  0.7493835307705938  0.41820146030136146  1.0000
  H   H13       1.0  0.8445457604902485  0.6528335115480104  0.8089320964477624  1.0000
  H   H14       1.0  0.19222282179335787  0.3473276029615207  0.6911032468665683  1.0000
  H   H15       1.0  0.15548353508994944  0.34717111999601974  0.19107137234950505  1.0000
  H   H16       1.0  0.80778902433358  0.6526741433439439  0.30889660944613695  1.0000
  H   H17       1.0  0.582575099069615  0.5041005360885151  0.8006495444588141  1.0000
  H   H18       1.0  0.07840082648978343  0.4960024338368925  0.6994451882579684  1.0000
  H   H19       1.0  0.4174422248814905  0.4958984474427268  0.199351247429604  1.0000
  H   H20       1.0  0.9216101737822269  0.5039976262220164  0.30054376700261554  1.0000
  H   H21       1.0  0.24941454542943836  0.410071994832066  0.8676726230386793  1.0000
  H   H22       1.0  0.8392810481210518  0.5899896864484618  0.6323779201729283  1.0000
  H   H23       1.0  0.7505817768350908  0.5899261450774843  0.13232271782170807  1.0000
  H   H24       1.0  0.16070959170516366  0.4100062374647635  0.3676127625756537  1.0000
  H   H25       1.0  0.013462701911102125  0.664071732149786  0.07826171546508227  1.0000
  H   H26       1.0  0.34956429864625704  0.33591034254993707  0.42174739888636753  1.0000
  H   H27       1.0  0.9865247466197361  0.3359269545930488  0.9217280317635572  1.0000
  H   H28       1.0  0.6503760986018392  0.6640811238481704  0.5782590493956193  1.0000
  H   H29       1.0  0.3525089088459765  0.7577163781680272  0.01191503300631786  1.0000
  H   H30       1.0  0.5947591359698877  0.2423228230547282  0.4881514695550778  1.0000
  H   H31       1.0  0.6474965506780704  0.24228174454724888  0.9880796584339464  1.0000
  H   H32       1.0  0.4052183493013998  0.7576742223021782  0.5118550576764066  1.0000
  C   C1        1.0  0.26699276182790743  0.7757277784424303  0.7258222161484228  1.0000
  C   C2        1.0  0.49218803074567324  0.22436987650399223  0.7743519205851187  1.0000
  C   C3        1.0  0.73303961300212  0.22427843490877564  0.27418825589742823  1.0000
  C   C4        1.0  0.507812899999024  0.7756283331794832  0.22564601895968658  1.0000
  C   C5        1.0  0.6008937839015615  0.8431518142245052  0.840451687658984  1.0000
  C   C6        1.0  0.7585679590689834  0.1569666409063828  0.6596846590233199  1.0000
  C   C7        1.0  0.3991229461648658  0.1568551199517714  0.15955968701997145  1.0000
  C   C8        1.0  0.2414421355021758  0.8430316038302054  0.3403145800310271  1.0000
  C   C9        1.0  0.7057102255455519  0.6966232137709198  0.8622059358037931  1.0000
  C   C10       1.0  0.009451561474570273  0.30353076603183393  0.6378719814125022  1.0000
  C   C11       1.0  0.2943049987796229  0.30338071364389657  0.13779727927850877  1.0000
  C   C12       1.0  0.990549712496772  0.6964681300327838  0.3621255618693981  1.0000
  C   C13       1.0  0.4888018161565952  0.6379203126584445  0.900363393419646  1.0000
  C   C14       1.0  0.8509257449001382  0.36215367106641594  0.5997173879927902  1.0000
  C   C15       1.0  0.5111974790900006  0.3620792000687699  0.09963115497070872  1.0000
  C   C16       1.0  0.1490565680988991  0.6378438866244663  0.40028224665515216  1.0000
  C   C17       1.0  0.45413127703588424  0.539657817223322  0.8609526551915254  1.0000
  C   C18       1.0  0.9142746894175604  0.46042752241360324  0.6391365242005806  1.0000
  C   C19       1.0  0.5458663375001082  0.4603383332613547  0.13904647308621787  1.0000
  C   C20       1.0  0.08572426260240461  0.5395713039324691  0.3608584204526722  1.0000
  C   C21       1.0  0.26350054043503224  0.48620037812602857  0.8997321480506603  1.0000
  C   C22       1.0  0.7771269907802677  0.5138542648181571  0.6003061006719224  1.0000
  C   C23       1.0  0.7365003814540215  0.513797814141661  0.10026514185093305  1.0000
  C   C24       1.0  0.22285982443116845  0.486143153657146  0.39968833694182854  1.0000
  C   C25       1.0  0.09934061964957402  0.5284260874084836  0.978926349812376  1.0000
  C   C26       1.0  0.5709421276739731  0.4715687460097868  0.5210523936324452  1.0000
  C   C27       1.0  0.9006468288812641  0.471572599334344  0.02106339741626338  1.0000
  C   C28       1.0  0.429032278347485  0.5284267175399437  0.47894713035044145  1.0000
  C   C29       1.0  0.13478359637709053  0.6273893284586622  0.017100501609618853  1.0000
  C   C30       1.0  0.507571177020246  0.3725966267584297  0.4829118142609234  1.0000
  C   C31       1.0  0.8651996046115045  0.37261000972296193  0.9828875499581289  1.0000
  C   C32       1.0  0.4923816736960659  0.6273968816442094  0.5170927958680098  1.0000
  C   C33       1.0  0.3272502267274149  0.6810135999634428  0.979210516362095  1.0000
  C   C34       1.0  0.6462980318634449  0.3190086534489822  0.520848475819605  1.0000
  C   C35       1.0  0.6727471075057353  0.31898656425794775  0.020782336423145923  1.0000
  C   C36       1.0  0.35366697337268244  0.6809862976560198  0.47915794063527534  1.0000
  I   I1        1.0  0.9320553071209831  0.9171169466984708  0.6057186544984745  1.0000
  I   I2        1.0  0.01506408947989969  0.08290239233007668  0.8942288574284661  1.0000
  I   I3        1.0  0.0678910626581839  0.08287731758234429  0.3942881577731043  1.0000
  I   I4        1.0  0.9849598620450948  0.9171098414323712  0.10577220118342734  1.0000
  N   N1        1.0  0.42520585197224386  0.8616646823058361  0.7810393469221711  1.0000
  N   N2        1.0  0.5643492991271799  0.1384380196020061  0.7190945379986078  1.0000
  N   N3        1.0  0.5748128302519859  0.1383415829604715  0.21897307371868646  1.0000
  N   N4        1.0  0.43565283533251875  0.8615580264986703  0.28090069253136823  1.0000
  N   N5        1.0  0.3354797259480192  0.7056290562320059  0.7474554133614364  1.0000
  N   N6        1.0  0.6307149028351589  0.294470379472898  0.752707168093963  1.0000
  N   N7        1.0  0.6645509868169698  0.2943784079155591  0.2525497186003066  1.0000
  N   N8        1.0  0.3692948130867677  0.705527109219375  0.24728986865041253  1.0000
  N   N9        1.0  0.5483642985549366  0.7500343036786888  0.8207034220939705  1.0000
  N   N10       1.0  0.7989994746550411  0.2500885411394904  0.6794253080854135  1.0000
  N   N11       1.0  0.45166835751219736  0.24997247414311372  0.17930210618644798  1.0000
  N   N12       1.0  0.2010171362758441  0.7499090173820875  0.3205743273991574  1.0000
