data_image0
_chemical_formula_structural       Zn2H26C36N4O10F2
_chemical_formula_sum              "Zn2 H26 C36 N4 O10 F2"
_cell_length_a       8.982494974898875
_cell_length_b       10.988405660569184
_cell_length_c       10.98292016337157
_cell_angle_alpha    103.59328772878389
_cell_angle_beta     111.03443058771505
_cell_angle_gamma    108.720503431973

_space_group_name_H-M_alt    "P 1"
_space_group_IT_number       1

loop_
  _space_group_symop_operation_xyz
  'x, y, z'

loop_
  _atom_site_type_symbol
  _atom_site_label
  _atom_site_symmetry_multiplicity
  _atom_site_fract_x
  _atom_site_fract_y
  _atom_site_fract_z
  _atom_site_occupancy
  Zn  Zn1       1.0  0.1757647817385504  0.3608251842211487  0.9854752600886204  1.0000
  Zn  Zn2       1.0  0.8242420554542064  0.6391793247879393  0.01452411555333568  1.0000
  H   H1        1.0  0.637658640152665  0.42818454189645644  0.3312766598562079  1.0000
  H   H2        1.0  0.3623572058985971  0.5718254036813659  0.6687365888375825  1.0000
  H   H3        1.0  0.6556476229609628  0.27320018493976045  0.4616368991185953  1.0000
  H   H4        1.0  0.3443593051656605  0.7268002011683661  0.5383643108997944  1.0000
  H   H5        1.0  0.8622645435015386  0.16148646059323818  0.4695466191024169  1.0000
  H   H6        1.0  0.1377191739879464  0.8384958545500395  0.5304328167777757  1.0000
  H   H7        1.0  0.8219723349826962  0.3451669822790534  0.861343261082233  1.0000
  H   H8        1.0  0.1780327862565798  0.6548387030077975  0.13866589209026622  1.0000
  H   H9        1.0  0.5256972010702156  0.20833268924897652  0.6533076299719555  1.0000
  H   H10       1.0  0.47430108599163373  0.7916585636732518  0.346709946078697  1.0000
  H   H11       1.0  0.7059211464220851  0.9020768940486833  0.5226230576239391  1.0000
  H   H12       1.0  0.2940693504448575  0.09791535798219539  0.4773942821764054  1.0000
  H   H13       1.0  0.9970436603760433  0.056288685621332504  0.7346465485840243  1.0000
  H   H14       1.0  0.0029631358152642806  0.9437178917137813  0.26535236801017  1.0000
  H   H15       1.0  0.1391578272183551  0.11502472074375449  0.05905843552039871  1.0000
  H   H16       1.0  0.8608352864043526  0.8849744327289741  0.9409338997955109  1.0000
  H   H17       1.0  0.26678950571299964  0.9457805687887273  0.06493754915731406  1.0000
  H   H18       1.0  0.7332065709439204  0.05421962492502529  0.9350540658397792  1.0000
  H   H19       1.0  0.6156191844749301  0.17843359111085277  0.9257054248596861  1.0000
  H   H20       1.0  0.3843918486241975  0.8215762842373522  0.0743045774700733  1.0000
  H   H21       1.0  0.4603197509018528  0.32591199724031844  0.9112216219838845  1.0000
  H   H22       1.0  0.5396918156158889  0.6741009790623166  0.08878741035906054  1.0000
  H   H23       1.0  0.5238328522110719  0.5332181735613232  0.19419046104309964  1.0000
  H   H24       1.0  0.47617166416188883  0.4667843007623772  0.8058123318690777  1.0000
  H   H25       1.0  0.3631517341584143  0.5230024078009805  0.24050647362292932  1.0000
  H   H26       1.0  0.6368473591184908  0.4769989086603488  0.7594899187406983  1.0000
  C   C1        1.0  0.809429109673573  0.4980203529564804  0.18458173139674736  1.0000
  C   C2        1.0  0.19057424365067982  0.5019821656897248  0.8154243731884352  1.0000
  C   C3        1.0  0.8318655828835161  0.40866012650695177  0.2677390423973735  1.0000
  C   C4        1.0  0.1681336013272626  0.5913370670534092  0.7322591843426809  1.0000
  C   C5        1.0  0.7262402507007977  0.3793390973346503  0.3348572369768166  1.0000
  C   C6        1.0  0.27376668107918767  0.6206634258549568  0.6651480953982657  1.0000
  C   C7        1.0  0.7350022419986003  0.29094941018689  0.4068199353557987  1.0000
  C   C8        1.0  0.2650005028059823  0.7090477604146841  0.5931756866123694  1.0000
  C   C9        1.0  0.8502776838776639  0.2297708167843665  0.412902213150865  1.0000
  C   C10       1.0  0.14971136577399582  0.7702167791222506  0.5870817889014361  1.0000
  C   C11       1.0  0.956238831041844  0.26212915862773656  0.3482485587881856  1.0000
  C   C12       1.0  0.04374309539309008  0.7378520857030963  0.6517292020187073  1.0000
  C   C13       1.0  0.9533604521892798  0.35115032185913714  0.2767735777539644  1.0000
  C   C14       1.0  0.04663097552131747  0.6488415283208865  0.7232166270701796  1.0000
  C   C15       1.0  0.08954118726217788  0.3894796091419366  0.22462952716573176  1.0000
  C   C16       1.0  0.9104477929708991  0.6105142742493115  0.7753585954286211  1.0000
  C   C17       1.0  0.7908787361164895  0.24690786180836705  0.7826710378791121  1.0000
  C   C18       1.0  0.20913047020423647  0.7531008877230433  0.217333624253783  1.0000
  C   C19       1.0  0.6236296863635002  0.16796519353852804  0.6648966862234362  1.0000
  C   C20       1.0  0.3763755526025392  0.8320364101006276  0.33511705016817234  1.0000
  C   C21       1.0  0.5871160798307925  0.04199196994189689  0.5647263522195872  1.0000
  C   C22       1.0  0.4128792121263556  0.958000324816417  0.4352924013830091  1.0000
  C   C23       1.0  0.7239217504508061  0.9999873255718795  0.5926087038004015  1.0000
  C   C24       1.0  0.27607416585883016  3.947239903801576e-06  0.4074109141918002  1.0000
  C   C25       1.0  0.8882741304343184  0.08575841976443138  0.7123805228775029  1.0000
  C   C26       1.0  0.11173215385365143  0.9142472211999217  0.28762531862199137  1.0000
  C   C27       1.0  0.24261954083578974  0.12177146699310977  0.027308344443980608  1.0000
  C   C28       1.0  0.7573801447231076  0.8782309095987912  0.9726893695423801  1.0000
  C   C29       1.0  0.31808845130925073  0.02979535192104519  0.03301921988087744  1.0000
  C   C30       1.0  0.6819100586166229  0.9702049181607889  0.9669767671409065  1.0000
  C   C31       1.0  0.4559841803246556  0.046419466016701  0.9962876948553828  1.0000
  C   C32       1.0  0.5440232081486369  0.9535881714489985  0.003712543361544458  1.0000
  C   C33       1.0  0.5075904482870895  0.15600549975198413  0.9528795594862063  1.0000
  C   C34       1.0  0.4924199336666603  0.8440053562894931  0.047126829611272666  1.0000
  C   C35       1.0  0.4226902827796408  0.2415316350029072  0.9462794012412277  1.0000
  C   C36       1.0  0.5773153182924702  0.7584770687318283  0.05372328425909259  1.0000
  N   N1        1.0  0.9222938922634112  0.20765315252745606  0.805300938379105  1.0000
  N   N2        1.0  0.07771714245996014  0.7923524624088857  0.19470173551816577  1.0000
  N   N3        1.0  0.29291413063121036  0.2257068718444799  0.9838398230084523  1.0000
  N   N4        1.0  0.707087328120309  0.7742965480576841  0.016157733489421917  1.0000
  O   O1        1.0  0.0475539158742535  0.3071048618885044  0.10106649430846915  1.0000
  O   O2        1.0  0.9524386018130995  0.6928910943721645  0.8989203970280146  1.0000
  O   O3        1.0  0.2356459012017068  0.4958899643966176  0.31048366536192173  1.0000
  O   O4        1.0  0.7643363698822583  0.5041090104328347  0.6894999912135804  1.0000
  O   O5        1.0  0.8760062673101032  0.4983790516116643  0.09887096544543558  1.0000
  O   O6        1.0  0.12399756422274784  0.5016307458942961  0.9011359999000705  1.0000
  O   O7        1.0  0.7242069014502733  0.5681784684801202  0.19820018692691846  1.0000
  O   O8        1.0  0.275807781552288  0.4318315214202072  0.8018163734398842  1.0000
  O   O9        1.0  0.40448207348271126  0.5314423365240799  0.16666563197355097  1.0000
  O   O10       1.0  0.5955223750959036  0.46856216487238095  0.8333339530481753  1.0000
  F   F1        1.0  0.0732355630901154  0.20455139315997428  0.3572369828672351  1.0000
  F   F2        1.0  0.9267361967152182  0.7954223355942387  0.6427270104850323  1.0000
