data_image0
_chemical_formula_structural       Zn12H64C104N16O48
_chemical_formula_sum              "Zn12 H64 C104 N16 O48"
_cell_length_a       12.691605586928585
_cell_length_b       17.82759756623493
_cell_length_c       20.965853095943512
_cell_angle_alpha    90.00113792129069
_cell_angle_beta     90.00331523950526
_cell_angle_gamma    99.63440330290658

_space_group_name_H-M_alt    "P 1"
_space_group_IT_number       1

loop_
  _space_group_symop_operation_xyz
  'x, y, z'

loop_
  _atom_site_type_symbol
  _atom_site_label
  _atom_site_symmetry_multiplicity
  _atom_site_fract_x
  _atom_site_fract_y
  _atom_site_fract_z
  _atom_site_occupancy
  Zn  Zn1       1.0  0.5502884788537443  0.2217849325961438  0.6293210850321386  1.0000
  Zn  Zn2       1.0  0.44972854821092073  0.2781975008304158  0.1293139125337817  1.0000
  Zn  Zn3       1.0  0.4496773011175891  0.7781854836742782  0.3706845133092287  1.0000
  Zn  Zn4       1.0  0.5503124643156738  0.7217965300629814  0.8706692699328257  1.0000
  Zn  Zn5       1.0  0.3061732390044512  0.2224243905886709  0.6002390324416778  1.0000
  Zn  Zn6       1.0  0.6938537432891183  0.2775851025080129  0.10025046603679749  1.0000
  Zn  Zn7       1.0  0.6937881803992454  0.7775611742897653  0.39976036539519544  1.0000
  Zn  Zn8       1.0  0.30619660294323847  0.722443129111646  0.8997618118184079  1.0000
  Zn  Zn9       1.0  0.8155051474651671  0.24690576119316884  0.6097517645517314  1.0000
  Zn  Zn10      1.0  0.18450963672962936  0.2530878564902822  0.1097314753692942  1.0000
  Zn  Zn11      1.0  0.1844737955102859  0.7530938726614596  0.39024763371539006  1.0000
  Zn  Zn12      1.0  0.8155123550170561  0.746905638296191  0.8902684005691484  1.0000
  H   H1        1.0  0.19773891765636625  0.24691241309067635  0.790632162278321  1.0000
  H   H2        1.0  0.8022584337811767  0.2530316742007059  0.29065176153741845  1.0000
  H   H3        1.0  0.8022127878202171  0.753041203293485  0.2093681890434738  1.0000
  H   H4        1.0  0.1977369502958624  0.7469367488018577  0.7093538373082209  1.0000
  H   H5        1.0  0.16684326534153368  0.2538898849885882  0.9086554949523701  1.0000
  H   H6        1.0  0.8331617546193685  0.2460638757422728  0.40867129268201546  1.0000
  H   H7        1.0  0.8331265061985036  0.7460851686900511  0.0913443799068503  1.0000
  H   H8        1.0  0.16683095699664116  0.7539203091740276  0.5913333523206389  1.0000
  H   H9        1.0  0.505437784519664  0.2780948730908649  0.9411664275359115  1.0000
  H   H10       1.0  0.49456490366448247  0.2219769514841232  0.44116463228339586  1.0000
  H   H11       1.0  0.4945426889838204  0.7220354612678507  0.05881389324571269  1.0000
  H   H12       1.0  0.5054216698945169  0.7780387347170148  0.5588271348001327  1.0000
  H   H13       1.0  0.5351749922932711  0.26695686212777764  0.8234683293486212  1.0000
  H   H14       1.0  0.46484261823262335  0.23311668302176267  0.3234551859187249  1.0000
  H   H15       1.0  0.46479902482040814  0.7331551904798135  0.17651676082174814  1.0000
  H   H16       1.0  0.5351611281431873  0.7668893062510733  0.6765318117230947  1.0000
  H   H17       1.0  0.8875045479179279  0.06941348494218148  0.7064954758557462  1.0000
  H   H18       1.0  0.11251076615600651  0.4305442364081671  0.20651196635952118  1.0000
  H   H19       1.0  0.11249974203249744  0.930630417063405  0.2935554355730901  1.0000
  H   H20       1.0  0.88749473282585  0.569410331790209  0.7935184347788532  1.0000
  H   H21       1.0  0.9172817526870887  0.9579462851589823  0.7721547147800578  1.0000
  H   H22       1.0  0.08272852977778204  0.5420144691351185  0.2721787049438973  1.0000
  H   H23       1.0  0.08272603064995113  0.0420864028154568  0.22788427246233303  1.0000
  H   H24       1.0  0.9172589744271846  0.45794524775721607  0.7278493110917592  1.0000
  H   H25       1.0  0.5777918468397517  0.8849945080430787  0.786536261827429  1.0000
  H   H26       1.0  0.4222227062984346  0.6149996353791423  0.28654199385347556  1.0000
  H   H27       1.0  0.4222153503134792  0.11497820685162449  0.2134349957082335  1.0000
  H   H28       1.0  0.5777637638720776  0.3850154820739036  0.7134364181740976  1.0000
  H   H29       1.0  0.5475421793898364  0.9991717950507568  0.7229342474897179  1.0000
  H   H30       1.0  0.4524690035729223  0.5008247297381133  0.2229300097910212  1.0000
  H   H31       1.0  0.4524614953545837  0.0008076081163892043  0.27704893419277704  1.0000
  H   H32       1.0  0.5475348293029683  0.49919483661823705  0.7770460177506208  1.0000
  H   H33       1.0  0.6369722464109416  0.44264597320074733  0.5590192485114542  1.0000
  H   H34       1.0  0.3630670919157098  0.0573580153561721  0.05899948240875119  1.0000
  H   H35       1.0  0.3630012238394685  0.5573190034487966  0.4409672712766265  1.0000
  H   H36       1.0  0.6370442026189593  0.9427064365365823  0.9409441137227431  1.0000
  H   H37       1.0  0.31432682502934034  0.4289932574766837  0.49272327531151217  1.0000
  H   H38       1.0  0.685702164708957  0.07103062903915709  0.992706856711834  1.0000
  H   H39       1.0  0.6856510189323473  0.5709741050023497  0.5072646754723562  1.0000
  H   H40       1.0  0.3144092191592095  0.9290168568542968  0.007237216240682201  1.0000
  H   H41       1.0  0.4949598396871623  0.0336804047064376  0.6148878774476784  1.0000
  H   H42       1.0  0.5050228038972192  0.4663158659361883  0.11487922679960148  1.0000
  H   H43       1.0  0.5050134982748561  0.96631002152413  0.38513107624894616  1.0000
  H   H44       1.0  0.4950196919048438  0.5336776414283831  0.8851201725341015  1.0000
  H   H45       1.0  0.40442752865757114  0.06862985407536122  0.4210385221075441  1.0000
  H   H46       1.0  0.5956317358781577  0.4313818311912386  0.9210494821786241  1.0000
  H   H47       1.0  0.5955523263257663  0.9313573622571881  0.5789823395403104  1.0000
  H   H48       1.0  0.4044221485922891  0.5686267034604383  0.0789546871459734  1.0000
  H   H49       1.0  0.13442446582629233  0.3464779840075849  0.6662916292917274  1.0000
  H   H50       1.0  0.8655891114306371  0.1535309952525594  0.16626261197257713  1.0000
  H   H51       1.0  0.8655220598566231  0.6534862336798994  0.33374831021205853  1.0000
  H   H52       1.0  0.13441905424687667  0.8464688971641934  0.8337439413022026  1.0000
  H   H53       1.0  0.05242197292522381  0.3710223300750854  0.6035087874022622  1.0000
  H   H54       1.0  0.9475867341936351  0.12898901481315764  0.10348080401463726  1.0000
  H   H55       1.0  0.9475134709533821  0.628959109493259  0.3965459380024683  1.0000
  H   H56       1.0  0.052454338323201524  0.8710140682593135  0.8965400588486929  1.0000
  H   H57       1.0  0.18858319266450255  0.35783101289036523  0.5882243102769138  1.0000
  H   H58       1.0  0.8114335488773818  0.1421806317772791  0.0881869882186663  1.0000
  H   H59       1.0  0.8113600579021637  0.6421630902008386  0.41181753729156867  1.0000
  H   H60       1.0  0.18861125083014227  0.8578168998405429  0.9118100263601645  1.0000
  H   H61       1.0  0.9138616396491133  0.109028166250134  0.5965169750983392  1.0000
  H   H62       1.0  0.0861564443381795  0.3909820869601575  0.09650848161115279  1.0000
  H   H63       1.0  0.08610378673385102  0.8909490271985945  0.40347240644986465  1.0000
  H   H64       1.0  0.913866295002279  0.6090199130712791  0.9034851938553811  1.0000
  C   C1        1.0  0.3861250851330882  0.24694492344444544  0.7304232877206474  1.0000
  C   C2        1.0  0.6138909358040368  0.2530475252959051  0.2304262338264493  1.0000
  C   C3        1.0  0.613851479890805  0.7530546432764211  0.26957134084356227  1.0000
  C   C4        1.0  0.38611582061948724  0.7469489335218  0.7695707800729679  1.0000
  C   C5        1.0  0.36820648933483113  0.2563328407777589  0.8004073268582913  1.0000
  C   C6        1.0  0.6318012166331215  0.24366332431529975  0.3004140806743081  1.0000
  C   C7        1.0  0.6317643647246385  0.7436874927458916  0.1995873017847529  1.0000
  C   C8        1.0  0.36820213517076894  0.7563273823416311  0.6995843640135604  1.0000
  C   C9        1.0  0.2643246566681299  0.2535853739160032  0.8241044850000916  1.0000
  C   C10       1.0  0.7356735371486423  0.24638470220755693  0.32411733060232  1.0000
  C   C11       1.0  0.7356368942595425  0.7464052851677322  0.17589109715476067  1.0000
  C   C12       1.0  0.26432165460050083  0.7536001181802165  0.6758820678230322  1.0000
  C   C13       1.0  0.2472706036541297  0.25772943350363425  0.8893913324594891  1.0000
  C   C14       1.0  0.7527245431658829  0.24224548739972107  0.3894027994065965  1.0000
  C   C15       1.0  0.7526897572997697  0.7422764636970102  0.11060424980606601  1.0000
  C   C16       1.0  0.24725965549667006  0.7577395886602292  0.610599937589626  1.0000
  C   C17       1.0  0.3341356172297126  0.2663590330321952  0.9317041179728561  1.0000
  C   C18       1.0  0.6658623862740641  0.2336439152554846  0.4317200071941798  1.0000
  C   C19       1.0  0.6658431887027021  0.7336965928329988  0.0682790639301487  1.0000
  C   C20       1.0  0.33412421911592827  0.7663457536131871  0.5682827298841173  1.0000
  C   C21       1.0  0.4383854058849154  0.27112594938781603  0.9079969674746025  1.0000
  C   C22       1.0  0.5616219452574287  0.2289240106028957  0.40799717790578427  1.0000
  C   C23       1.0  0.5615975059553264  0.7289829603717665  0.0919900306894732  1.0000
  C   C24       1.0  0.43836477572872923  0.7710837611331272  0.5919960200100931  1.0000
  C   C25       1.0  0.455083802967451  0.26533609430618554  0.8426934057183714  1.0000
  C   C26       1.0  0.5449280756145356  0.23470849641276453  0.3426897891703433  1.0000
  C   C27       1.0  0.5448934158567907  0.7347500302349488  0.15729502304667878  1.0000
  C   C28       1.0  0.4550692280077372  0.7652967457139683  0.6573067476724006  1.0000
  C   C29       1.0  0.31491625667663936  0.2685046046382382  0.0018580186761169993  1.0000
  C   C30       1.0  0.6850764057923016  0.23150301465728523  0.5018696310814903  1.0000
  C   C31       1.0  0.6850719891104121  0.7315247035474215  0.9981342255206158  1.0000
  C   C32       1.0  0.31489108876997574  0.7685030838608784  0.498135490632336  1.0000
  C   C33       1.0  0.7001435909143441  0.1082436419851831  0.6708760255096493  1.0000
  C   C34       1.0  0.2998767310565782  0.391739091753074  0.17088795298565873  1.0000
  C   C35       1.0  0.2998305676530393  0.8917513320190906  0.3291238495989716  1.0000
  C   C36       1.0  0.7001425463834324  0.6082481048597899  0.8291219391374793  1.0000
  C   C37       1.0  0.7156046017143753  0.04010874479239129  0.7094770480429914  1.0000
  C   C38       1.0  0.2844065124499693  0.4598721443881217  0.2094886541171164  1.0000
  C   C39       1.0  0.284396459844949  0.9598954722246805  0.29052902817797127  1.0000
  C   C40       1.0  0.7155947412648376  0.5401156751851134  0.7905202837618076  1.0000
  C   C41       1.0  0.8198581521100865  0.0285390770552709  0.7234515048125871  1.0000
  C   C42       1.0  0.18015635927415732  0.4714225614953592  0.22347060796392523  1.0000
  C   C43       1.0  0.18014433265971525  0.971486108274739  0.2765750811544975  1.0000
  C   C44       1.0  0.8198478173725049  0.5285421503298552  0.7765473921216709  1.0000
  C   C45       1.0  0.8368378688730262  0.9669616876924394  0.7601581565785125  1.0000
  C   C46       1.0  0.16317731002123995  0.5329976871772075  0.26018816391305677  1.0000
  C   C47       1.0  0.16316824144776382  0.03305737802947561  0.23986509063725953  1.0000
  C   C48       1.0  0.8368167691509074  0.466967871301037  0.7398398522888954  1.0000
  C   C49       1.0  0.7493650910019909  0.914952921514022  0.7824610063947617  1.0000
  C   C50       1.0  0.25064211721817753  0.585011471880222  0.2824949941405208  1.0000
  C   C51       1.0  0.2506472581287724  0.08503521077498992  0.21753743842935344  1.0000
  C   C52       1.0  0.7493385748402235  0.414967283748247  0.7175230056527226  1.0000
  C   C53       1.0  0.6447762201405639  0.925853624896988  0.7685828850790768  1.0000
  C   C54       1.0  0.3552343963643666  0.5741239922105095  0.2686008138005107  1.0000
  C   C55       1.0  0.35523289998246815  0.0741253662400823  0.23140220455995567  1.0000
  C   C56       1.0  0.6447641551775406  0.4258750632832502  0.7313938151465891  1.0000
  C   C57       1.0  0.6282023665946924  0.9888705892953666  0.7329184786531683  1.0000
  C   C58       1.0  0.371810172211795  0.5111149832178156  0.2329320866884856  1.0000
  C   C59       1.0  0.3718066062982359  0.0111163163738297  0.2670689958818713  1.0000
  C   C60       1.0  0.6281880265792026  0.4888908497390076  0.7670625423109596  1.0000
  C   C61       1.0  0.7702957020551582  0.8495175456029145  0.8212224091935879  1.0000
  C   C62       1.0  0.22971926618016883  0.6504471834929076  0.3212410505582922  1.0000
  C   C63       1.0  0.22972881418351684  0.15046810155069318  0.1787664965025115  1.0000
  C   C64       1.0  0.7702703493314191  0.349532954945758  0.6787731336757403  1.0000
  C   C65       1.0  0.44462999291176436  0.352507247171964  0.5604445487015112  1.0000
  C   C66       1.0  0.5553804307990049  0.1475061529543069  0.060420238173783496  1.0000
  C   C67       1.0  0.5553374302654249  0.6474722653242608  0.4395615267134402  1.0000
  C   C68       1.0  0.4446958753262039  0.8525392127379946  0.9395367122256814  1.0000
  C   C69       1.0  0.472894783833354  0.4286293432455893  0.5290360594420278  1.0000
  C   C70       1.0  0.527140238585787  0.07138430463859181  0.0290127768716175  1.0000
  C   C71       1.0  0.5270844692591796  0.5713414527906195  0.47095904588699256  1.0000
  C   C72       1.0  0.47296741713108764  0.9286687323828674  0.9709365426896708  1.0000
  C   C73       1.0  0.5777932671372666  0.46839108992859485  0.5330132858498544  1.0000
  C   C74       1.0  0.4222397016269426  0.0316090534199347  0.0329965905473202  1.0000
  C   C75       1.0  0.4221840924263845  0.5315779557663305  0.46697609583816285  1.0000
  C   C76       1.0  0.577859970533787  0.9684347086427038  0.9669560675555003  1.0000
  C   C77       1.0  0.3953538052552121  0.4606694078372372  0.49577088149421655  1.0000
  C   C78       1.0  0.6046834988750548  0.03935085205234401  0.9957596463439484  1.0000
  C   C79       1.0  0.6046196203900251  0.5393040518328931  0.5042165922984623  1.0000
  C   C80       1.0  0.39542522878009123  0.960699387201679  0.004195396804576  1.0000
  C   C81       1.0  0.3856721869583383  0.11798809625566521  0.5407885749362578  1.0000
  C   C82       1.0  0.6143282691140399  0.38200685608440915  0.04079424217209039  1.0000
  C   C83       1.0  0.6142995361796082  0.8819977592900514  0.45921750060924166  1.0000
  C   C84       1.0  0.3856989912663309  0.6179896152778994  0.9592003872583985  1.0000
  C   C85       1.0  0.4441838610847881  0.05683158855577369  0.520048685791906  1.0000
  C   C86       1.0  0.5558139969810797  0.44316884420843655  0.0200447630355427  1.0000
  C   C87       1.0  0.5557824910901064  0.9431507220261468  0.47996979074548557  1.0000
  C   C88       1.0  0.44422107085091517  0.5568402909363571  0.9799517745060697  1.0000
  C   C89       1.0  0.4976109676521858  0.0182767997701845  0.5647724918725601  1.0000
  C   C90       1.0  0.5023740149008519  0.4817156603698508  0.0647659218794132  1.0000
  C   C91       1.0  0.5023630310586997  0.9817085545045788  0.43524455392770267  1.0000
  C   C92       1.0  0.49766199290208846  0.5182855826514441  0.9352315695426582  1.0000
  C   C93       1.0  0.44639588283421017  0.038132518840910706  0.45515160934561283  1.0000
  C   C94       1.0  0.5536347326859216  0.4618681446166093  0.9551487391568613  1.0000
  C   C95       1.0  0.5535822551681093  0.9618495584774607  0.5448668673973813  1.0000
  C   C96       1.0  0.4464087452529243  0.5381395308206862  0.04484684458820709  1.0000
  C   C97       1.0  0.07783105105883693  0.2562652043535536  0.6035335226573864  1.0000
  C   C98       1.0  0.9221862456212051  0.24374129314255547  0.1035147356923218  1.0000
  C   C99       1.0  0.922127067606354  0.7437151772797037  0.3964902003447861  1.0000
  C   C100      1.0  0.07784352502289951  0.7562603398268166  0.8964961106724729  1.0000
  C   C101      1.0  0.11529046511950722  0.3381439507899628  0.6153288293493729  1.0000
  C   C102      1.0  0.8847324959195151  0.1618613890925147  0.1152867982783263  1.0000
  C   C103      1.0  0.884657835835121  0.6618344575128815  0.38471826479894833  1.0000
  C   C104      1.0  0.11529755355255843  0.8381374235751622  0.8847192784065783  1.0000
  N   N1        1.0  0.14158707431410994  0.2025600365055737  0.5951133462214669  1.0000
  N   N2        1.0  0.8584211783357959  0.2974532882245456  0.0951209050532995  1.0000
  N   N3        1.0  0.8583705143379918  0.797430511020778  0.4048932060816312  1.0000
  N   N4        1.0  0.1416099720967452  0.7025472524344066  0.904890895258454  1.0000
  N   N5        1.0  0.08037473633390141  0.1350321062303266  0.5893093925462691  1.0000
  N   N6        1.0  0.9196380835192315  0.3649834229776232  0.0893255216098083  1.0000
  N   N7        1.0  0.919589368428163  0.8649552310881321  0.41068141996443314  1.0000
  N   N8        1.0  0.08039051258629122  0.6350204392791027  0.9106815090252096  1.0000
  N   N9        1.0  0.9825271743276007  0.1488924968170977  0.5934048947869071  1.0000
  N   N10       1.0  0.017485730139746608  0.3511169444915794  0.09339663191930468  1.0000
  N   N11       1.0  0.01743173552667092  0.8510879066971456  0.40659211813093776  1.0000
  N   N12       1.0  0.9825437319645121  0.6488829827862759  0.9066056290365336  1.0000
  N   N13       1.0  0.9758964453129835  0.22200572797139984  0.6021338883066178  1.0000
  N   N14       1.0  0.02411702252235411  0.2779977882268199  0.1021050399521428  1.0000
  N   N15       1.0  0.024061541163192136  0.777969559230428  0.3978807722943784  1.0000
  N   N16       1.0  0.9759142302641808  0.7220033208284705  0.8979000828417155  1.0000
  O   O1        1.0  0.304858054609504  0.24565265822300827  0.6937488798191396  1.0000
  O   O2        1.0  0.6951687822593087  0.2543451362955195  0.19375948127991896  1.0000
  O   O3        1.0  0.695107680140879  0.7543262408586174  0.3062457483757157  1.0000
  O   O4        1.0  0.3048460764701418  0.7456481573744329  0.8062423023953115  1.0000
  O   O5        1.0  0.4798745631713572  0.24038573441571026  0.7132564897503926  1.0000
  O   O6        1.0  0.5201355026263671  0.25958732798649464  0.21325004547546197  1.0000
  O   O7        1.0  0.5201064207601362  0.7596077353150648  0.28675006299007316  1.0000
  O   O8        1.0  0.4798592780318955  0.7403952182464125  0.7867436293304735  1.0000
  O   O9        1.0  0.21782937389778567  0.24493370918163748  0.0200580829389523  1.0000
  O   O10       1.0  0.7821646573829426  0.2550411635329439  0.5200759077139594  1.0000
  O   O11       1.0  0.7821591956672477  0.7550842957989945  0.979935115097909  1.0000
  O   O12       1.0  0.21781453564459952  0.7449511243450289  0.4799234904940873  1.0000
  O   O13       1.0  0.3924455820497599  0.2928399274650317  0.0382544886321341  1.0000
  O   O14       1.0  0.6075370124575558  0.2071753673156351  0.5382534096317356  1.0000
  O   O15       1.0  0.6075694079327292  0.707158460318098  0.9617382327345894  1.0000
  O   O16       1.0  0.39242251134739103  0.7928389905639647  0.4617436035903069  1.0000
  O   O17       1.0  0.783128510904497  0.13923969810095113  0.6385323028932745  1.0000
  O   O18       1.0  0.21689056886452115  0.3607447869347027  0.13853838624992676  1.0000
  O   O19       1.0  0.2168447518537633  0.860754684855479  0.3614570789414984  1.0000
  O   O20       1.0  0.7831265816858847  0.639234996911128  0.8614862917190464  1.0000
  O   O21       1.0  0.6117286219947362  0.13100637100256313  0.6726885665735125  1.0000
  O   O22       1.0  0.3882984620162162  0.3689822679312655  0.1726979691942887  1.0000
  O   O23       1.0  0.3882463450688789  0.8689756166896673  0.32731703202966855  1.0000
  O   O24       1.0  0.6117396158142229  0.6310173367416496  0.8273076306728412  1.0000
  O   O25       1.0  0.8654968028582033  0.8473873828806122  0.8410725327528893  1.0000
  O   O26       1.0  0.1345269219354535  0.6525889790828856  0.3410854723135728  1.0000
  O   O27       1.0  0.13452693459611004  0.1526157765782585  0.1589240045375107  1.0000
  O   O28       1.0  0.8654649975308646  0.34739518362579247  0.6589272810976823  1.0000
  O   O29       1.0  0.6956019359556012  0.7944209994616713  0.8350364157928496  1.0000
  O   O30       1.0  0.3044109644645659  0.7055554283968848  0.3350443318894634  1.0000
  O   O31       1.0  0.3044353786496714  0.20555256468287553  0.1649319804844183  1.0000
  O   O32       1.0  0.6955833032660762  0.294424275460706  0.6649603131018935  1.0000
  O   O33       1.0  0.516991251998185  0.32586863156453916  0.5898267015138003  1.0000
  O   O34       1.0  0.4830077338163292  0.17414426078304504  0.0897845618673756  1.0000
  O   O35       1.0  0.4829668217908961  0.6741202329971757  0.4101927288664839  1.0000
  O   O36       1.0  0.5170374142076639  0.8258770359101321  0.910170002945044  1.0000
  O   O37       1.0  0.3464209650026079  0.31953544416177954  0.5553714308309381  1.0000
  O   O38       1.0  0.653589404655236  0.18048910373910593  0.055367843996748406  1.0000
  O   O39       1.0  0.6535525192042755  0.6804470672016549  0.444626059327902  1.0000
  O   O40       1.0  0.3464708012072109  0.8195631613234369  0.9446115235827716  1.0000
  O   O41       1.0  0.40552589533093913  0.1459881334254902  0.5988707526466754  1.0000
  O   O42       1.0  0.594484522501098  0.354008970453485  0.09887762157946156  1.0000
  O   O43       1.0  0.5944355533658909  0.8540019573037865  0.4011338918562899  1.0000
  O   O44       1.0  0.4055569887741088  0.6460009120719195  0.9011227318104673  1.0000
  O   O45       1.0  0.3184307564935125  0.1421917897788205  0.5062819680998558  1.0000
  O   O46       1.0  0.6815702304227076  0.3578071568257997  0.006291493977023798  1.0000
  O   O47       1.0  0.6815326747208702  0.8577830851751787  0.49372219934052447  1.0000
  O   O48       1.0  0.31846552769760456  0.6422014322977816  0.9937131519947826  1.0000
