data_image0
_chemical_formula_structural       Zn12H56C104N16O48
_chemical_formula_sum              "Zn12 H56 C104 N16 O48"
_cell_length_a       15.271482488264581
_cell_length_b       15.271491402265301
_cell_length_c       22.406070856001236
_cell_angle_alpha    89.9999632889098
_cell_angle_beta     89.99999103911269
_cell_angle_gamma    90.00067447486848

_space_group_name_H-M_alt    "P 1"
_space_group_IT_number       1

loop_
  _space_group_symop_operation_xyz
  'x, y, z'

loop_
  _atom_site_type_symbol
  _atom_site_label
  _atom_site_symmetry_multiplicity
  _atom_site_fract_x
  _atom_site_fract_y
  _atom_site_fract_z
  _atom_site_occupancy
  Zn  Zn1       1.0  0.7570043455660029  0.6686636943507978  0.8548565240846671  1.0000
  Zn  Zn2       1.0  0.24299600016663456  0.3313369428854713  0.3548564205094635  1.0000
  Zn  Zn3       1.0  0.8313378909091683  0.2570115941113187  0.6048623092542229  1.0000
  Zn  Zn4       1.0  0.16866185733350392  0.7429886252131652  0.10486203528612491  1.0000
  Zn  Zn5       1.0  0.7429890059384691  0.16866200163632775  0.8951381267385657  1.0000
  Zn  Zn6       1.0  0.25701133055283526  0.8313379426121017  0.3951382513823276  1.0000
  Zn  Zn7       1.0  0.6686638182016795  0.7570052426188739  0.14514394550035092  1.0000
  Zn  Zn8       1.0  0.33133592080741886  0.24299559334777138  0.6451433862588658  1.0000
  Zn  Zn9       1.0  0.7230983144001186  0.7230988428344955  0.9999993203046955  1.0000
  Zn  Zn10      1.0  0.2769000335906568  0.2768996924008248  0.4999996830015477  1.0000
  Zn  Zn11      1.0  0.7768904394508171  0.22310947344037402  0.7500002163193072  1.0000
  Zn  Zn12      1.0  0.22310993032378695  0.7768906083479121  0.2500003681651108  1.0000
  H   H1        1.0  0.9914543031721909  0.7465078898295727  0.0411547030416699  1.0000
  H   H2        1.0  0.0328569886209635  0.6279993493258402  0.8692267840365134  1.0000
  H   H3        1.0  0.19316031028088082  0.6214462393804253  0.8929100903890655  1.0000
  H   H4        1.0  0.32527590279362784  0.632525819765199  0.9148684155017008  1.0000
  H   H5        1.0  0.4789683277724138  0.6463243117531617  0.95124158215868  1.0000
  H   H6        1.0  0.3768256215940369  0.7352807075178021  0.1200677262276741  1.0000
  H   H7        1.0  0.5611642365549657  0.7944675153020739  0.9138012463427999  1.0000
  H   H8        1.0  0.0085448048609891  0.2534917350489748  0.5411537273768232  1.0000
  H   H9        1.0  0.9671426989933921  0.3719999646592881  0.3692256929881736  1.0000
  H   H10       1.0  0.8068393718984624  0.37855239734611956  0.3929094599089283  1.0000
  H   H11       1.0  0.6747244291846359  0.3674760702304383  0.4148686965280106  1.0000
  H   H12       1.0  0.52103134104555  0.35367688895470206  0.4512418855564846  1.0000
  H   H13       1.0  0.6231741231462709  0.26471687813765493  0.6200675727540812  1.0000
  H   H14       1.0  0.43883478602943893  0.20553306606606003  0.4138043005276657  1.0000
  H   H15       1.0  0.7534745103976519  0.49146686497432757  0.7911470435148757  1.0000
  H   H16       1.0  0.8720133636556257  0.5328598031276072  0.6192275504770208  1.0000
  H   H17       1.0  0.8785650764925566  0.6931663739224232  0.6429059195053314  1.0000
  H   H18       1.0  0.867475900162532  0.8252928828011361  0.6648669038833647  1.0000
  H   H19       1.0  0.8536700205180098  0.9789817684508859  0.7012471900961758  1.0000
  H   H20       1.0  0.7647114351493232  0.876818909779466  0.8700675346542184  1.0000
  H   H21       1.0  0.7055146313198931  0.0611838482977873  0.6638160235935332  1.0000
  H   H22       1.0  0.24652650476425467  0.5085344874556199  0.291145523880914  1.0000
  H   H23       1.0  0.1279850716699329  0.467141712205688  0.1192274003410887  1.0000
  H   H24       1.0  0.12143466303351863  0.30683511897954213  0.14290628581839832  1.0000
  H   H25       1.0  0.13252645359246168  0.17470924412021557  0.164866433633442  1.0000
  H   H26       1.0  0.14633036044845232  0.021020323983535098  0.2012458923344056  1.0000
  H   H27       1.0  0.23528759746068323  0.1231810582194584  0.3700675220712882  1.0000
  H   H28       1.0  0.2944831389576948  0.938816315148152  0.1638147587591945  1.0000
  H   H29       1.0  0.5085335313150312  0.24652605840412176  0.7088537877964569  1.0000
  H   H30       1.0  0.46713997593313666  0.12798590295396647  0.8807728471218113  1.0000
  H   H31       1.0  0.3068339578822119  0.12143485725361808  0.8570940066837949  1.0000
  H   H32       1.0  0.17470670917726494  0.1325240349853019  0.835133445232124  1.0000
  H   H33       1.0  0.021017720751409306  0.14632991962677977  0.7987540242894582  1.0000
  H   H34       1.0  0.1231792687886113  0.23528916851897452  0.6299327892718339  1.0000
  H   H35       1.0  0.9388161900590575  0.29448520896578145  0.8361848701358029  1.0000
  H   H36       1.0  0.4914668478953957  0.7534740623767674  0.2088534748534201  1.0000
  H   H37       1.0  0.5328597090372257  0.8720140549040919  0.38077247841354017  1.0000
  H   H38       1.0  0.6931657325181749  0.8785651230434794  0.3570940643458655  1.0000
  H   H39       1.0  0.8252929862474404  0.8674740016774007  0.3351348325274444  1.0000
  H   H40       1.0  0.9789813282044765  0.8536688063219059  0.2987554011715545  1.0000
  H   H41       1.0  0.8768211285354542  0.7647136463105256  0.1299333229709845  1.0000
  H   H42       1.0  0.061183505132376616  0.7055141363308832  0.336185070173002  1.0000
  H   H43       1.0  0.7465069254387873  0.9914552393414197  0.9588443433239817  1.0000
  H   H44       1.0  0.6279994579244035  0.032854387924949394  0.1307729993772497  1.0000
  H   H45       1.0  0.621447012903005  0.1931589395853592  0.10709099044591848  1.0000
  H   H46       1.0  0.6325239934146796  0.3252757775194866  0.08513218037332142  1.0000
  H   H47       1.0  0.6463225148514199  0.4789681341939697  0.0487585221984475  1.0000
  H   H48       1.0  0.7352810926740647  0.3768249985239791  0.8799328279963845  1.0000
  H   H49       1.0  0.7944684021097076  0.5611665922511619  0.0861979032236988  1.0000
  H   H50       1.0  0.2534927416279659  0.008544644531824002  0.4588448247656914  1.0000
  H   H51       1.0  0.3720015940029954  0.9671451520377518  0.6307734610291149  1.0000
  H   H52       1.0  0.3785520800093637  0.8068406228079892  0.6070915208406619  1.0000
  H   H53       1.0  0.3674757593524944  0.6747244605020482  0.5851323228730152  1.0000
  H   H54       1.0  0.35367855588371816  0.5210314834898213  0.5487587327474586  1.0000
  H   H55       1.0  0.2647179376735879  0.6231749601259935  0.3799330419913574  1.0000
  H   H56       1.0  0.2055333148592383  0.4388336447734318  0.5861950410288372  1.0000
  C   C1        1.0  0.033964257673936515  0.7184519646786  0.0071318382322474  1.0000
  C   C2        1.0  4.060961691720001e-05  0.6879592065100156  0.9530826175874125  1.0000
  C   C3        1.0  0.058350396675784615  0.6525707533899876  0.9114635446168222  1.0000
  C   C4        1.0  0.14719178242314265  0.6491230147363608  0.9248536616299532  1.0000
  C   C5        1.0  0.17654667661642526  0.6808201310836781  0.9799748749400551  1.0000
  C   C6        1.0  0.2698257619315428  0.6802601499708629  0.9981239691682475  1.0000
  C   C7        1.0  0.3381765469972394  0.6552341999412546  0.9600575020170085  1.0000
  C   C8        1.0  0.4239344692380983  0.6623878930374544  0.9802221201558226  1.0000
  C   C9        1.0  0.4402979327297133  0.6923894348051718  0.03822518098699851  1.0000
  C   C10       1.0  0.3683155139821325  0.7125900334789321  0.0742609497380045  1.0000
  C   C11       1.0  0.9032063940550262  0.6928494473309287  0.9409505885153564  1.0000
  C   C12       1.0  0.5330427855895226  0.7083196529498182  0.0585580548223277  1.0000
  C   C13       1.0  0.6071785337869645  0.7553773145035761  0.8863667233854784  1.0000
  C   C14       1.0  0.9660361677919342  0.28154769244925143  0.5071311945884105  1.0000
  C   C15       1.0  0.9999577491368544  0.31204002800124897  0.4530819953201116  1.0000
  C   C16       1.0  0.9416492812527013  0.34742852056928086  0.4114629132394114  1.0000
  C   C17       1.0  0.8528078924346975  0.3508762465337654  0.4248530382355328  1.0000
  C   C18       1.0  0.8234529856047178  0.31917973276553374  0.47997471471507686  1.0000
  C   C19       1.0  0.7301738961275606  0.3197396966791572  0.4981242649581574  1.0000
  C   C20       1.0  0.6618231197951447  0.34476633759711445  0.4600582405642939  1.0000
  C   C21       1.0  0.5760645381148635  0.3376126253882746  0.480222424642001  1.0000
  C   C22       1.0  0.5597018307903953  0.30761019285279184  0.5382254620110984  1.0000
  C   C23       1.0  0.6316848960856591  0.2874089052189389  0.5742607855270451  1.0000
  C   C24       1.0  0.0967932771113738  0.30714979868469783  0.44095051101243854  1.0000
  C   C25       1.0  0.4669576280754272  0.29167864581398817  0.5585579063326875  1.0000
  C   C26       1.0  0.3928211499002004  0.24462263805182966  0.38636976554534647  1.0000
  C   C27       1.0  0.7815434212408621  0.533974355049736  0.7571258960887947  1.0000
  C   C28       1.0  0.8120386299389681  0.5000531842783785  0.7030771572623707  1.0000
  C   C29       1.0  0.8474363271889018  0.5583581303695908  0.6614611893737177  1.0000
  C   C30       1.0  0.8508837961683612  0.6471995000348796  0.6748521835672747  1.0000
  C   C31       1.0  0.8191784618564387  0.6765566033760066  0.7299711691027113  1.0000
  C   C32       1.0  0.8197434595550778  0.7698330150862915  0.7481224794894458  1.0000
  C   C33       1.0  0.8447643579049358  0.8381899618317161  0.7100577796535177  1.0000
  C   C34       1.0  0.8376123130913201  0.9239451233100624  0.7302250635687102  1.0000
  C   C35       1.0  0.8076087668311092  0.9403021952416141  0.7882276453165673  1.0000
  C   C36       1.0  0.787404013707736  0.8683176033029767  0.8242589681966166  1.0000
  C   C37       1.0  0.8071472460750331  0.4032165156802492  0.6909465375766075  1.0000
  C   C38       1.0  0.7916783170226938  0.033045581308527985  0.8085629564419038  1.0000
  C   C39       1.0  0.7446132704723001  0.10718745688400587  0.636380143651472  1.0000
  C   C40       1.0  0.2184582565379572  0.4660270296235396  0.2571257367853264  1.0000
  C   C41       1.0  0.18796109578864426  0.4999482516028024  0.2030765402100485  1.0000
  C   C42       1.0  0.1525634080821519  0.4416433449489362  0.1614606013540651  1.0000
  C   C43       1.0  0.14911659083925605  0.3528006529670904  0.1748529733232971  1.0000
  C   C44       1.0  0.18082322214954874  0.3234448070303983  0.22997107557833368  1.0000
  C   C45       1.0  0.1802582202846068  0.2301677233043335  0.2481219801239121  1.0000
  C   C46       1.0  0.15523733067543335  0.16181277707577374  0.21005686626013897  1.0000
  C   C47       1.0  0.16238937086038166  0.07605694167100549  0.23022418656053392  1.0000
  C   C48       1.0  0.19239159417326596  0.059697195505634695  0.2882276648095186  1.0000
  C   C49       1.0  0.21259568423015912  0.13168371774004584  0.3242589543512723  1.0000
  C   C50       1.0  0.19285182761911562  0.5967849316926747  0.1909458780542579  1.0000
  C   C51       1.0  0.2083226941452808  0.9669557546168973  0.3085621349165137  1.0000
  C   C52       1.0  0.25538581571967  0.8928114229390189  0.1363797955312549  1.0000
  C   C53       1.0  0.46602602864525994  0.21845649690823174  0.7428740402502214  1.0000
  C   C54       1.0  0.4999472386308953  0.18796128660000727  0.7969232359008345  1.0000
  C   C55       1.0  0.4416422734524447  0.15256294024570846  0.8385396463574183  1.0000
  C   C56       1.0  0.35280084712486826  0.149116132897305  0.8251477456071469  1.0000
  C   C57       1.0  0.3234430520375682  0.18082212330853054  0.7700287501025899  1.0000
  C   C58       1.0  0.23016592454318646  0.1802564776335913  0.7518778708876467  1.0000
  C   C59       1.0  0.16181091602047815  0.1552362350385579  0.7899430099559339  1.0000
  C   C60       1.0  0.07605504242366122  0.1623876280962193  0.769775710872949  1.0000
  C   C61       1.0  0.059696630479393824  0.19239117766689867  0.7117731215563623  1.0000
  C   C62       1.0  0.131681906308323  0.212595931946673  0.6757418071298106  1.0000
  C   C63       1.0  0.596783968109307  0.19285266325840664  0.8090543169051401  1.0000
  C   C64       1.0  0.9669544214946273  0.20832228036179862  0.6914375096405081  1.0000
  C   C65       1.0  0.8928119096618305  0.25538658277433507  0.8636207489505879  1.0000
  C   C66       1.0  0.5339749975749585  0.7815429368221416  0.24287415692139552  1.0000
  C   C67       1.0  0.50005246556416  0.8120380959031832  0.2969228966726618  1.0000
  C   C68       1.0  0.5583574211990555  0.8474364028197243  0.3385392855759335  1.0000
  C   C69       1.0  0.6472001602320393  0.8508838776813549  0.3251478201634583  1.0000
  C   C70       1.0  0.6765566583286786  0.8191779394954751  0.27002972787725815  1.0000
  C   C71       1.0  0.7698337899816539  0.8197429475564062  0.2518783921601653  1.0000
  C   C72       1.0  0.8381900994056936  0.844763154086536  0.2899439594063224  1.0000
  C   C73       1.0  0.9239453228081305  0.8376111253214518  0.2697771005816421  1.0000
  C   C74       1.0  0.9403030932423493  0.807608285528353  0.2117736299019199  1.0000
  C   C75       1.0  0.8683184805030709  0.7874055298423669  0.1757418855981996  1.0000
  C   C76       1.0  0.4032157333076755  0.8071473625636615  0.3090539901250366  1.0000
  C   C77       1.0  0.03304596170952582  0.7916778569227532  0.1914390142771865  1.0000
  C   C78       1.0  0.10718777923801782  0.7446127365229602  0.3636204808360333  1.0000
  C   C79       1.0  0.7184509639439229  0.033963768263319594  0.9928674741590271  1.0000
  C   C80       1.0  0.6879580898424466  4.0696680052600006e-05  0.046916712191468  1.0000
  C   C81       1.0  0.6525689367468601  0.0583491155750764  0.0885357789753058  1.0000
  C   C82       1.0  0.6491231684041312  0.14719111217124237  0.0751465315271247  1.0000
  C   C83       1.0  0.6808203356930707  0.1765466764853443  0.020024855429682  1.0000
  C   C84       1.0  0.6802597101121252  0.2698257180296651  0.001876182481773  1.0000
  C   C85       1.0  0.6552337230685269  0.3381764407955856  0.039942637938494806  1.0000
  C   C86       1.0  0.662387432204895  0.42393497966136096  0.0197779947202079  1.0000
  C   C87       1.0  0.6923890919467655  0.44029787925587976  0.961774921373987  1.0000
  C   C88       1.0  0.7125903784345342  0.3683148689212388  0.9257396129079895  1.0000
  C   C89       1.0  0.6928483263122589  0.90320529198474  0.05904804984746901  1.0000
  C   C90       1.0  0.7083193313452868  0.533042035132155  0.9414420182044907  1.0000
  C   C91       1.0  0.7553781623461759  0.6071808464770072  0.11363242431202993  1.0000
  C   C92       1.0  0.2815486953167793  0.9660354285532334  0.4928675378361618  1.0000
  C   C93       1.0  0.31204167168448294  0.9999589227413136  0.5469171660245848  1.0000
  C   C94       1.0  0.3474301604205793  0.941650464401924  0.5885367005996045  1.0000
  C   C95       1.0  0.3508765866452209  0.8528078256832287  0.5751470449614899  1.0000
  C   C96       1.0  0.3191800868159618  0.8234529684236732  0.52002583126896  1.0000
  C   C97       1.0  0.31974071655884023  0.7301739440781317  0.5018767523608219  1.0000
  C   C98       1.0  0.34476669487302297  0.6618231852387523  0.5399427884490606  1.0000
  C   C99       1.0  0.33761364517611986  0.5760646654858235  0.5197781831432167  1.0000
  C   C100      1.0  0.3076118840785754  0.5597020018482439  0.46177471198165426  1.0000
  C   C101      1.0  0.2874092962238991  0.6316850463238098  0.4257398207961103  1.0000
  C   C102      1.0  0.3071494679830167  0.09679366111394222  0.5590484491332575  1.0000
  C   C103      1.0  0.29168099452750357  0.4669578652363455  0.4414422969945235  1.0000
  C   C104      1.0  0.24462289352001684  0.3928200193603075  0.6136295778801539  1.0000
  N   N1        1.0  0.11943203305227003  0.7146427485693182  0.0200537788175907  1.0000
  N   N2        1.0  0.28599014608195017  0.7075920111416352  0.05424584399956701  1.0000
  N   N3        1.0  0.8805683894502682  0.28535689631284805  0.5200535889479028  1.0000
  N   N4        1.0  0.7140089589452432  0.2924069465160457  0.55424522253454  1.0000
  N   N5        1.0  0.7853510188148151  0.6194414659165871  0.7700469290775162  1.0000
  N   N6        1.0  0.792408939421982  0.7859949687822265  0.8042411967028258  1.0000
  N   N7        1.0  0.21465065600857974  0.38056121614162924  0.2700472535106968  1.0000
  N   N8        1.0  0.20759272755611147  0.21400702605709648  0.3042411477300675  1.0000
  N   N9        1.0  0.3805588632504923  0.21464890619144938  0.7299534402374378  1.0000
  N   N10       1.0  0.21400590570545572  0.20759165679263697  0.6957591465728186  1.0000
  N   N11       1.0  0.6194408563021484  0.7853505397754218  0.22995354614270985  1.0000
  N   N12       1.0  0.7859944765077674  0.7924084763969858  0.1957596779626201  1.0000
  N   N13       1.0  0.7146417532095841  0.11943150135763858  0.9799464041470856  1.0000
  N   N14       1.0  0.7075923414107949  0.2859901921104751  0.9457547422172042  1.0000
  N   N15       1.0  0.2853579090219114  0.8805690173333219  0.47994650444105963  1.0000
  N   N16       1.0  0.2924073286577311  0.7140097041672675  0.4457549139102923  1.0000
  O   O1        1.0  0.8564364196332903  0.7287172938251628  0.9805639543539186  1.0000
  O   O2        1.0  0.8785576504538926  0.6601072714878171  0.8913747472718897  1.0000
  O   O3        1.0  0.5875797898487818  0.7175764571427408  0.016618523516982  1.0000
  O   O4        1.0  0.5473511759923043  0.7131188490194091  0.1144763801575976  1.0000
  O   O5        1.0  0.6850143995252653  0.7453898697995881  0.910186158702146  1.0000
  O   O6        1.0  0.5860861047331201  0.7248196217969037  0.8373755444521933  1.0000
  O   O7        1.0  0.14356258763362464  0.2712819146470196  0.4805638873996615  1.0000
  O   O8        1.0  0.12144203208138293  0.3398920215085468  0.39137420664866346  1.0000
  O   O9        1.0  0.4124206334299673  0.28242122655014873  0.5166183848547234  1.0000
  O   O10       1.0  0.45264857004558234  0.286881361194034  0.6144766815803778  1.0000
  O   O11       1.0  0.3149839690615366  0.2546087505467014  0.4101874196080574  1.0000
  O   O12       1.0  0.4139129353621201  0.27517841273708404  0.3373772322026269  1.0000
  O   O13       1.0  0.7712689825308773  0.35644547722775133  0.7305541187343111  1.0000
  O   O14       1.0  0.8399062052160605  0.3785636060992771  0.6413756009030323  1.0000
  O   O15       1.0  0.7824103874422974  0.08758442420717219  0.7666243113469663  1.0000
  O   O16       1.0  0.7868851470174791  0.04735388681579171  0.864481280736328  1.0000
  O   O17       1.0  0.7546003136591112  0.1850286247242039  0.6601933152571249  1.0000
  O   O18       1.0  0.7751766548315403  0.08608559526561521  0.5873920840684193  1.0000
  O   O19       1.0  0.22873139171875329  0.6435572422489956  0.23055254250878224  1.0000
  O   O20       1.0  0.1600928798380821  0.6214365786197431  0.1413749341959729  1.0000
  O   O21       1.0  0.21758866889724973  0.9124169514496071  0.266623958766175  1.0000
  O   O22       1.0  0.21311585132339422  0.9526467413039869  0.36448001859036344  1.0000
  O   O23       1.0  0.24539942189110062  0.8149708873510094  0.1601930019217477  1.0000
  O   O24       1.0  0.22482178777158177  0.9139120213477057  0.087390837452368  1.0000
  O   O25       1.0  0.643555019641731  0.2287322297187515  0.7694471838331083  1.0000
  O   O26       1.0  0.6214362550675148  0.16009305061791682  0.8586248166442942  1.0000
  O   O27       1.0  0.9124155618237568  0.21759018946588782  0.7333761443184059  1.0000
  O   O28       1.0  0.9526454327322117  0.21311481283313324  0.635519628535377  1.0000
  O   O29       1.0  0.81497134264869  0.2453995539682978  0.8398075662670834  1.0000
  O   O30       1.0  0.9139144560095575  0.22482319866556102  0.9126088169684435  1.0000
  O   O31       1.0  0.3564440360427597  0.771267833633125  0.2694468775845138  1.0000
  O   O32       1.0  0.37856474460851086  0.8399062734212989  0.3586249246104742  1.0000
  O   O33       1.0  0.08758481176690942  0.7824105628908596  0.233376754536927  1.0000
  O   O34       1.0  0.047353653664686114  0.786885377434693  0.1355202411066401  1.0000
  O   O35       1.0  0.18502900653112428  0.7546004427140857  0.3398077318306605  1.0000
  O   O36       1.0  0.08608522165625493  0.7751760742082181  0.4126085378652178  1.0000
  O   O37       1.0  0.728714907435034  0.8564366777995928  0.0194337943362299  1.0000
  O   O38       1.0  0.6601067569997456  0.8785565335980434  0.10862390658225961  1.0000
  O   O39       1.0  0.7175767710720606  0.5875789828815313  0.9833819785977623  1.0000
  O   O40       1.0  0.7131185631223433  0.5473504500905619  0.8855236877115545  1.0000
  O   O41       1.0  0.7453913806359439  0.685016025988027  0.08981297068136479  1.0000
  O   O42       1.0  0.7248204229775795  0.586089055717025  0.1626236171869309  1.0000
  O   O43       1.0  0.2712809314986302  0.14356231282711457  0.5194359624188536  1.0000
  O   O44       1.0  0.3398923355611033  0.121443027342707  0.6086242916978861  1.0000
  O   O45       1.0  0.28242354518302193  0.4124208777427825  0.4833818356923132  1.0000
  O   O46       1.0  0.28688177557379657  0.45264950326912157  0.38552352690409464  1.0000
  O   O47       1.0  0.25460902586551987  0.31498289797238493  0.5898119421322505  1.0000
  O   O48       1.0  0.27517800238874923  0.4139111088628694  0.6626220972819965  1.0000
