data_image0
_chemical_formula_structural       Zn6C72Cl24O24
_chemical_formula_sum              "Zn6 C72 Cl24 O24"
_cell_length_a       27.947693687579378
_cell_length_b       27.947928549958544
_cell_length_c       27.947545487184254
_cell_angle_alpha    109.47250418336859
_cell_angle_beta     109.4697064175082
_cell_angle_gamma    109.47097071913444

_space_group_name_H-M_alt    "P 1"
_space_group_IT_number       1

loop_
  _space_group_symop_operation_xyz
  'x, y, z'

loop_
  _atom_site_type_symbol
  _atom_site_label
  _atom_site_symmetry_multiplicity
  _atom_site_fract_x
  _atom_site_fract_y
  _atom_site_fract_z
  _atom_site_occupancy
  Zn  Zn1       1.0  1.8687979516205248e-07  0.5403668370387463  0.5403651182461572  1.0000
  Zn  Zn2       1.0  0.540367930924198  0.999999589630427  0.5403646559555069  1.0000
  Zn  Zn3       1.0  0.45963160829547434  0.4596307061497313  0.9999967845606506  1.0000
  Zn  Zn4       1.0  0.5403667291243367  0.5403657247159758  0.9999967925011647  1.0000
  Zn  Zn5       1.0  0.4596346839711103  8.65939810434447e-07  0.45963081497612274  1.0000
  Zn  Zn6       1.0  1.5321804622533083e-07  0.45963640498887043  0.45963390648669383  1.0000
  C   C1        1.0  0.9198556415839293  0.4198578330708996  0.500004559222205  1.0000
  C   C2        1.0  0.9198665528160531  0.500001068593619  0.4198697219274547  1.0000
  C   C3        1.0  0.5000010099050699  0.33756002833602855  0.837556116162304  1.0000
  C   C4        1.0  0.1624601507648649  0.6624605248574866  0.4999986708870806  1.0000
  C   C5        1.0  0.8375582557721799  0.4999996470538832  0.3375598237352687  1.0000
  C   C6        1.0  0.8375391037064189  0.3375391997053327  0.5000019651967518  1.0000
  C   C7        1.0  0.1624384814250989  0.49999931309260864  0.6624376534628879  1.0000
  C   C8        1.0  0.4999967175460399  0.8375385283515512  0.33753919979314867  1.0000
  C   C9        1.0  0.33756036026742453  0.8375540131068815  0.4999957969191086  1.0000
  C   C10       1.0  0.5000010275086595  0.1624636308497075  0.6624626579991215  1.0000
  C   C11       1.0  0.6624417883100477  0.16244597621131623  0.5000049004847966  1.0000
  C   C12       1.0  0.6624644421744461  0.50000048680576  0.16246457222263178  1.0000
  C   C13       1.0  0.5801473364471122  0.5000016503409199  0.08014586965150972  1.0000
  C   C14       1.0  0.4999990817778937  0.6624365893424269  0.16244034888478598  1.0000
  C   C15       1.0  0.33753559568995684  0.5000008976041528  0.8375357674267718  1.0000
  C   C16       1.0  0.0801292667475409  0.5000017944740948  0.5801322841289149  1.0000
  C   C17       1.0  0.8752815605101035  0.49999880280451964  0.3752820723124088  1.0000
  C   C18       1.0  0.4999951672939744  0.875260070779106  0.37526066427143673  1.0000
  C   C19       1.0  0.12471622572425642  0.5000003299269551  0.624715256648436  1.0000
  C   C20       1.0  0.5000010539296867  0.12474100279021631  0.624739509279209  1.0000
  C   C21       1.0  0.3752806979691031  0.8752766989134031  0.4999959611260748  1.0000
  C   C22       1.0  0.6247402492434375  0.49999956639644694  0.12474175623984235  1.0000
  C   C23       1.0  0.624718926496172  0.1247238338847865  0.5000056435966158  1.0000
  C   C24       1.0  0.37525748139680093  0.49999907253444315  0.8752571956023657  1.0000
  C   C25       1.0  0.5000003885384886  0.6247143651792796  0.12471766275164224  1.0000
  C   C26       1.0  0.12473909967862803  0.6247401932748319  0.5000000861832347  1.0000
  C   C27       1.0  0.5000004110164722  0.3752886573895393  0.8752834973194011  1.0000
  C   C28       1.0  0.8752611260831314  0.375261379070082  0.5000030980023877  1.0000
  C   C29       1.0  0.4198679880991278  0.9198681186834392  0.5000000214745767  1.0000
  C   C30       1.0  0.08014670885543027  0.580148055138565  0.5000018452696365  1.0000
  C   C31       1.0  0.5801332984387741  0.08013626735656482  0.5000035819061779  1.0000
  C   C32       1.0  0.4999993800156802  0.08014342873554627  0.5801432970293376  1.0000
  C   C33       1.0  0.5000030461772269  0.580129887348896  0.0801297850136745  1.0000
  C   C34       1.0  0.49999691940450935  0.9198537789507739  0.41985422358055036  1.0000
  C   C35       1.0  0.5000034923842593  0.41987405371967423  0.9198690109760648  1.0000
  C   C36       1.0  0.41985456773904406  0.5000020386134592  0.9198535193008651  1.0000
  C   C37       1.0  0.7029274298086179  0.44646350513593097  0.2001986416355874  1.0000
  C   C38       1.0  0.49832193893936255  0.7006883931138361  0.25426545955923524  1.0000
  C   C39       1.0  0.2460942194850659  0.502409841046166  0.799645906037071  1.0000
  C   C40       1.0  0.44645051019173115  0.24368902046263938  0.7461341683893182  1.0000
  C   C41       1.0  0.2972365566264374  0.49759135743473604  0.7436844421380826  1.0000
  C   C42       1.0  0.5016684996599706  0.7559335511043699  0.20236217995061864  1.0000
  C   C43       1.0  0.7537337220409839  0.553536490727815  0.2564653104033423  1.0000
  C   C44       1.0  0.5535525192152236  0.29968607282256704  0.7972372560999474  1.0000
  C   C45       1.0  0.255726299251684  0.7545230692301742  0.553584877079551  1.0000
  C   C46       1.0  0.7969410070954551  0.5535239160426997  0.2999487270567514  1.0000
  C   C47       1.0  0.744006381617865  0.29758197936516945  0.49825319975550286  1.0000
  C   C48       1.0  0.20288371117903387  0.5026812557693391  0.7564242715308963  1.0000
  C   C49       1.0  0.7993324793369538  0.24576178420690545  0.5017585622175459  1.0000
  C   C50       1.0  0.7464227850943603  0.44647606211045593  0.24341928857345602  1.0000
  C   C51       1.0  0.20094167860039377  0.7021348110989293  0.4464091363024351  1.0000
  C   C52       1.0  0.2537438354847553  0.4973193712996392  0.7002010444208153  1.0000
  C   C53       1.0  0.5013820745877451  0.7991448093913361  0.2455670721811457  1.0000
  C   C54       1.0  0.24415716996536918  0.7456265655668801  0.44641583342237806  1.0000
  C   C55       1.0  0.4464435559091838  0.20046571985831443  0.7026475339998086  1.0000
  C   C56       1.0  0.7005240382867158  0.2540915634946543  0.49798281683202117  1.0000
  C   C57       1.0  0.5535606980173924  0.256207084418115  0.754021242674078  1.0000
  C   C58       1.0  0.2992128880039999  0.797728496928535  0.5535767397494026  1.0000
  C   C59       1.0  0.498606503854006  0.744180102862394  0.2977620983081122  1.0000
  C   C60       1.0  0.7561125460397164  0.2025508773403715  0.5020293552985464  1.0000
  C   C61       1.0  0.7061617406453495  0.5000002626158917  0.20616159098138087  1.0000
  C   C62       1.0  0.49999586455803785  0.7061247593746884  0.20612815316852798  1.0000
  C   C63       1.0  0.29383828503006987  0.5000006713697971  0.7938381378372483  1.0000
  C   C64       1.0  0.5000014400441799  0.29387476820613045  0.7938714095178625  1.0000
  C   C65       1.0  0.20615603611279454  0.7061530862004942  0.4999971876992148  1.0000
  C   C66       1.0  0.7938694538103306  0.5000000415802361  0.29387131295450775  1.0000
  C   C67       1.0  0.7938444431039431  0.29384654845808467  0.5000055338527504  1.0000
  C   C68       1.0  0.2061268790514815  0.49999982890437866  0.7061256582317483  1.0000
  C   C69       1.0  0.4999948988922539  0.7938413782687093  0.29384286941544946  1.0000
  C   C70       1.0  0.29387177164860395  0.7938639280079585  0.49999609424198593  1.0000
  C   C71       1.0  0.5000019601948439  0.20616208612002412  0.7061607160904657  1.0000
  C   C72       1.0  0.7061300904821907  0.20613314551241058  0.500005658617539  1.0000
  Cl  Cl1       1.0  0.7429561272389904  0.3821057889950978  0.23655676282498903  1.0000
  Cl  Cl2       1.0  0.7570954953772855  0.6178781304387541  0.26332825294669227  1.0000
  Cl  Cl3       1.0  0.6401980524957693  0.2581912811126302  0.4958016036362167  1.0000
  Cl  Cl4       1.0  0.24251985269354043  0.5055130780705781  0.860437185073188  1.0000
  Cl  Cl5       1.0  0.7623958518691795  0.14440956962238263  0.5042158496059201  1.0000
  Cl  Cl6       1.0  0.6454461044064459  0.3821215786550739  0.1392208692768832  1.0000
  Cl  Cl7       1.0  0.23818036882667573  0.7412173197359452  0.3819756540153136  1.0000
  Cl  Cl8       1.0  0.35492686754317754  0.4944926873346134  0.7370094677020376  1.0000
  Cl  Cl9       1.0  0.5034514542205529  0.7620130134107869  0.1440101390845568  1.0000
  Cl  Cl10      1.0  0.14084956815235464  0.6437103850496514  0.38198718398989934  1.0000
  Cl  Cl11      1.0  0.382047020830207  0.23715531617447985  0.742306084272883  1.0000
  Cl  Cl12      1.0  0.49671517082202843  0.7380803448409096  0.35607750824380685  1.0000
  Cl  Cl13      1.0  0.7377166568484695  0.3556953938525923  0.4959797178633777  1.0000
  Cl  Cl14      1.0  0.6179561065470408  0.36026232474266345  0.8551053550629106  1.0000
  Cl  Cl15      1.0  0.26172279826180767  0.7588503440505363  0.6180068218705017  1.0000
  Cl  Cl16      1.0  0.4965387939592673  0.6405562113533421  0.2585662810071411  1.0000
  Cl  Cl17      1.0  0.8597217979298862  0.24174818872168652  0.5040361357239646  1.0000
  Cl  Cl18      1.0  0.1451737056681425  0.50568880020667  0.7631037984026747  1.0000
  Cl  Cl19      1.0  0.3820641090650555  0.13981938997957144  0.6448039044347526  1.0000
  Cl  Cl20      1.0  0.25741575014152573  0.4943114923601329  0.6394830677794374  1.0000
  Cl  Cl21      1.0  0.5032707903844624  0.8593475053522182  0.24135315412919997  1.0000
  Cl  Cl22      1.0  0.8544457155251308  0.6178931687582575  0.36085431820292485  1.0000
  Cl  Cl23      1.0  0.6179408358676  0.26274504416091576  0.7577524902604864  1.0000
  Cl  Cl24      1.0  0.3592444464764103  0.8561874663084482  0.6180171891865812  1.0000
  O   O1        1.0  0.9373433342618682  0.47295991043860397  0.5353246838863652  1.0000
  O   O2        1.0  0.46468055465562935  0.5270062301214082  0.06262860691429478  1.0000
  O   O3        1.0  0.5356150801155904  0.06265381241811946  0.597976508751735  1.0000
  O   O4        1.0  0.5353210968886728  0.597947686341854  0.062329218409373985  1.0000
  O   O5        1.0  0.464676571945283  0.9376422549898464  0.4020236127910904  1.0000
  O   O6        1.0  0.5356199787204544  0.4729932781244343  0.9376720853892877  1.0000
  O   O7        1.0  0.5353186734241505  0.9373440240652684  0.47296200509325786  1.0000
  O   O8        1.0  0.46437871423332683  0.4020527754443961  0.9373732986989366  1.0000
  O   O9        1.0  0.40201821046347436  0.46467881650023923  0.9376397627854374  1.0000
  O   O10       1.0  0.9376685643441223  0.5356182196407531  0.4729901872546307  1.0000
  O   O11       1.0  0.47295737318916053  0.5353220289452807  0.9373432096940276  1.0000
  O   O12       1.0  0.40204775473466703  0.9373710971746261  0.4643825344295108  1.0000
  O   O13       1.0  0.9373706703620639  0.46437610617137887  0.4020480536618363  1.0000
  O   O14       1.0  0.5270392960038492  0.4643823707044561  0.062363870568219466  1.0000
  O   O15       1.0  0.06262640251016927  0.46467546555211936  0.5270047077288424  1.0000
  O   O16       1.0  0.5979788154894976  0.5356162397213922  0.06265923649760179  1.0000
  O   O17       1.0  0.062327882383016064  0.535319409561552  0.5979499456322158  1.0000
  O   O18       1.0  0.9376409673317311  0.4020192798291404  0.4646781051302041  1.0000
  O   O19       1.0  0.47298738295884135  0.9376692691192119  0.5356206436787686  1.0000
  O   O20       1.0  0.06265731396437968  0.5979801674241401  0.5356195330864892  1.0000
  O   O21       1.0  0.5979517376561175  0.06233393453129557  0.5353232372874358  1.0000
  O   O22       1.0  0.06236162349620863  0.5270386864096963  0.46438099202724453  1.0000
  O   O23       1.0  0.5270117328803465  0.06263401222633298  0.46468199513910247  1.0000
  O   O24       1.0  0.46438165480724786  0.06235940235679745  0.5270370422153974  1.0000
