data_image0
_chemical_formula_structural       Dy4H56C44N4O32
_chemical_formula_sum              "Dy4 H56 C44 N4 O32"
_cell_length_a       8.343909023
_cell_length_b       11.915248332413293
_cell_length_c       13.2553
_cell_angle_alpha    90.0
_cell_angle_beta     90.0
_cell_angle_gamma    96.43675291565758

_space_group_name_H-M_alt    "P 1"
_space_group_IT_number       1

loop_
  _space_group_symop_operation_xyz
  'x, y, z'

loop_
  _atom_site_type_symbol
  _atom_site_label
  _atom_site_symmetry_multiplicity
  _atom_site_fract_x
  _atom_site_fract_y
  _atom_site_fract_z
  _atom_site_occupancy
  Dy  Dy1       1.0  0.004917578055810202  0.3352748330313844  0.5952215340278997  1.0000
  Dy  Dy2       1.0  0.49508494618800114  0.6647254091955404  0.09522077961268138  1.0000
  Dy  Dy3       1.0  0.9950844054941825  0.6647254091955404  0.40477846597210027  1.0000
  Dy  Dy4       1.0  0.5049159740924338  0.3352756776161954  0.9047792203873186  1.0000
  H   H1        1.0  0.8028627629275888  0.521527743400128  0.6142071473297506  1.0000
  H   H2        1.0  0.6971385447191238  0.4784716542419859  0.1142063929145323  1.0000
  H   H3        1.0  0.19713668845487584  0.4784716542419859  0.3857928526702494  1.0000
  H   H4        1.0  0.302859843393783  0.521528587984939  0.8857920982550381  1.0000
  H   H5        1.0  0.7788519158359791  0.4679151886701335  0.7256636967854391  1.0000
  H   H6        1.0  0.7211493918107408  0.5320842089719804  0.2256629423702208  1.0000
  H   H7        1.0  0.22114753554649266  0.5320842089719804  0.2743363032145609  1.0000
  H   H8        1.0  0.2788513932602257  0.4679160332549444  0.7743363032145608  1.0000
  H   H9        1.0  0.9355480983284322  0.2640999817095704  0.8075215196940064  1.0000
  H   H10       1.0  0.5644520108392541  0.7358994159325435  0.3075215196940064  1.0000
  H   H11       1.0  0.06445361480263048  0.7358985713477324  0.1924777258907753  1.0000
  H   H12       1.0  0.4355486390222438  0.2640999817095704  0.6924784803059936  1.0000
  H   H13       1.0  0.12541728345301098  0.2544742486011273  0.797952517106367  1.0000
  H   H14       1.0  0.37458404231177406  0.7455259936257975  0.2979517626911488  1.0000
  H   H15       1.0  0.8745858985760152  0.7455259936257975  0.2020482373088512  1.0000
  H   H16       1.0  0.6254155442801661  0.2544742486011273  0.7020489917240624  1.0000
  H   H17       1.0  0.1567395803504255  0.2008203092153167  0.3797673383476763  1.0000
  H   H18       1.0  0.3432604117258578  0.7991790884267972  0.8797658295172468  1.0000
  H   H19       1.0  0.8432596006131093  0.799177399257168  0.6202341704827532  1.0000
  H   H20       1.0  0.6567403733451088  0.20082115380012774  0.1202326616523237  1.0000
  H   H21       1.0  0.0639702728338492  0.051634537099040805  0.2527321147012884  1.0000
  H   H22       1.0  0.43602985445190257  0.948365705127884  0.7527313602860772  1.0000
  H   H23       1.0  0.9360289081296926  0.9483631713734441  0.747269394129141  1.0000
  H   H24       1.0  0.5639721290980972  0.051634537099040805  0.2472671308834933  1.0000
  H   H25       1.0  0.8101576965547751  0.9261379220316288  0.2854578923147741  1.0000
  H   H26       1.0  0.68984254782238  0.07386232019529611  0.7854571378995557  1.0000
  H   H27       1.0  0.1898416196182282  0.07386063102567421  0.7145443709308736  1.0000
  H   H28       1.0  0.3101582372485865  0.9261379220316288  0.2145421076852259  1.0000
  H   H29       1.0  0.6519532198093642  0.9587828142056694  0.44404728674567906  1.0000
  H   H30       1.0  0.8480459612982186  0.0412182726060664  0.9440465323304608  1.0000
  H   H31       1.0  0.3480439698245092  0.0412174280212554  0.5559542220847504  1.0000
  H   H32       1.0  0.15195376050318288  0.9587828142056694  0.0559534676695392  1.0000
  H   H33       1.0  0.520064868664214  0.22792303584951412  0.5007513975541826  1.0000
  H   H34       1.0  0.9799339068149777  0.7720755172077817  0.0007521519694009  1.0000
  H   H35       1.0  0.4799356459878227  0.7720755172077817  0.4992470936153808  1.0000
  H   H36       1.0  0.020065544567494004  0.22792388043432515  0.999247848030599  1.0000
  H   H37       1.0  0.5694243102413665  0.37192981389533497  0.5256893469027517  1.0000
  H   H38       1.0  0.9305744652378182  0.6280687391619679  0.0256901013179629  1.0000
  H   H39       1.0  0.4305750059316368  0.6280687391619679  0.47430989868203705  1.0000
  H   H40       1.0  0.06942631983314841  0.3719315030649568  0.9743098986820369  1.0000
  H   H41       1.0  0.47767562579365824  0.4174968537011381  0.3474089609439233  1.0000
  H   H42       1.0  0.022324366282632  0.5825025439409757  0.8474097153591416  1.0000
  H   H43       1.0  0.5223251592773153  0.5825033885257868  0.6525902846408583  1.0000
  H   H44       1.0  0.9776764187883343  0.4174976982859491  0.1525902846408584  1.0000
  H   H45       1.0  0.4286779307280852  0.2714301332975495  0.3255950450008669  1.0000
  H   H46       1.0  0.07132192613872952  0.7285684197597535  0.8255957994160851  1.0000
  H   H47       1.0  0.5713227191334127  0.7285692643445644  0.6744034461687036  1.0000
  H   H48       1.0  0.9286775252437423  0.27143097788236054  0.17440420058391476  1.0000
  H   H49       1.0  0.7189994598087852  0.2402919804290633  0.3552412997065346  1.0000
  H   H50       1.0  0.7810018478379348  0.7597074172130434  0.8552397908761051  1.0000
  H   H51       1.0  0.28100132526218147  0.7597082617978614  0.6447594547086837  1.0000
  H   H52       1.0  0.2189976035445369  0.2402919804290633  0.1447594547086837  1.0000
  H   H53       1.0  0.6881708673377674  0.32933317887520996  0.2504552895822769  1.0000
  H   H54       1.0  0.8118315035785173  0.6706653741820858  0.7504537807518472  1.0000
  H   H55       1.0  0.311830981002764  0.6706662187668969  0.7495454648329343  1.0000
  H   H56       1.0  0.18816901107351922  0.32933317887520996  0.2495447104177231  1.0000
  C   C1        1.0  0.0456803149376341  0.14519088595299223  0.39137326201594647  1.0000
  C   C2        1.0  0.4543198123481175  0.8548093562739325  0.8913725076007353  1.0000
  C   C3        1.0  0.9543188660259075  0.8548068225194926  0.6086274923992647  1.0000
  C   C4        1.0  0.545680972722849  0.14519088595299223  0.1086267379840535  1.0000
  C   C5        1.0  0.994410199297292  0.0620001265032641  0.3209221971588718  1.0000
  C   C6        1.0  0.505590045079856  0.9380001157236607  0.820919933913224  1.0000
  C   C7        1.0  0.005588981666242874  0.9379975819692207  0.6790808205019871  1.0000
  C   C8        1.0  0.49441193847014386  0.0620001265032641  0.1790785572563394  1.0000
  C   C9        1.0  0.8519180461346424  0.9920805704397965  0.3390726728176645  1.0000
  C   C10       1.0  0.6480833967215389  0.0079196717871284  0.839071163987235  1.0000
  C   C11       1.0  0.14808007155932765  0.0079179826174993  0.6609288360127649  1.0000
  C   C12       1.0  0.3519197853074871  0.9920805704397965  0.1609265727671172  1.0000
  C   C13       1.0  0.7657664623647308  0.0086958452298447  0.4266738587583845  1.0000
  C   C14       1.0  0.7342327187428596  0.991305241581891  0.9266731043431662  1.0000
  C   C15       1.0  0.23423086247861138  0.991305241581891  0.573327650072045  1.0000
  C   C16       1.0  0.265768336747044  0.0086966898146557  0.0733268956568338  1.0000
  C   C17       1.0  0.8242965270670979  0.095012413070755  0.49246188317125916  1.0000
  C   C18       1.0  0.6757038525195256  0.9049886737409807  0.9924603743408298  1.0000
  C   C19       1.0  0.17570319473431079  0.9049886737409807  0.5075396256591702  1.0000
  C   C20       1.0  0.324295869281876  0.095012413070755  0.0075388712439519  1.0000
  C   C21       1.0  0.7281394730035515  0.1189268320376442  0.5847298816322564  1.0000
  C   C22       1.0  0.7718558422480156  0.8810725656044697  0.0847276183866086  1.0000
  C   C23       1.0  0.2718565181512957  0.8810734101892806  0.4152723816133914  1.0000
  C   C24       1.0  0.2281426810743596  0.11892852120726623  0.9152716271981802  1.0000
  C   C25       1.0  0.3195596827584453  0.3186441134877924  0.5202718912435031  1.0000
  C   C26       1.0  0.1804404445273065  0.6813561287391323  0.0202718912435031  1.0000
  C   C27       1.0  0.6804421655820933  0.6813552841543213  0.4797281087564969  1.0000
  C   C28       1.0  0.8195591420646267  0.3186441134877924  0.9797288631717151  1.0000
  C   C29       1.0  0.4876077975770415  0.3120098997853376  0.4809359275157874  1.0000
  C   C30       1.0  0.012390996020215475  0.6879894978567691  0.9809366819309984  1.0000
  C   C31       1.0  0.5123928522844565  0.6879894978567691  0.5190633180690014  1.0000
  C   C32       1.0  0.9876085905717247  0.3120107443701556  0.0190633180690014  1.0000
  C   C33       1.0  0.5099056123673833  0.3335037386795037  0.3680203390341958  1.0000
  C   C34       1.0  0.9900956952793363  0.6664956589626101  0.8680210934494141  1.0000
  C   C35       1.0  0.4900951727035832  0.6664965035474212  0.6319789065505856  1.0000
  C   C36       1.0  0.00990508979163  0.3335045832643146  0.1319789065505859  1.0000
  C   C37       1.0  0.6833999652231171  0.32272430271714114  0.33301622747127607  1.0000
  C   C38       1.0  0.8166014776330642  0.6772759395097837  0.8330154730560579  1.0000
  C   C39       1.0  0.3166021535363441  0.6772767840946017  0.6669837725287237  1.0000
  C   C40       1.0  0.183398108958869  0.32272430271714114  0.16698452694394209  1.0000
  C   C41       1.0  0.800631805325402  0.4158625820888844  0.3774263879353938  1.0000
  C   C42       1.0  0.6993649788241215  0.5841385047228513  0.8774248791049644  1.0000
  C   C43       1.0  0.19936671799696626  0.5841385047228513  0.6225743664798244  1.0000
  C   C44       1.0  0.3006346077678117  0.4158617375040734  0.12257436647982438  1.0000
  N   N1        1.0  0.9625772492392032  0.1630715910191398  0.4757546038188494  1.0000
  N   N2        1.0  0.5374231303474204  0.836929495792603  0.9757538494036382  1.0000
  N   N3        1.0  0.03742233735273708  0.8369286512077849  0.5242453961811506  1.0000
  N   N4        1.0  0.4625777899330146  0.1630715910191398  0.0242453961811506  1.0000
  O   O1        1.0  0.6090809827334739  0.052610877142328115  0.6092921322037199  1.0000
  O   O2        1.0  0.8909126116073621  0.9473927434238406  0.10929062337329037  1.0000
  O   O3        1.0  0.3909183518456985  0.9473952771782805  0.3907093766267096  1.0000
  O   O4        1.0  0.10908018973879051  0.0526100325575172  0.8907078677962801  1.0000
  O   O5        1.0  0.7769823959374519  0.21295530380179883  0.6313753743785497  1.0000
  O   O6        1.0  0.7230189117092608  0.787044093840315  0.1313753743785497  1.0000
  O   O7        1.0  0.2230195876125478  0.7870449384251259  0.3686253800366614  1.0000
  O   O8        1.0  0.2769821437806356  0.2129578375562318  0.8686261344518795  1.0000
  O   O9        1.0  0.21816885708270212  0.3706544908284074  0.4710002791336265  1.0000
  O   O10       1.0  0.2818311349935811  0.6293449068136994  0.9709995247184152  1.0000
  O   O11       1.0  0.781831522359866  0.6293432176440774  0.5289997208663735  1.0000
  O   O12       1.0  0.7181696500773853  0.3706553354132183  0.0290004752815847  1.0000
  O   O13       1.0  0.27604562378294883  0.2708760856605252  0.6038927825096394  1.0000
  O   O14       1.0  0.22395303460483973  0.7291224673967704  0.1038935369248506  1.0000
  O   O15       1.0  0.7239539628089845  0.7291241565663995  0.3961072174903606  1.0000
  O   O16       1.0  0.7760462815681635  0.2708760856605252  0.8961072174903606  1.0000
  O   O17       1.0  0.878653042050253  0.39836869686688203  0.4567501301366264  1.0000
  O   O18       1.0  0.6213472023268949  0.6016315453600427  0.9567501301366264  1.0000
  O   O19       1.0  0.1213489414997397  0.6016315453600427  0.5432491154481625  1.0000
  O   O20       1.0  0.3786523842650383  0.39836869686688203  0.04324911544816249  1.0000
  O   O21       1.0  0.8130565837160475  0.5126013265164602  0.3343530512323341  1.0000
  O   O22       1.0  0.6869424621820741  0.4873989157104647  0.8343530512323339  1.0000
  O   O23       1.0  0.18694420135492612  0.4873989157104647  0.6656461943524477  1.0000
  O   O24       1.0  0.3130569892003905  0.5126004819316492  0.1656469487676659  1.0000
  O   O25       1.0  0.829858022317552  0.4590217105941505  0.6580786553303213  1.0000
  O   O26       1.0  0.6701458174966959  0.5409785316327671  0.1580763920846735  1.0000
  O   O27       1.0  0.170142627543953  0.5409776870479561  0.341922099084897  1.0000
  O   O28       1.0  0.32985496757427063  0.4590217105941505  0.8419220990848969  1.0000
  O   O29       1.0  0.0294646284658882  0.2783852892287584  0.7614855944414671  1.0000
  O   O30       1.0  0.4705353636103951  0.7216141084133554  0.2614855944414671  1.0000
  O   O31       1.0  0.9705360213956099  0.7216141084133554  0.2385144055585329  1.0000
  O   O32       1.0  0.5294640877720767  0.2783852892287584  0.7385144055585329  1.0000
