data_image0
_chemical_formula_structural       Gd4H32C36N4O40
_chemical_formula_sum              "Gd4 H32 C36 N4 O40"
_cell_length_a       10.067917738083784
_cell_length_b       10.406215506082079
_cell_length_c       11.74864624100068
_cell_angle_alpha    90.0000333024331
_cell_angle_beta     89.99997896957834
_cell_angle_gamma    90.90701675773916

_space_group_name_H-M_alt    "P 1"
_space_group_IT_number       1

loop_
  _space_group_symop_operation_xyz
  'x, y, z'

loop_
  _atom_site_type_symbol
  _atom_site_label
  _atom_site_symmetry_multiplicity
  _atom_site_fract_x
  _atom_site_fract_y
  _atom_site_fract_z
  _atom_site_occupancy
  Gd  Gd1       1.0  0.6230120984371865  0.9802766819524535  0.15696547280683865  1.0000
  Gd  Gd2       1.0  0.3769881285698915  0.5197241354477597  0.6569651273529404  1.0000
  Gd  Gd3       1.0  0.3769878257552791  0.019723107296343304  0.8430349468159337  1.0000
  Gd  Gd4       1.0  0.6230118142934841  0.4802766148808218  0.34303358994628763  1.0000
  H   H1        1.0  0.5992486183109023  0.8211782872209454  0.37446794157558844  1.0000
  H   H2        1.0  0.40075149974104113  0.6788217101734518  0.8744676706648635  1.0000
  H   H3        1.0  0.40075132455229584  0.1788224631079061  0.6255316268855327  1.0000
  H   H4        1.0  0.5992484244516021  0.321178079075068  0.12553189779601587  1.0000
  H   H5        1.0  0.467261071795548  0.9016858323664109  0.36364205507868524  1.0000
  H   H6        1.0  0.532739050750024  0.5983141580064455  0.8636425520346908  1.0000
  H   H7        1.0  0.5327388523970953  0.0983139568821088  0.6363575133821868  1.0000
  H   H8        1.0  0.4672618666456572  0.40168562839179606  0.13635701642603246  1.0000
  H   H9        1.0  0.4537635279986461  0.7280428030846977  0.1822823939450729  1.0000
  H   H10       1.0  0.5462366698287155  0.7719570696563028  0.6822829761953673  1.0000
  H   H11       1.0  0.5462363961940042  0.2719569861638149  0.8177171745157994  1.0000
  H   H12       1.0  0.45376325436375  0.22804271959248723  0.31771744342740504  1.0000
  H   H13       1.0  0.4234201374340784  0.7939800109280453  0.060800334265628905  1.0000
  H   H14       1.0  0.5765801108202737  0.7060197830180641  0.560800021740782  1.0000
  H   H15       1.0  0.5765807799614321  0.2060197754704802  0.9392000853569868  1.0000
  H   H16       1.0  0.42341981337236945  0.29398000623044845  0.43919954672009714  1.0000
  H   H17       1.0  0.9664478195231044  0.8550991058827152  0.052221403363283514  1.0000
  H   H18       1.0  0.033553425495171006  0.6449006796490553  0.5522220823223166  1.0000
  H   H19       1.0  0.033554091075615106  0.14490067766525533  0.9477781650972762  1.0000
  H   H20       1.0  0.9664474919003397  0.3550991067494706  0.4477783373002993  1.0000
  H   H21       1.0  0.2878144522926789  0.5873639745551743  0.015883638066704002  1.0000
  H   H22       1.0  0.7121868078094736  0.9126357874072185  0.5158833892010436  1.0000
  H   H23       1.0  0.7121874583058698  0.4126358089930732  0.9841167815557558  1.0000
  H   H24       1.0  0.2878141095863853  0.0873639989907531  0.4841153280977793  1.0000
  H   H25       1.0  0.937827186084718  0.4793615877407331  0.2069965900035343  1.0000
  H   H26       1.0  0.062173522306487386  0.0206390044308762  0.7069963446485236  1.0000
  H   H27       1.0  0.0621737313107928  0.5206381986577853  0.7930038296190746  1.0000
  H   H28       1.0  0.9378264205565331  0.9793617458982596  0.2930040749744975  1.0000
  H   H29       1.0  0.24703051401719733  0.13325301086768349  0.14834219268981744  1.0000
  H   H30       1.0  0.7529652527062396  0.36674755751109706  0.64834105608702  1.0000
  H   H31       1.0  0.7529644441598934  0.866746792632732  0.8516590780956435  1.0000
  H   H32       1.0  0.24703069867441493  0.633252243138223  0.3516576612125989  1.0000
  C   C1        1.0  0.8021565373777264  0.7012346238999142  0.17823846174073316  1.0000
  C   C2        1.0  0.19784564853448933  0.7987652405173762  0.6782383169097272  1.0000
  C   C3        1.0  0.1978453732208223  0.29876515964834033  0.8217619578817195  1.0000
  C   C4        1.0  0.8021552688610214  0.20123454588114242  0.32176210271288863  1.0000
  C   C5        1.0  0.937295645306257  0.6699098114394674  0.132417833976902  1.0000
  C   C6        1.0  0.0627045918902311  0.8300909900392314  0.6324185992321959  1.0000
  C   C7        1.0  0.0627052907598014  0.3300909360393973  0.8675825856459556  1.0000
  C   C8        1.0  0.9372953509727894  0.16990976028989724  0.36758182039081794  1.0000
  C   C9        1.0  0.0086900388618432  0.7608990434323673  0.06832551367219962  1.0000
  C   C10       1.0  0.9913102062688566  0.7391007553946238  0.5683250869643433  1.0000
  C   C11       1.0  0.9913108785336605  0.23910074296615846  0.9316749059504094  1.0000
  C   C12       1.0  0.008689717923609001  0.2608990338541659  0.43167533265842917  1.0000
  C   C13       1.0  0.13521269175755182  0.732542912714152  0.026347883994020504  1.0000
  C   C14       1.0  0.8647875894682926  0.7674578199663173  0.52634836311411  1.0000
  C   C15       1.0  0.8647882256379519  0.2674568736843669  0.9736525356285954  1.0000
  C   C16       1.0  0.13521233472399533  0.23254196928274953  0.4736529076705623  1.0000
  C   C17       1.0  0.19080242526498378  0.6131085923786017  0.048792132408998205  1.0000
  C   C18       1.0  0.8091978466443097  0.886892154859481  0.54879269072584  1.0000
  C   C19       1.0  0.8091984921305198  0.386891194019917  0.9512082872136177  1.0000
  C   C20       1.0  0.190802096218718  0.1131085954696545  0.451207728897174  1.0000
  C   C21       1.0  0.11832779711221521  0.524833649318694  0.11388217355676034  1.0000
  C   C22       1.0  0.8816724477784135  0.9751671401375149  0.6138827544707369  1.0000
  C   C23       1.0  0.8816731389538502  0.47516709816017066  0.8861182460660973  1.0000
  C   C24       1.0  0.1183274764142297  0.024832649110997793  0.3861168139901424  1.0000
  C   C25       1.0  0.9921113706264819  0.5502576130925689  0.15618138339565493  1.0000
  C   C26       1.0  0.007889831238486501  0.9497422398685771  0.6561813765528443  1.0000
  C   C27       1.0  0.007890539971889203  0.4497421704559629  0.8438198873886978  1.0000
  C   C28       1.0  0.9921110861570168  0.0502575465299486  0.3438190430697716  1.0000
  C   C29       1.0  0.21218719585835544  0.831587266093507  0.9609474907717088  1.0000
  C   C30       1.0  0.7878128862961234  0.6684127873926116  0.46094762321192223  1.0000
  C   C31       1.0  0.787813721537333  0.16841252030473436  0.03905207768900711  1.0000
  C   C32       1.0  0.2121870378963422  0.3315870018561853  0.5390527964108501  1.0000
  C   C33       1.0  0.3497365205781975  0.09930896597293778  0.1388815032196504  1.0000
  C   C34       1.0  0.6502561957806351  0.4006877604995437  0.638882118951159  1.0000
  C   C35       1.0  0.6502563765111162  0.9006869989058189  0.8611172140794566  1.0000
  C   C36       1.0  0.34973572677584036  0.599309168310377  0.36111830067213907  1.0000
  N   N1        1.0  0.17769264719989764  0.40032428078703935  0.1368830799449654  1.0000
  N   N2        1.0  0.8223091021688376  0.09967722413818343  0.6368826348041028  1.0000
  N   N3        1.0  0.822308288866161  0.5996764666918252  0.8631173396778921  1.0000
  N   N4        1.0  0.177690822023628  0.9003225651106062  0.36311778481866963  1.0000
  O   O1        1.0  0.5619644209220381  0.9025616428541384  0.3449581855590013  1.0000
  O   O2        1.0  0.43803570937932074  0.597438335399886  0.8449578608713683  1.0000
  O   O3        1.0  0.43803550327060503  0.09743814639437429  0.6550413829018782  1.0000
  O   O4        1.0  0.5619652080163605  0.40256145099836255  0.15504170758935493  1.0000
  O   O5        1.0  0.7719874478406511  0.8194003504150372  0.1815120656383726  1.0000
  O   O6        1.0  0.2280137435096705  0.6805995189757965  0.6815118503097823  1.0000
  O   O7        1.0  0.22801346955485258  0.18059943598348133  0.8184883539842434  1.0000
  O   O8        1.0  0.7719871738860107  0.31940026742245214  0.3184877181509337  1.0000
  O   O9        1.0  0.7286038446820059  0.6090028922561928  0.21050344355195705  1.0000
  O   O10       1.0  0.27139636010124246  0.8909979598699634  0.7105050253421796  1.0000
  O   O11       1.0  0.2713970913842374  0.3909978552223947  0.7894961249090076  1.0000
  O   O12       1.0  0.7286035827616076  0.1090027904594493  0.2894962454427343  1.0000
  O   O13       1.0  0.47076267990247084  0.804813593688607  0.13425474995858624  1.0000
  O   O14       1.0  0.5292375378613629  0.6951862479005727  0.6342535956659747  1.0000
  O   O15       1.0  0.529237244289817  0.19518619556045988  0.865746520826079  1.0000
  O   O16       1.0  0.4707633795344961  0.3048135384973918  0.3657451216328554  1.0000
  O   O17       1.0  0.1603355671852924  0.9352982391830907  0.9312258035065853  1.0000
  O   O18       1.0  0.8396655391803519  0.5647027532549913  0.43122501488136333  1.0000
  O   O19       1.0  0.8396653688807734  0.064702508295774  0.06877461611627211  1.0000
  O   O20       1.0  0.16033440368285312  0.43529799707386735  0.5687745535797577  1.0000
  O   O21       1.0  0.33647405988156004  0.8093686310292725  0.9379643918824601  1.0000
  O   O22       1.0  0.6635260318129426  0.6906314075500501  0.4379654262770886  1.0000
  O   O23       1.0  0.6635258643110831  0.19063115821924012  0.06203517657841932  1.0000
  O   O24       1.0  0.33647488558239047  0.3093683788487525  0.5620358445074203  1.0000
  O   O25       1.0  0.287566234418307  0.377537642811177  0.09265923809625323  1.0000
  O   O26       1.0  0.7124345027634363  0.12246191411957603  0.5926588394792988  1.0000
  O   O27       1.0  0.7124336711036037  0.622461185357274  0.9073411815262776  1.0000
  O   O28       1.0  0.2875654214292069  0.8775378751289364  0.4073407289815805  1.0000
  O   O29       1.0  0.11572839274370493  0.3224647773137335  0.1974313222432826  1.0000
  O   O30       1.0  0.8842732941505319  0.17753484472306977  0.6974308976528577  1.0000
  O   O31       1.0  0.8842735178548368  0.6775350062345211  0.8025690973791769  1.0000
  O   O32       1.0  0.11572762324514943  0.8224649416751718  0.30256867080785815  1.0000
  O   O33       1.0  0.42505042205165466  0.09742240948047247  0.22620559428768422  1.0000
  O   O34       1.0  0.5749482172776439  0.40257435652949874  0.7262053836634482  1.0000
  O   O35       1.0  0.5749484529262787  0.9025744993772874  0.7737939741726195  1.0000
  O   O36       1.0  0.4250497205089161  0.5974254384195562  0.2737941847977439  1.0000
  O   O37       1.0  0.3903408328343759  0.062234887916282795  0.04251634211139081  1.0000
  O   O38       1.0  0.6096540032841773  0.4377665757538764  0.5425169898164698  1.0000
  O   O39       1.0  0.609655137216663  0.9377658738136528  0.9574832263503625  1.0000
  O   O40       1.0  0.3903409735636458  0.5622341888266077  0.45748342980733286  1.0000
