data_image0
_chemical_formula_structural       Zn8H64C80N24O26
_chemical_formula_sum              "Zn8 H64 C80 N24 O26"
_cell_length_a       23.81107771889063
_cell_length_b       23.812528139998378
_cell_length_c       23.811675488336505
_cell_angle_alpha    67.09042768389222
_cell_angle_beta     72.226361651362
_cell_angle_gamma    107.78287572186437

_space_group_name_H-M_alt    "P 1"
_space_group_IT_number       1

loop_
  _space_group_symop_operation_xyz
  'x, y, z'

loop_
  _atom_site_type_symbol
  _atom_site_label
  _atom_site_symmetry_multiplicity
  _atom_site_fract_x
  _atom_site_fract_y
  _atom_site_fract_z
  _atom_site_occupancy
  Zn  Zn1       1.0  0.05729328012154157  0.9575752298846963  0.4860134217318547  1.0000
  Zn  Zn2       1.0  0.05728377932749852  0.0997053291238927  0.45672798315533203  1.0000
  Zn  Zn3       1.0  0.9427092259470199  0.9859944415903212  0.45756971402792623  1.0000
  Zn  Zn4       1.0  0.9427187372676404  0.9567290345629119  0.5997084303645082  1.0000
  Zn  Zn5       1.0  0.9435709431512294  0.543314643837405  0.014001164245982576  1.0000
  Zn  Zn6       1.0  0.056432749004976315  0.514003130309419  0.04330209705135965  1.0000
  Zn  Zn7       1.0  0.943572171166487  0.40031486325545257  0.042417632353398634  1.0000
  Zn  Zn8       1.0  0.05642889002972158  0.5424445576329902  0.9002908789946104  1.0000
  H   H1        1.0  0.9341095353890765  0.6638435747734802  0.10015461228479684  1.0000
  H   H2        1.0  0.0659558871864335  0.6001277487973198  0.16383454432667574  1.0000
  H   H3        1.0  0.9154575679268435  0.8772548776682851  0.3597413456145804  1.0000
  H   H4        1.0  0.08447532212475292  0.8596059055563571  0.3774324014057556  1.0000
  H   H5        1.0  0.06594059643082066  0.4658269986413686  0.7702423724957652  1.0000
  H   H6        1.0  0.9340829426861319  0.27030042527822923  0.9657788422126856  1.0000
  H   H7        1.0  0.08450002526435443  0.2248659155917352  0.5381499269396386  1.0000
  H   H8        1.0  0.9154836483396593  0.03817881945189329  0.7248337722651282  1.0000
  H   H9        1.0  0.7369984397069445  0.4619033360933215  0.12262228265760919  1.0000
  H   H10       1.0  0.737005629130195  0.2752255294464162  0.14027767144578726  1.0000
  H   H11       1.0  0.2639095321288067  0.22972612196912925  0.3361960885504658  1.0000
  H   H12       1.0  0.2639903394244527  0.0342371668908683  0.3997816560033271  1.0000
  H   H13       1.0  0.2630093963891512  0.6226414029385552  0.9618724477572372  1.0000
  H   H14       1.0  0.2629785879477354  0.64029915070752  0.7751961766317592  1.0000
  H   H15       1.0  0.7360652216340641  0.8361875883520113  0.7297347583243619  1.0000
  H   H16       1.0  0.7360193808474808  0.8998550654163822  0.5342152492435943  1.0000
  H   H17       1.0  0.9189681923125763  0.8441191662203096  0.7497573010417753  1.0000
  H   H18       1.0  0.9102156378435641  0.8031869050539059  0.8316558280292908  1.0000
  H   H19       1.0  0.09383119744488509  0.6687214977345021  0.7502488146727799  1.0000
  H   H20       1.0  0.1348147287140548  0.7418747181057836  0.6683474481696122  1.0000
  H   H21       1.0  0.9061483618958662  0.6559083159020744  0.9251302125244933  1.0000
  H   H22       1.0  0.8651657312348746  0.6968363070220035  0.8929753484001282  1.0000
  H   H23       1.0  0.08103950265289928  0.8313204578316158  0.5748657690980112  1.0000
  H   H24       1.0  0.08979373899801847  0.7581704126690166  0.6070151386455935  1.0000
  H   H25       1.0  0.9189807285705315  0.07486755595374454  0.3312588396197853  1.0000
  H   H26       1.0  0.9101996858483403  0.10702748293937238  0.2581249978907749  1.0000
  H   H27       1.0  0.09384857632603172  0.42512947695152536  0.15591675819621298  1.0000
  H   H28       1.0  0.13482459219550694  0.3929793137689258  0.19684460764609915  1.0000
  H   H29       1.0  0.9061666045624719  0.25025969299066714  0.16867874723853077  1.0000
  H   H30       1.0  0.8651734885836792  0.168351097616629  0.24183389614758236  1.0000
  H   H31       1.0  0.08104448728234812  0.24975053251811363  0.344102790816784  1.0000
  H   H32       1.0  0.08978876958236985  0.33164774580367146  0.3031924656555275  1.0000
  H   H33       1.0  0.057944700680359194  0.6716010742971292  0.27456720238436816  1.0000
  H   H34       1.0  0.08862935653606041  0.6264213138767971  0.2464407194539433  1.0000
  H   H35       1.0  0.9420032953532099  0.7744237417079559  0.17179061626322342  1.0000
  H   H36       1.0  0.9113847574611426  0.746357999440398  0.12654722845732677  1.0000
  H   H37       1.0  0.10512586746393987  0.7843780780484763  0.27027868331502003  1.0000
  H   H38       1.0  0.13641396560245783  0.8131321042743949  0.31479163787101777  1.0000
  H   H39       1.0  0.8947257756390599  0.7699901924522194  0.28462796927429695  1.0000
  H   H40       1.0  0.8635232036306847  0.8146432738811384  0.3132137342196659  1.0000
  H   H41       1.0  0.9420412335083483  0.16757659896848764  0.8862940467693647  1.0000
  H   H42       1.0  0.9114022651224617  0.16504297054959957  0.9621325322100273  1.0000
  H   H43       1.0  0.058001792308353096  0.3863249970257384  0.667533143674966  1.0000
  H   H44       1.0  0.08862065225983436  0.4621686492034627  0.6649966817373425  1.0000
  H   H45       1.0  0.8947992473732995  0.12469638343309694  0.8206878049477236  1.0000
  H   H46       1.0  0.8635438427080899  0.04887640070089111  0.8232483029029466  1.0000
  H   H47       1.0  0.10521866390321577  0.32072077561857515  0.6246693209419334  1.0000
  H   H48       1.0  0.13644656959783671  0.32328073079690256  0.5488545574434764  1.0000
  H   H49       1.0  0.5546390978619087  0.1793749944918871  0.21532876647228966  1.0000
  H   H50       1.0  0.6278787077021591  0.17677358454216827  0.18675051110219695  1.0000
  H   H51       1.0  0.5546107976393698  0.375377297461142  0.22974629863911397  1.0000
  H   H52       1.0  0.6278685959951246  0.45117372717062654  0.18525907256063337  1.0000
  H   H53       1.0  0.44620943651344186  0.11378641435671702  0.32816024059513177  1.0000
  H   H54       1.0  0.3729048600062582  0.037929769185829736  0.3733967200711632  1.0000
  H   H55       1.0  0.44612521158155966  0.3324932721807554  0.22543123823513164  1.0000
  H   H56       1.0  0.37282287904319134  0.33502564244256655  0.25356049427084326  1.0000
  H   H57       1.0  0.44533370877954337  0.7153471284743205  0.6793642662636542  1.0000
  H   H58       1.0  0.3720775819828504  0.6867676811080016  0.6767646206393679  1.0000
  H   H59       1.0  0.4454043839062083  0.729763660046224  0.8753531636058227  1.0000
  H   H60       1.0  0.3721544874495707  0.6852759307280039  0.951148391073147  1.0000
  H   H61       1.0  0.5537956344136534  0.8281998955847741  0.613753027257715  1.0000
  H   H62       1.0  0.6271015133237371  0.8734561238534937  0.537890823948594  1.0000
  H   H63       1.0  0.5538670721924037  0.7254429328822596  0.8324617207411223  1.0000
  H   H64       1.0  0.6271821056657176  0.7535803362994499  0.8349926567592832  1.0000
  C   C1        1.0  0.1827775508209513  0.09139560371676231  0.40861134790806364  1.0000
  C   C2        1.0  3.572647620592177e-05  0.13923926091015906  0.36074086353703894  1.0000
  C   C3        1.0  0.9999835938029308  0.9090454588083645  0.4091441493344876  1.0000
  C   C4        1.0  0.8172227118824293  0.9086214658332491  0.5913747964038409  1.0000
  C   C5        1.0  2.499598971875532e-05  0.8608114738815542  0.6392326977997628  1.0000
  C   C6        1.0  0.9999902023860372  0.09093040115585181  0.5908942497662721  1.0000
  C   C7        1.0  2.152669256370324e-05  0.5914076718813917  0.0913963753291328  1.0000
  C   C8        1.0  0.9999869110014928  0.3607639298601057  0.13923440585868732  1.0000
  C   C9        1.0  0.8181789217979942  0.40914265715725423  0.09087875660343761  1.0000
  C   C10       1.0  0.9999992025208754  0.40864188728250606  0.9086006226554912  1.0000
  C   C11       1.0  2.380086677189569e-06  0.6392458345074274  0.8607570970853401  1.0000
  C   C12       1.0  0.18182445677908285  0.5909030796469352  0.9091132518210472  1.0000
  C   C13       1.0  7.802560304339088e-06  0.8046434180111814  0.6953727574299435  1.0000
  C   C14       1.0  0.999993285313039  0.6953893435799612  0.8046173440483952  1.0000
  C   C15       1.0  0.9571238569883249  0.7777268746092643  0.7668359683926625  1.0000
  C   C16       1.0  0.0445426028417872  0.7239733730611918  0.7331565303182471  1.0000
  C   C17       1.0  0.955439049053851  0.7222948409044677  0.8205819635692038  1.0000
  C   C18       1.0  0.04287132341633545  0.7760492683025787  0.6794083039595264  1.0000
  C   C19       1.0  7.267250630605915e-06  0.19537628717434788  0.30461046570151495  1.0000
  C   C20       1.0  0.9999937591017559  0.30462045761482415  0.19538019600163636  1.0000
  C   C21       1.0  0.9571331900948721  0.17941268554071838  0.27600991565529415  1.0000
  C   C22       1.0  0.044563398299814636  0.3205942619360371  0.2222900711029823  1.0000
  C   C23       1.0  0.9554566224696189  0.23316657026949625  0.22394705333328352  1.0000
  C   C24       1.0  0.04288029874562235  0.2668331248229663  0.2777153689054828  1.0000
  C   C25       1.0  4.140034835143825e-05  0.6290049783744037  0.12899755184481168  1.0000
  C   C26       1.0  0.9626150281969855  0.6643409792713015  0.12823183168283936  1.0000
  C   C27       1.0  0.9626619230923694  0.7002378310438147  0.16273415808653613  1.0000
  C   C28       1.0  0.9999819008142693  0.6993322945575782  0.19950175476155613  1.0000
  C   C29       1.0  0.037350187042569996  0.6626171403066435  0.20033530901547889  1.0000
  C   C30       1.0  0.037437956683881335  0.6281923034988565  0.1643632485190452  1.0000
  C   C31       1.0  0.9999291538039262  0.73463325428677  0.23494555352892374  1.0000
  C   C32       1.0  0.9998944650395816  0.7655006974500365  0.265942806219911  1.0000
  C   C33       1.0  0.9998875739954728  0.8008748288458563  0.30130407116895  1.0000
  C   C34       1.0  0.9509695804647932  0.8232994094025726  0.3147154288298213  1.0000
  C   C35       1.0  0.951974629373531  0.8590935008684748  0.34932697647119704  1.0000
  C   C36       1.0  0.9999647985150305  0.8714186695950586  0.3715924300308659  1.0000
  C   C37       1.0  0.047921771850987414  0.8491129401150773  0.3593263916811296  1.0000
  C   C38       1.0  0.04886690644293881  0.8143991939069081  0.32363187658662457  1.0000
  C   C39       1.0  1.4929606265811463e-05  0.3710461699077781  0.8710082586981257  1.0000
  C   C40       1.0  0.03742756680829733  0.40925067818451305  0.7982408467591142  1.0000
  C   C41       1.0  0.037358642075162186  0.37471019160849284  0.7623810722407995  1.0000
  C   C42       1.0  1.244018075400311e-05  0.3006312680608331  0.800580676060214  1.0000
  C   C43       1.0  0.9626703850484191  0.2624267500844227  0.874666670841172  1.0000
  C   C44       1.0  0.9626048313490542  0.29829148410257017  0.9091951734136856  1.0000
  C   C45       1.0  0.99999635514056  0.2652411162665516  0.7652208258382558  1.0000
  C   C46       1.0  0.9999960273630749  0.2343107326311228  0.7342820019147991  1.0000
  C   C47       1.0  0.9999952148055941  0.19893877039503147  0.6989134063278187  1.0000
  C   C48       1.0  0.04893719450748083  0.23441693534781644  0.6275933578262565  1.0000
  C   C49       1.0  0.04795620228695442  0.19878227388424108  0.5928124175310074  1.0000
  C   C50       1.0  0.9999921517370751  0.1285264058810112  0.6284816426407288  1.0000
  C   C51       1.0  0.9520281913710422  0.09283955484335851  0.6987475324712304  1.0000
  C   C52       1.0  0.9510539265027872  0.1276177548290461  0.7343869688325879  1.0000
  C   C53       1.0  0.7430008290653307  0.3715705159971989  0.12842042284253802  1.0000
  C   C54       1.0  0.7084180428768009  0.40725568372832305  0.1406994356167032  1.0000
  C   C55       1.0  0.6380032458254661  0.37249003104778916  0.1763971015848115  1.0000
  C   C56       1.0  0.6021637556981859  0.3011909594940007  0.19870911223519266  1.0000
  C   C57       1.0  0.6380126119886499  0.265691863688488  0.18529768157792872  1.0000
  C   C58       1.0  0.7084211818665694  0.30131861919363695  0.1507028387383401  1.0000
  C   C59       1.0  0.5314249492146529  0.26582129486314426  0.23406141595977914  1.0000
  C   C60       1.0  0.46955754138257777  0.23485730612045322  0.2650574681171989  1.0000
  C   C61       1.0  0.39881447096238537  0.1994539327214753  0.3004797282936948  1.0000
  C   C62       1.0  0.3629159315717914  0.23764551518121374  0.2996646106584322  1.0000
  C   C63       1.0  0.29252508514286285  0.20175803982480284  0.33563725916134496  1.0000
  C   C64       1.0  0.2579722249611862  0.12900428398631894  0.3709696758023995  1.0000
  C   C65       1.0  0.29255230713010144  0.09081684522224971  0.3717136654211615  1.0000
  C   C66       1.0  0.36294737300136864  0.1253706981416798  0.3372184204322862  1.0000
  C   C67       1.0  0.25699987506717303  0.6284469270127174  0.8715469624345004  1.0000
  C   C68       1.0  0.2915927611992332  0.6407192143515771  0.9072261976138734  1.0000
  C   C69       1.0  0.36200645864221326  0.676406770576527  0.87246651322765  1.0000
  C   C70       1.0  0.39782962823136364  0.6987151485144238  0.8011668518573316  1.0000
  C   C71       1.0  0.3619702885499907  0.6853005677806577  0.7656791699674488  1.0000
  C   C72       1.0  0.2915608985791423  0.6507150901380142  0.8012952602137488  1.0000
  C   C73       1.0  0.4685695138897401  0.7340654663896798  0.7657852744469409  1.0000
  C   C74       1.0  0.5304371696204697  0.7650709673304305  0.7348177952761149  1.0000
  C   C75       1.0  0.6011827824213399  0.8005056442410561  0.6994244769879644  1.0000
  C   C76       1.0  0.6370767970838003  0.799679825996719  0.7376148178023597  1.0000
  C   C77       1.0  0.7074741650477423  0.8356445309672226  0.7017442750445112  1.0000
  C   C78       1.0  0.7420215454231921  0.8709926271668632  0.6289835134090683  1.0000
  C   C79       1.0  0.7074424730178421  0.8717735439768287  0.590795267355567  1.0000
  C   C80       1.0  0.6370472148637987  0.8372712564462146  0.6253392124767245  1.0000
  N   N1        1.0  0.9126711109466399  0.800783347260996  0.7892364037783609  1.0000
  N   N2        1.0  0.08999409506799345  0.7019156739670576  0.7107601161098316  1.0000
  N   N3        1.0  0.9099894144213608  0.6992374003420707  0.8880955062484476  1.0000
  N   N4        1.0  0.08733035823270545  0.7981166256129412  0.6118970351118662  1.0000
  N   N5        1.0  0.9126701721443524  0.11189722866137693  0.2980756400859265  1.0000
  N   N6        1.0  0.08999861521944293  0.38810253812143697  0.19925364821556707  1.0000
  N   N7        1.0  0.9099996148956182  0.21077074578852265  0.20188059581213474  1.0000
  N   N8        1.0  0.08733400520495857  0.2892358662865959  0.30077971311110463  1.0000
  N   N9        1.0  0.07481997669582807  0.6639973150400634  0.23486498325955554  1.0000
  N   N10       1.0  0.9251687280918475  0.7347389015582236  0.16414116576302734  1.0000
  N   N11       1.0  0.09488930815765423  0.7905005080497671  0.3115628559317899  1.0000
  N   N12       1.0  0.9050108208612785  0.8112873552754749  0.2907274298089464  1.0000
  N   N13       1.0  0.9251936540552564  0.19043128153663957  0.9107542180172885  1.0000
  N   N14       1.0  0.07484383067908608  0.4107923915312739  0.6903894865444329  1.0000
  N   N15       1.0  0.9050532337858145  0.09367360141961695  0.8043093287098841  1.0000
  N   N16       1.0  0.09494504457267543  0.3043439037377027  0.5936484174813258  1.0000
  N   N17       1.0  0.6020320631438096  0.19575717365709266  0.20924893855480062  1.0000
  N   N18       1.0  0.602022679671599  0.4064239308256037  0.18847245086445238  1.0000
  N   N19       1.0  0.3988716488676475  0.08929912976415007  0.33581264040547143  1.0000
  N   N20       1.0  0.398816609384852  0.3096383490726423  0.2651453191707276  1.0000
  N   N21       1.0  0.39794166702129985  0.7092548312338421  0.6957444336972144  1.0000
  N   N22       1.0  0.39799920168004377  0.6884897296825085  0.9063968122008605  1.0000
  N   N23       1.0  0.6011201422265416  0.8358552669959352  0.5892681733317887  1.0000
  N   N24       1.0  0.6011824458169599  0.7651572367665478  0.8096103500144166  1.0000
  O   O1        1.0  1.9364892909247617e-06  0.9999975828097972  0.5000009948618712  1.0000
  O   O2        1.0  0.1534293052730362  0.02559819040688176  0.43488087566137057  1.0000
  O   O3        1.0  0.040256764481213715  0.15565418972727227  0.38444496034588843  1.0000
  O   O4        1.0  0.9593482982781298  0.9339559987253311  0.4135104790987469  1.0000
  O   O5        1.0  0.15343665281316993  0.1278414941990036  0.41171008738805875  1.0000
  O   O6        1.0  0.04061353621783329  0.9134413604608367  0.4340496119397273  1.0000
  O   O7        1.0  0.959826697119496  0.07531583403468307  0.38453992762838124  1.0000
  O   O8        1.0  0.8465541357019504  0.9349112231156693  0.5255775453615571  1.0000
  O   O9        1.0  0.9597902192444109  0.8844959587288268  0.6556426023803044  1.0000
  O   O10       1.0  0.8465694386981113  0.9116816949152449  0.627825360308172  1.0000
  O   O11       1.0  0.040271659568880305  0.8846503450108328  0.5753156036817445  1.0000
  O   O12       1.0  0.04063206460867971  0.1271893308427963  0.5253508822204296  1.0000
  O   O13       1.0  0.9593669768341614  0.025405968273375424  0.6271312096503721  1.0000
  O   O14       1.0  2.993124418423339e-06  0.5000280739344871  1.0236026071657007e-06  1.0000
  O   O15       1.0  0.9605139803770089  0.5883688175750876  0.06510184844329098  1.0000
  O   O16       1.0  0.04010201638797643  0.42469019241568867  0.11553792908534179  1.0000
  O   O17       1.0  0.8474687782602146  0.3728823217814322  0.08650061772372912  1.0000
  O   O18       1.0  0.039525967489794346  0.5651068945426161  0.08835196849791775  1.0000
  O   O19       1.0  0.8474723537204556  0.4746621179118619  0.0660082674032055  1.0000
  O   O20       1.0  0.9598826232330497  0.34436163983520623  0.11541177762126145  1.0000
  O   O21       1.0  0.9604545228853213  0.37218458795351944  0.9743964175910375  1.0000
  O   O22       1.0  0.040102980056815396  0.6154273776258634  0.8443551670437017  1.0000
  O   O23       1.0  0.03951491312759707  0.47442922054958797  0.8721639882539022  1.0000
  O   O24       1.0  0.9599037895696867  0.6155578343191548  0.9246778630023655  1.0000
  O   O25       1.0  0.1525331269783053  0.5659868430203971  0.9746588395312942  1.0000
  O   O26       1.0  0.15253203304153834  0.5865447830759577  0.8728623755629243  1.0000
