data_image0
_chemical_formula_structural       Ho2H42C72N4O16
_chemical_formula_sum              "Ho2 H42 C72 N4 O16"
_cell_length_a       10.835798628866485
_cell_length_b       12.137803279915659
_cell_length_c       12.245
_cell_angle_alpha    94.03272999063343
_cell_angle_beta     106.58759342209548
_cell_angle_gamma    101.4113899019794

_space_group_name_H-M_alt    "P 1"
_space_group_IT_number       1

loop_
  _space_group_symop_operation_xyz
  'x, y, z'

loop_
  _atom_site_type_symbol
  _atom_site_label
  _atom_site_symmetry_multiplicity
  _atom_site_fract_x
  _atom_site_fract_y
  _atom_site_fract_z
  _atom_site_occupancy
  Ho  Ho1       1.0  0.08846002969357872  0.8093523379383285  0.0005424440151102972  1.0000
  Ho  Ho2       1.0  0.9115397360789644  0.19064685902286274  0.9994558075127102  1.0000
  H   H1        1.0  0.023962562756402416  0.8043027023305102  0.27518370926681973  1.0000
  H   H2        1.0  0.9760357891876694  0.1956947981295514  0.7248157001458042  1.0000
  H   H3        1.0  0.02153750853940296  0.7749031860309615  0.4742488520066745  1.0000
  H   H4        1.0  0.9784610688487877  0.22509516267966492  0.5257498568313822  1.0000
  H   H5        1.0  0.9856246349638269  0.1476914504591633  0.33454508083866585  1.0000
  H   H6        1.0  0.014379494621643153  0.8523060500008981  0.6654541548402693  1.0000
  H   H7        1.0  0.8823887236262493  0.5292472779291799  0.6718817419265123  1.0000
  H   H8        1.0  0.11761829477991631  0.4707502225308815  0.3281214901848841  1.0000
  H   H9        1.0  0.7476133711130047  0.392487232488989  0.4979131702930175  1.0000
  H   H10       1.0  0.2523923977450551  0.6075128127227671  0.5020899235455759  1.0000
  H   H11       1.0  0.2740570295996179  0.7092121175989163  0.6924491634276961  1.0000
  H   H12       1.0  0.7259489647025603  0.2907887758634047  0.3075540464961932  1.0000
  H   H13       1.0  0.6019802615079826  0.676135435104186  0.8943852598648551  1.0000
  H   H14       1.0  0.39801712749585505  0.3238620653558755  0.10561308962356726  1.0000
  H   H15       1.0  0.3616711270052165  0.5944421197812559  0.8160080131108814  1.0000
  H   H16       1.0  0.638327511546727  0.4055528359271108  0.18398965799048742  1.0000
  H   H17       1.0  0.8381141434543055  0.5463429197971337  0.17959047183214957  1.0000
  H   H18       1.0  0.16188324554953232  0.4536545806629348  0.8204095109759991  1.0000
  H   H19       1.0  0.2741112923696464  0.0725016722108336  0.01916679217426784  1.0000
  H   H20       1.0  0.7258898872313678  0.9274992212514803  0.9808311181286131  1.0000
  H   H21       1.0  0.5086315599187116  0.186601552082891  0.08913694330188802  1.0000
  H   H22       1.0  0.4913688821861868  0.8134001896299949  0.9108657397811161  1.0000
  H   H23       1.0  0.6857167339389818  0.0995574722019086  0.200207269437179  1.0000
  H   H24       1.0  0.31428245861781795  0.9004468142626649  0.799796092032878  1.0000
  H   H25       1.0  0.7480350524503835  0.9300261596818018  0.29090797842329164  1.0000
  H   H26       1.0  0.2519644267142809  0.0699755820310841  0.7090903780960646  1.0000
  H   H27       1.0  0.6827172848194465  0.7309146082802371  0.32491632096491685  1.0000
  H   H28       1.0  0.3172850831659204  0.2690871334326417  0.6750803153678719  1.0000
  H   H29       1.0  0.5032475209357373  0.5551604844104716  0.3025627847363452  1.0000
  H   H30       1.0  0.4967555845457454  0.4448404090518423  0.6974396953945219  1.0000
  H   H31       1.0  0.2647155415481777  0.4588679286296085  0.22291117790778978  1.0000
  H   H32       1.0  0.7352892643696479  0.5411321165821477  0.7770900393467387  1.0000
  H   H33       1.0  0.10557548355484411  0.5628855022973127  0.10909690308447043  1.0000
  H   H34       1.0  0.8944290969188559  0.4371136946638785  0.8909017481051862  1.0000
  H   H35       1.0  0.22046563758733845  0.2229948942830688  0.17706176170602111  1.0000
  H   H36       1.0  0.7795152783159339  0.7769949719219157  0.8229392439884436  1.0000
  H   H37       1.0  0.2821789147500553  0.0091950361143489  0.3156386174280216  1.0000
  H   H38       1.0  0.717822203687213  0.9908092503502317  0.6843603306115471  1.0000
  H   H39       1.0  0.2952413660988924  0.8190860131608488  0.37325937398646414  1.0000
  H   H40       1.0  0.7047564545822952  0.1809276040599315  0.6267385747454101  1.0000
  H   H41       1.0  0.5816460775455496  0.3023156527783399  0.5001086398611322  1.0000
  H   H42       1.0  0.41834438738540314  0.6976920266884932  0.49989030332711354  1.0000
  C   C1        1.0  0.008176790783430525  0.995769819648814  0.17585547401786533  1.0000
  C   C2        1.0  0.9918234870411028  0.0042276808112476  0.8241444219234425  1.0000
  C   C3        1.0  0.005320834490262941  0.9786690882774849  0.2946817740318722  1.0000
  C   C4        1.0  0.9946784803940362  0.0213284121825765  0.7053178786450901  1.0000
  C   C5        1.0  0.01637709653307702  0.8725792384817979  0.33398455445817643  1.0000
  C   C6        1.0  0.9836212554109949  0.1274182619782707  0.6660148549544476  1.0000
  C   C7        1.0  0.014402911256461046  0.856455691760253  0.4436431789787677  1.0000
  C   C8        1.0  0.9855952152434853  0.1435409604492435  0.5563552976887038  1.0000
  C   C9        1.0  0.004942796157507743  0.9461420721482625  0.5197258967472608  1.0000
  C   C10       1.0  0.995056744170917  0.0538562765623638  0.48027468867485384  1.0000
  C   C11       1.0  0.9939434939103792  0.0669354520095169  0.3662788318261576  1.0000
  C   C12       1.0  0.006057746854388345  0.9330620484505516  0.6337221240393447  1.0000
  C   C13       1.0  0.09321748613768932  0.6795700016380408  0.8103638949639775  1.0000
  C   C14       1.0  0.9067887947723605  0.3204283470725855  0.18964002662823284  1.0000
  C   C15       1.0  0.07882513847244614  0.6231604908778721  0.693660503488303  1.0000
  C   C16       1.0  0.9211823308219566  0.37683870608331926  0.3063437774535417  1.0000
  C   C17       1.0  0.9622559226253745  0.5460621488604289  0.6334746797124213  1.0000
  C   C18       1.0  0.03775183327690003  0.45393450334906765  0.3665303128977443  1.0000
  C   C19       1.0  0.9463846692651647  0.4888018427845182  0.5240451868941849  1.0000
  C   C20       1.0  0.05362478707345282  0.5111939611744205  0.4759601761593686  1.0000
  C   C21       1.0  0.8284731705182581  0.4087651608131893  0.4608439753743313  1.0000
  C   C22       1.0  0.17153333583591035  0.591234036148002  0.539160062303175  1.0000
  C   C23       1.0  0.18386392295090564  0.6469148996736465  0.644874490506581  1.0000
  C   C24       1.0  0.8161420713512727  0.3530859937886746  0.35512790275744527  1.0000
  C   C25       1.0  0.8526908582145722  0.695915790007362  0.029640145001465636  1.0000
  C   C26       1.0  0.1473086821138523  0.3040825587032643  0.9703596237607928  1.0000
  C   C27       1.0  0.7305745530010554  0.6203332717478816  0.03721107740462059  1.0000
  C   C28       1.0  0.269424536439125  0.379663380461615  0.9627884591870528  1.0000
  C   C29       1.0  0.6089830684270795  0.6194417604050599  0.9598600215129667  1.0000
  C   C30       1.0  0.39101528351699244  0.3805557400550015  0.0401385712397939  1.0000
  C   C31       1.0  0.4943688346747024  0.5397969701943239  0.9592447082330937  1.0000
  C   C32       1.0  0.5056309922615939  0.4601988337646077  0.04075250555803935  1.0000
  C   C33       1.0  0.3690080575396095  0.5347846576113255  0.8787129644367015  1.0000
  C   C34       1.0  0.6309917693966868  0.4652111463476061  0.12128506601429484  1.0000
  C   C35       1.0  0.7410846634293905  0.5431518011751564  0.11956138109422913  1.0000
  C   C36       1.0  0.2589136885146814  0.456845699284905  0.8804380283183948  1.0000
  C   C37       1.0  0.3539022433563376  0.0357478235209356  0.06714988915638295  1.0000
  C   C38       1.0  0.6460979733044425  0.9642530699413854  0.9328485945420226  1.0000
  C   C39       1.0  0.48495909077303173  0.100119014075311  0.10821731703660484  1.0000
  C   C40       1.0  0.5150409004436299  0.8998810311364451  0.891781050576505  1.0000
  C   C41       1.0  0.5831236770056591  0.0515456420258786  0.1703431673262443  1.0000
  C   C42       1.0  0.4168777280394735  0.9484560996870073  0.8296573090415083  1.0000
  C   C43       1.0  0.5497360176918917  0.9384145095097338  0.19181443347614655  1.0000
  C   C44       1.0  0.4502622730884269  0.0615863839525872  0.8081860136731649  1.0000
  C   C45       1.0  0.6455426486868704  0.882653910431067  0.25663696023060123  1.0000
  C   C46       1.0  0.3544570559219197  0.11734867953238391  0.7433631456937705  1.0000
  C   C47       1.0  0.6094257098385328  0.7729963187629635  0.27530669514242595  1.0000
  C   C48       1.0  0.39057546976248153  0.2270045746993503  0.7246928484801742  1.0000
  C   C49       1.0  0.4746742498728553  0.7109917472823  0.23138105575699097  1.0000
  C   C50       1.0  0.5253278926683862  0.289009146180021  0.768618731129955  1.0000
  C   C51       1.0  0.432192877006564  0.5990973188767867  0.2525949146030159  1.0000
  C   C52       1.0  0.5678097775866818  0.4009018780844045  0.7474040667178203  1.0000
  C   C53       1.0  0.29997565785190267  0.5455048482398439  0.20900819572675294  1.0000
  C   C54       1.0  0.7000289226218044  0.45449434872134736  0.7909904554629039  1.0000
  C   C55       1.0  0.21049652646096464  0.603334330444234  0.14399616980128377  1.0000
  C   C56       1.0  0.7895053906361653  0.39666571476751494  0.8560018676806466  1.0000
  C   C57       1.0  0.37712047184126624  0.7634611341724309  0.1656035229495672  1.0000
  C   C58       1.0  0.6228807077597552  0.236539759289883  0.8343960206730402  1.0000
  C   C59       1.0  0.41519040909944505  0.8790395147776309  0.14551732887499477  1.0000
  C   C60       1.0  0.5848100330054606  0.1209622269352479  0.8544829042284192  1.0000
  C   C61       1.0  0.3673597140870513  0.2359782174164806  0.31794348497079744  1.0000
  C   C62       1.0  0.6326364061577935  0.7640362480548646  0.6820516433381132  1.0000
  C   C63       1.0  0.4264244494090051  0.1620659045176254  0.40014189676416834  1.0000
  C   C64       1.0  0.5735708302231118  0.8379417749492077  0.5998558127661938  1.0000
  C   C65       1.0  0.3733177389384679  0.0463662240817655  0.38467982688465713  1.0000
  C   C66       1.0  0.6266808804025814  0.9536431518861974  0.6153196612691617  1.0000
  C   C67       1.0  0.4387431766611842  0.9753541250731601  0.45582057615241933  1.0000
  C   C68       1.0  0.5612556681239836  0.0246560991453606  0.5441814780662781  1.0000
  C   C69       1.0  0.387920536294459  0.8561435355526826  0.4409276067695204  1.0000
  C   C70       1.0  0.6120751942258948  0.1438658404152804  0.5590711515912831  1.0000
  C   C71       1.0  0.5455592822458187  0.2107639693999701  0.48927397105737214  1.0000
  C   C72       1.0  0.4544352598901825  0.7892445583174207  0.5107252446136672  1.0000
  N   N1        1.0  0.31964335870488725  0.9280522806192479  0.08398046911261049  1.0000
  N   N2        1.0  0.68035566957154  0.0719477645925082  0.9160184718960237  1.0000
  N   N3        1.0  0.24706484332412515  0.7093461411880355  0.12281555163110627  1.0000
  N   N4        1.0  0.7529370737729977  0.2906539040237206  0.8771841191705435  1.0000
  O   O1        1.0  0.07028289099866925  0.936779082422234  0.13125971342605425  1.0000
  O   O2        1.0  0.9297171613817454  0.0632175697872626  0.8687433330693963  1.0000
  O   O3        1.0  0.9488345823001438  0.0678956716480243  0.12690105776441385  1.0000
  O   O4        1.0  0.05116717051661372  0.9321001323109144  0.8730958258955326  1.0000
  O   O5        1.0  0.9970538023018919  0.6550827043549248  0.8526559718870033  1.0000
  O   O6        1.0  0.0029498152315810162  0.3449164926062664  0.14734325269817114  1.0000
  O   O7        1.0  0.19902901939172324  0.7525899549435168  0.8660510420280191  1.0000
  O   O8        1.0  0.8009785110664325  0.2474058490154221  0.1339571011363035  1.0000
  O   O9        1.0  0.9650914336119882  0.6857834370197365  0.09263747890960172  1.0000
  O   O10       1.0  0.0349077589448115  0.3142208494448369  0.9073691491999017  1.0000
  O   O11       1.0  0.8471679887383419  0.7697356435947427  0.9589948716267075  1.0000
  O   O12       1.0  0.1528297480371208  0.2302559191113716  0.040999885153915686  1.0000
  O   O13       1.0  0.2473477695670425  0.18454878571787964  0.24773956237076086  1.0000
  O   O14       1.0  0.7526434520709132  0.8154436252387995  0.7522625909032501  1.0000
  O   O15       1.0  0.4260407864064248  0.3327466417637837  0.31286198202008114  1.0000
  O   O16       1.0  0.573932979979837  0.6672525551974076  0.6871248014114146  1.0000
