data_image0
_chemical_formula_structural       Na4H32C32N12O12
_chemical_formula_sum              "Na4 H32 C32 N12 O12"
_cell_length_a       5.162566958925612
_cell_length_b       8.209381190209994
_cell_length_c       21.98951425047253
_cell_angle_alpha    90.00296258836454
_cell_angle_beta     89.99913274975637
_cell_angle_gamma    101.95637713313184

_space_group_name_H-M_alt    "P 1"
_space_group_IT_number       1

loop_
  _space_group_symop_operation_xyz
  'x, y, z'

loop_
  _atom_site_type_symbol
  _atom_site_label
  _atom_site_symmetry_multiplicity
  _atom_site_fract_x
  _atom_site_fract_y
  _atom_site_fract_z
  _atom_site_occupancy
  Na  Na1       1.0  0.2545548378524245  0.028778379040204496  0.46010551274532235  1.0000
  Na  Na2       1.0  0.24545220396596779  0.9712259295815499  0.9601029045276592  1.0000
  Na  Na3       1.0  0.7454700519617248  0.971229976636998  0.539901335239172  1.0000
  Na  Na4       1.0  0.7545203314686616  0.028769414872463997  0.039892119601859115  1.0000
  H   H1        1.0  0.2461077703406289  0.6524945661107608  0.4703400406242296  1.0000
  H   H2        1.0  0.2538919702964151  0.3474812773710951  0.9703422256510452  1.0000
  H   H3        1.0  0.7539097863792108  0.3475087424540674  0.5296658977995535  1.0000
  H   H4        1.0  0.7460917183271504  0.6525253613456314  0.029654617617325102  1.0000
  H   H5        1.0  0.3051962008261099  0.8195222590163525  0.2891279053979403  1.0000
  H   H6        1.0  0.1948105256817669  0.18046373412904163  0.7891211615788905  1.0000
  H   H7        1.0  0.6948496988533676  0.18048509884724953  0.7108821258772411  1.0000
  H   H8        1.0  0.8051548808965804  0.819507956897027  0.21087704567036525  1.0000
  H   H9        1.0  0.2632660512625336  0.5181167962783917  0.2750015251997483  1.0000
  H   H10       1.0  0.23678572127817427  0.4818677945581769  0.7750027158527717  1.0000
  H   H11       1.0  0.7367615331180344  0.481894071330764  0.7249998656579423  1.0000
  H   H12       1.0  0.7631547872288279  0.5181048494216967  0.2249927628740735  1.0000
  H   H13       1.0  0.9024260303643102  0.31476822532157905  0.3277509149336453  1.0000
  H   H14       1.0  0.5976077615514371  0.6851988967456819  0.8277583038699492  1.0000
  H   H15       1.0  0.09758405718265804  0.6852424398778965  0.6722445640426926  1.0000
  H   H16       1.0  0.4023400119812166  0.31478499638998864  0.1722358106663791  1.0000
  H   H17       1.0  0.8461934443676784  0.005382607555326  0.37905794183723884  1.0000
  H   H18       1.0  0.653783070624108  0.9945982806058494  0.8790615474837367  1.0000
  H   H19       1.0  0.15382680695062578  0.9946232127561102  0.6209398108864976  1.0000
  H   H20       1.0  0.3462047105129357  0.005389796253538698  0.12093302178812591  1.0000
  H   H21       1.0  0.13884399852071283  0.045376718231857203  0.3353841477917357  1.0000
  H   H22       1.0  0.3611395740702718  0.9546066198352037  0.8353758304225993  1.0000
  H   H23       1.0  0.8611683053371307  0.9546091616100014  0.6646258833329598  1.0000
  H   H24       1.0  0.6388482751621324  0.04537525482632529  0.16461873878947134  1.0000
  H   H25       1.0  0.09363436786389197  0.3094778000051548  0.463306371036616  1.0000
  H   H26       1.0  0.4063963712320556  0.6905222557473677  0.9633069170612458  1.0000
  H   H27       1.0  0.906400413382869  0.6905505193283332  0.5366991128368286  1.0000
  H   H28       1.0  0.5935814851332281  0.3094843153862072  0.03668628811858811  1.0000
  H   H29       1.0  0.7988780594638384  0.214825538862371  0.4458837045595417  1.0000
  H   H30       1.0  0.7011469892176834  0.7851699681536176  0.9458817566020274  1.0000
  H   H31       1.0  0.20115798356061268  0.785194110953995  0.5541231435149784  1.0000
  H   H32       1.0  0.2988316856449558  0.21483289063937142  0.05411144854070932  1.0000
  C   C1        1.0  0.5356078327646046  0.3893968465047735  0.4031918395377048  1.0000
  C   C2        1.0  0.9644016083340005  0.6105827446307897  0.9031961102315196  1.0000
  C   C3        1.0  0.4643941031319514  0.6106124842626882  0.5968077322992827  1.0000
  C   C4        1.0  0.035561957075707036  0.38941497702131755  0.09679254726499661  1.0000
  C   C5        1.0  0.5781825182635953  0.7345955933818046  0.4205356279374969  1.0000
  C   C6        1.0  0.9218072106151209  0.265373725168743  0.9205411280564563  1.0000
  C   C7        1.0  0.42185140978300234  0.26540418225076207  0.5794680366138678  1.0000
  C   C8        1.0  0.07816839439998796  0.7346253772270188  0.07946435563482622  1.0000
  C   C9        1.0  0.7651431244024636  0.6809418652011984  0.3798608671664497  1.0000
  C   C10       1.0  0.7348458547815042  0.31903555464234046  0.8798684803085736  1.0000
  C   C11       1.0  0.23486890718608314  0.31906882278341436  0.6201396141911176  1.0000
  C   C12       1.0  0.26511614160067853  0.6809633902344244  0.12013109149528134  1.0000
  C   C13       1.0  0.9699019098515929  0.7966124938214206  0.3496681558756621  1.0000
  C   C14       1.0  0.5300895865607558  0.2033732504756713  0.8496660421815534  1.0000
  C   C15       1.0  0.030129630744902172  0.20339221694391799  0.6503400563492506  1.0000
  C   C16       1.0  0.4698826417522213  0.7966146469445122  0.1503303461634289  1.0000
  C   C17       1.0  0.1456243652115673  0.7330492252641745  0.31197231959130534  1.0000
  C   C18       1.0  0.3543768109183106  0.2669360915143669  0.8119635228622005  1.0000
  C   C19       1.0  0.854423921811197  0.2669531980844511  0.6880422592544593  1.0000
  C   C20       1.0  0.6456127781123157  0.7330644122787574  0.18803241081284483  1.0000
  C   C21       1.0  0.12208059066480807  0.5621327923542553  0.3043252519922391  1.0000
  C   C22       1.0  0.37795852148715164  0.4378481997119934  0.8043169373776069  1.0000
  C   C23       1.0  0.8779517003657134  0.4378744080830187  0.6956802316821395  1.0000
  C   C24       1.0  0.6220086930595555  0.5621359178153467  0.19567626760394324  1.0000
  C   C25       1.0  0.9225819515760846  0.44857016642753667  0.33330890822490744  1.0000
  C   C26       1.0  0.5774557008788859  0.5514238088950663  0.8333101515165495  1.0000
  C   C27       1.0  0.07744802017981556  0.5514357664813047  0.6666943016301232  1.0000
  C   C28       1.0  0.42252617991518787  0.4485704025172481  0.1666798702021666  1.0000
  C   C29       1.0  0.7439345511914439  0.5073664253639903  0.37110324076601137  1.0000
  C   C30       1.0  0.7560790204774647  0.4926200107054939  0.8711054832546169  1.0000
  C   C31       1.0  0.2560863824121284  0.4926480871261417  0.6288963310890595  1.0000
  C   C32       1.0  0.2438846810695594  0.5073653068597892  0.12888772174436272  1.0000
  N   N1        1.0  0.3566720613454493  0.44559661896550296  0.4364344326573006  1.0000
  N   N2        1.0  0.14335255532301258  0.5543773775440074  0.9364359672516898  1.0000
  N   N3        1.0  0.6433361500630213  0.5544078223630179  0.5635724153174309  1.0000
  N   N4        1.0  0.85663126953402  0.44561685652988087  0.0635572377994293  1.0000
  N   N5        1.0  0.3824696919346167  0.6135069411448129  0.442410671213331  1.0000
  N   N6        1.0  0.1175248043855888  0.38647124272363703  0.9424095152662136  1.0000
  N   N7        1.0  0.6175566986835078  0.3865063942469646  0.557596176816574  1.0000
  N   N8        1.0  0.8824425810973864  0.613532726202365  0.05758187085726972  1.0000
  N   N9        1.0  0.9991823783849013  0.9647208019361528  0.35886956407358644  1.0000
  N   N10       1.0  0.5007856407625654  0.035259720971225796  0.8588693152006146  1.0000
  N   N11       1.0  0.0008763796643833959  0.03528422278601079  0.6411345552489607  1.0000
  N   N12       1.0  0.49920640373341735  0.9647296459546197  0.14112889217418714  1.0000
  O   O1        1.0  0.527737366690502  0.23091383916590047  0.40050268293653346  1.0000
  O   O2        1.0  0.9722876902774971  0.7690655667824016  0.9005154346795692  1.0000
  O   O3        1.0  0.4722692759254413  0.7690918240281093  0.5994950698084622  1.0000
  O   O4        1.0  0.027686414045795964  0.23092855525010236  0.09948049895997002  1.0000
  O   O5        1.0  0.587407376025773  0.8854890638064957  0.4368180063277976  1.0000
  O   O6        1.0  0.9125745692733319  0.11448362140455967  0.936816540306147  1.0000
  O   O7        1.0  0.4126323842951294  0.11451077931655358  0.5631879320254856  1.0000
  O   O8        1.0  0.0874126323659396  0.8855218171815479  0.06317893865818291  1.0000
  O   O9        1.0  0.9386394246566853  0.2195601664888329  0.4777878136221504  1.0000
  O   O10       1.0  0.5613805431300632  0.780444587092333  0.9777853327223838  1.0000
  O   O11       1.0  0.061382498246970695  0.7804704858316426  0.5222213083929078  1.0000
  O   O12       1.0  0.43860126949387984  0.2195558269502982  0.022211055727019903  1.0000
