data_image0
_chemical_formula_structural       Sr4H28C16O24
_chemical_formula_sum              "Sr4 H28 C16 O24"
_cell_length_a       7.896618148003462
_cell_length_b       8.748868658891586
_cell_length_c       10.06135046134108
_cell_angle_alpha    96.20097591355056
_cell_angle_beta     90.00000352115472
_cell_angle_gamma    90.00010516222218

_space_group_name_H-M_alt    "P 1"
_space_group_IT_number       1

loop_
  _space_group_symop_operation_xyz
  'x, y, z'

loop_
  _atom_site_type_symbol
  _atom_site_label
  _atom_site_symmetry_multiplicity
  _atom_site_fract_x
  _atom_site_fract_y
  _atom_site_fract_z
  _atom_site_occupancy
  Sr  Sr1       1.0  0.4572035626688302  0.2199363689279182  0.608162903334531  1.0000
  Sr  Sr2       1.0  0.9572050187857498  0.2800637685972519  0.8918372977661452  1.0000
  Sr  Sr3       1.0  0.5427951874295116  0.7800641984165753  0.3918351606408451  1.0000
  Sr  Sr4       1.0  0.04279626404136388  0.7199356746479354  0.10816364962873594  1.0000
  H   H1        1.0  0.46046893939470107  0.8989235409463704  0.7256463500410961  1.0000
  H   H2        1.0  0.9604674927218395  0.6010772556870094  0.7743522298729177  1.0000
  H   H3        1.0  0.5395336097994841  0.10107817610155222  0.2743518145447653  1.0000
  H   H4        1.0  0.039533790104115986  0.3989210378579743  0.22564861691186178  1.0000
  H   H5        1.0  0.3312545100204928  0.013380854938532106  0.8057998268256131  1.0000
  H   H6        1.0  0.8312563650070075  0.48661790177035885  0.6941982586203113  1.0000
  H   H7        1.0  0.668745506441631  0.9866185712397455  0.19419913121624438  1.0000
  H   H8        1.0  0.1687461841860625  0.5133826741102825  0.3058008000319036  1.0000
  H   H9        1.0  0.2652076949405071  0.46972421206839243  0.49511173795367835  1.0000
  H   H10       1.0  0.7652073493854986  0.030275385424104705  0.004888739537172202  1.0000
  H   H11       1.0  0.7347923215227751  0.5302763638100888  0.5048873206982807  1.0000
  H   H12       1.0  0.23479266707561658  0.969722916652714  0.9951131019239347  1.0000
  H   H13       1.0  0.12141067958056337  0.4497318509948088  0.6079851643319076  1.0000
  H   H14       1.0  0.6214116733655785  0.05027000671699262  0.8920141748155576  1.0000
  H   H15       1.0  0.8785893368839336  0.5502698831167905  0.3920149896066008  1.0000
  H   H16       1.0  0.3785908758275411  0.9497305776965634  0.10798587851310518  1.0000
  H   H17       1.0  0.37708578567706746  0.3051083548679827  0.10404065401321823  1.0000
  H   H18       1.0  0.87708580441366  0.19489372362928498  0.3959590528429403  1.0000
  H   H19       1.0  0.6229154971521708  0.6948933536459522  0.8959565158960675  1.0000
  H   H20       1.0  0.12291421205098625  0.8051080360810587  0.6040440851249189  1.0000
  H   H21       1.0  0.5972217729430723  0.2834813313422303  0.11565061780089544  1.0000
  H   H22       1.0  0.09722159967875398  0.21651913035831438  0.3843499260333588  1.0000
  H   H23       1.0  0.4027795098850007  0.7165192274715012  0.8843464514982817  1.0000
  H   H24       1.0  0.9027784167823609  0.7834791717185111  0.6156519154277477  1.0000
  H   H25       1.0  0.4281573129871177  0.6001475241401693  0.12084156689595463  1.0000
  H   H26       1.0  0.9281552099523935  0.8998530038451026  0.37915732198163016  1.0000
  H   H27       1.0  0.5718439698409056  0.3998530261406472  0.8791545077267745  1.0000
  H   H28       1.0  0.07184100741520179  0.10014644792869382  0.6208446200891873  1.0000
  C   C1        1.0  0.4687909543581057  0.3851434014172171  0.29408164283835003  1.0000
  C   C2        1.0  0.9687907959858036  0.11485653353256005  0.20591788150412077  1.0000
  C   C3        1.0  0.5312115948360228  0.6148583070977979  0.7059155270710635  1.0000
  C   C4        1.0  0.031207954110463697  0.8851417770761006  0.7940849546333058  1.0000
  C   C5        1.0  0.4933862657766141  0.36412096528235355  0.14290005442617126  1.0000
  C   C6        1.0  0.9933848961254979  0.13587900293324404  0.3570984802568163  1.0000
  C   C7        1.0  0.5066150170503009  0.6358784438311745  0.857096914262904  1.0000
  C   C8        1.0  0.006612587608152899  0.8641215985418287  0.6429035624242376  1.0000
  C   C9        1.0  0.5167394472610736  0.5125470683945326  0.07591423394679006  1.0000
  C   C10       1.0  0.016737289749940494  0.9874550683187805  0.4240857669041206  1.0000
  C   C11       1.0  0.48326183556821417  0.48745464865231725  0.9240839306389436  1.0000
  C   C12       1.0  0.9832589276199212  0.012546674322507601  0.5759153817104519  1.0000
  C   C13       1.0  0.6956933321900178  0.5739701767073415  0.09818915372800065  1.0000
  C   C14       1.0  0.19568978284438993  0.9260299732696706  0.4018116770830319  1.0000
  C   C15       1.0  0.3043092170041675  0.42603154034058127  0.9018090108578608  1.0000
  C   C16       1.0  0.8043051681571995  0.07396833733576363  0.5981911590540038  1.0000
  O   O1        1.0  0.5113166457221752  0.2748978512341226  0.35986737495716176  1.0000
  O   O2        1.0  0.0113190017972329  0.22510131477248052  0.14013305074383456  1.0000
  O   O3        1.0  0.48868590347078816  0.7251027075806818  0.6401296943421502  1.0000
  O   O4        1.0  0.9886784819341442  0.7748969958351068  0.8598697853934568  1.0000
  O   O5        1.0  0.4490479640876188  0.005580946578803002  0.7730590514710232  1.0000
  O   O6        1.0  0.949048571173776  0.49441917708519884  0.7269411479659456  1.0000
  O   O7        1.0  0.5509520523757132  0.9944196378326001  0.22694100185737656  1.0000
  O   O8        1.0  0.05095144528839769  0.5055802576259938  0.27305880475235983  1.0000
  O   O9        1.0  0.39825835561234146  0.5088837596642151  0.3471511620242255  1.0000
  O   O10       1.0  0.8982589497858983  0.9911167260429469  0.15284871543112646  1.0000
  O   O11       1.0  0.6017429272145164  0.4911156409163981  0.652844811988402  1.0000
  O   O12       1.0  0.10173980031148488  0.008882725733002403  0.8471532266399465  1.0000
  O   O13       1.0  0.21734536689371703  0.4006498524625003  0.5563898859866825  1.0000
  O   O14       1.0  0.7173451974293528  0.09934987742195742  0.9436102661862126  1.0000
  O   O15       1.0  0.7826546495707234  0.5993518731161914  0.4436092732753779  1.0000
  O   O16       1.0  0.2826560853966028  0.9006484161230264  0.05639058059856693  1.0000
  O   O17       1.0  0.719758189008104  0.6945793924496118  0.17890514992751608  1.0000
  O   O18       1.0  0.21975439016990347  0.8054219566585702  0.32109678107892153  1.0000
  O   O19       1.0  0.2802418274551783  0.3054211834288766  0.8210939087244358  1.0000
  O   O20       1.0  0.7802392944680037  0.1945775121789026  0.6789071503445357  1.0000
  O   O21       1.0  0.8158029043761912  0.5046787175705418  0.03209708480164861  1.0000
  O   O22       1.0  0.3158007663998531  0.9953204783009396  0.46790267522359846  1.0000
  O   O23       1.0  0.18419964481571324  0.4953207086098957  0.9679018732404646  1.0000
  O   O24       1.0  0.6841954509665837  0.004677823772652801  0.5320991662371101  1.0000
