data_image0
_chemical_formula_structural       Cd4H20C36N24O8
_chemical_formula_sum              "Cd4 H20 C36 N24 O8"
_cell_length_a       8.555927191273847
_cell_length_b       10.138826749859186
_cell_length_c       12.998829745001059
_cell_angle_alpha    90.0000251752958
_cell_angle_beta     90.00002917356414
_cell_angle_gamma    107.78782982684086

_space_group_name_H-M_alt    "P 1"
_space_group_IT_number       1

loop_
  _space_group_symop_operation_xyz
  'x, y, z'

loop_
  _atom_site_type_symbol
  _atom_site_label
  _atom_site_symmetry_multiplicity
  _atom_site_fract_x
  _atom_site_fract_y
  _atom_site_fract_z
  _atom_site_occupancy
  Cd  Cd1       1.0  0.7212507667762295  0.9528137414490842  0.5490789413790367  1.0000
  Cd  Cd2       1.0  0.7787486958195801  0.5471848592890183  0.04907771891467411  1.0000
  Cd  Cd3       1.0  0.27874505228736973  0.0471848943490869  0.4509221854137665  1.0000
  Cd  Cd4       1.0  0.22125296495339342  0.45281377046418214  0.9509226385791012  1.0000
  H   H1        1.0  0.06448201284516132  0.0034390858613236003  0.6924615773816216  1.0000
  H   H2        1.0  0.4355191926621913  0.49656246463028714  0.19246286748470715  1.0000
  H   H3        1.0  0.9355168955902183  0.9965616191684957  0.30753801081201  1.0000
  H   H4        1.0  0.5644828444559595  0.5034372009486391  0.8075390286093482  1.0000
  H   H5        1.0  0.22758697504878708  0.17863102254629837  0.8229395339466097  1.0000
  H   H6        1.0  0.2724132021812835  0.3213706399028879  0.32294070975251543  1.0000
  H   H7        1.0  0.7724131017285528  0.8213696812745894  0.17706005424722096  1.0000
  H   H8        1.0  0.7275876665944949  0.6786290268846429  0.677060417041311  1.0000
  H   H9        1.0  0.8771519616828556  0.38655922838457707  0.8112593966882145  1.0000
  H   H10       1.0  0.6228466978023661  0.11343872010170492  0.31126122103163584  1.0000
  H   H11       1.0  0.12284849143924964  0.6134425112617237  0.18874096080587321  1.0000
  H   H12       1.0  0.3771533789766224  0.8865619837204974  0.6887414443622861  1.0000
  H   H13       1.0  0.7447644181935972  0.5668212406049022  0.4796449375124824  1.0000
  H   H14       1.0  0.7552350909489007  0.933179798452173  0.979640779749687  1.0000
  H   H15       1.0  0.2552348272772208  0.43318360893417224  0.5203546506819026  1.0000
  H   H16       1.0  0.2447635197583153  0.06681365338290851  0.0203557312425815  1.0000
  H   H17       1.0  0.2573440565389902  0.6776006085609296  0.5543562146161278  1.0000
  H   H18       1.0  0.24265854023329333  0.82239651795382  0.054355842101358604  1.0000
  H   H19       1.0  0.7426556045855007  0.32240216811938177  0.44564414287800264  1.0000
  H   H20       1.0  0.7573447045336651  0.1776000377303717  0.9456422074922631  1.0000
  C   C1        1.0  0.8279098948766901  0.2045223828031553  0.7137775054450802  1.0000
  C   C2        1.0  0.6720878679662476  0.29547651997495444  0.21377863857091486  1.0000
  C   C3        1.0  0.17209131093327557  0.795481428492657  0.2862213134494383  1.0000
  C   C4        1.0  0.3279133771547079  0.704524182638309  0.7862240268231986  1.0000
  C   C5        1.0  0.022793251736693797  0.0890093067315263  0.7194263198128967  1.0000
  C   C6        1.0  0.4772095274033248  0.4109933012640283  0.21942836444866745  1.0000
  C   C7        1.0  0.9772056566995105  0.9109913982989467  0.2805748069807806  1.0000
  C   C8        1.0  0.522792886059584  0.5890074001403107  0.780574300945638  1.0000
  C   C9        1.0  0.1133023877507711  0.1856856832831966  0.7903442738999191  1.0000
  C   C10       1.0  0.3866981308334871  0.3143169873244815  0.2903454859925461  1.0000
  C   C11       1.0  0.8866968970289619  0.814316057571709  0.20965531429395415  1.0000
  C   C12       1.0  0.6133034906313951  0.6856847511135413  0.7096564101017863  1.0000
  C   C13       1.0  0.9202702374429208  0.30201545306779554  0.7841623350682742  1.0000
  C   C14       1.0  0.5797256799252181  0.19798143901082454  0.2841626347487818  1.0000
  C   C15       1.0  0.07973213670818072  0.6979883570184314  0.21583494522640487  1.0000
  C   C16       1.0  0.42027439685335816  0.8020192648110437  0.7158392613451102  1.0000
  C   C17       1.0  0.6726996171624363  0.2106515624157836  0.6713213506455773  1.0000
  C   C18       1.0  0.827298476448867  0.2893483401506459  0.1713217649170957  1.0000
  C   C19       1.0  0.3272977465874618  0.7893481079985419  0.32867977614765936  1.0000
  C   C20       1.0  0.17270276867166964  0.7106523624622979  0.8286801311769949  1.0000
  C   C21       1.0  0.0010593506933247012  0.6357581696462731  0.5207739103707426  1.0000
  C   C22       1.0  0.4989416260319856  0.8642410024305035  0.020769792185099306  1.0000
  C   C23       1.0  0.9989406867755122  0.3642456428591174  0.4792264471236295  1.0000
  C   C24       1.0  0.501058529360705  0.1357534840200785  0.9792251802075643  1.0000
  C   C25       1.0  0.855532801391803  0.5362916601585896  0.48890578475718643  1.0000
  C   C26       1.0  0.6444678860351516  0.9637093855510628  0.9889039077186228  1.0000
  C   C27       1.0  0.14446569139031598  0.46371111773032675  0.5110938034367296  1.0000
  C   C28       1.0  0.3555326457031213  0.036286136725578906  0.011093372574343601  1.0000
  C   C29       1.0  0.145087380491681  0.5985364965162957  0.5312941062478489  1.0000
  C   C30       1.0  0.3549132311836659  0.9014616486658301  0.0312922597910088  1.0000
  C   C31       1.0  0.8549138253195281  0.401467314780497  0.4687070205467451  1.0000
  C   C32       1.0  0.6450869242102684  0.09853283778573288  0.9687050205017232  1.0000
  C   C33       1.0  0.0015665342495552936  0.7815178028948538  0.5423212593445187  1.0000
  C   C34       1.0  0.4984348419510169  0.7184824232965354  0.04231786110605641  1.0000
  C   C35       1.0  0.9984331268753479  0.21848497378578463  0.4576798674496347  1.0000
  C   C36       1.0  0.5015641057928661  0.2815151730487814  0.9576809577870408  1.0000
  N   N1        1.0  0.8815131926833645  0.09903000598033881  0.6818515458308525  1.0000
  N   N2        1.0  0.6184876252609116  0.4009709389318985  0.18185346571623742  1.0000
  N   N3        1.0  0.11848609209678064  0.9009717348748935  0.3181488116630434  1.0000
  N   N4        1.0  0.3815136198592128  0.5990297636807115  0.8181476610778305  1.0000
  N   N5        1.0  0.061675577114343086  0.2914806618827086  0.8219455892905572  1.0000
  N   N6        1.0  0.43832343070680213  0.20852100093176767  0.3219467831532726  1.0000
  N   N7        1.0  0.9383237076658019  0.7085210789725237  0.17805476820333152  1.0000
  N   N8        1.0  0.5616751013846512  0.7914786682732996  0.6780535743401476  1.0000
  N   N9        1.0  0.5841858611934966  0.11426222713767228  0.6054053856831844  1.0000
  N   N10       1.0  0.9158121616587492  0.38573761947981206  0.10540586242547081  1.0000
  N   N11       1.0  0.4158103342144486  0.885737444485578  0.39459574110986045  1.0000
  N   N12       1.0  0.084188707116617  0.6142620473073919  0.89459449506834  1.0000
  N   N13       1.0  0.4561081418932815  0.1570328977547959  0.5803308063371305  1.0000
  N   N14       1.0  0.04389102221340121  0.3429664871194332  0.08033114281256813  1.0000
  N   N15       1.0  0.5438899745444914  0.8429688443090344  0.4196687818565438  1.0000
  N   N16       1.0  0.9561094702172002  0.6570321438423579  0.9196684453809854  1.0000
  N   N17       1.0  0.46566447223082724  0.2749773992094973  0.6292029196064846  1.0000
  N   N18       1.0  0.034336289025510815  0.22502306176347278  0.12920398235287683  1.0000
  N   N19       1.0  0.5343363572352047  0.7250253762615556  0.3707966685878219  1.0000
  N   N20       1.0  0.9656630350635496  0.7749755704075768  0.8707963751404934  1.0000
  N   N21       1.0  0.6010373986562526  0.3104530767402025  0.6870758504964841  1.0000
  N   N22       1.0  0.8989618802094698  0.18954683798991567  0.18707702463975556  1.0000
  N   N23       1.0  0.39896113343519357  0.6895465924648577  0.3129245069969357  1.0000
  N   N24       1.0  0.10103782022393658  0.8104528300062199  0.8129233328538563  1.0000
  O   O1        1.0  0.13756911551351445  0.8733587363568773  0.5613737821742789  1.0000
  O   O2        1.0  0.3624342414802157  0.6266404677641545  0.06137261483267762  1.0000
  O   O3        1.0  0.8624317139533418  0.12664403911482938  0.4386273446200662  1.0000
  O   O4        1.0  0.6375658746064516  0.3733571273728841  0.9386277426606568  1.0000
  O   O5        1.0  0.8615564281740973  0.8007501862706689  0.5402212190146471  1.0000
  O   O6        1.0  0.6384449459434193  0.699250477389974  0.040219231088691715  1.0000
  O   O7        1.0  0.13843980654235108  0.19924637666807848  0.4597791384778561  1.0000
  O   O8        1.0  0.3615566755198074  0.30075126104674155  0.9597795878055495  1.0000
