data_image0
_chemical_formula_structural       Zn2H26C36N4O12F4
_chemical_formula_sum              "Zn2 H26 C36 N4 O12 F4"
_cell_length_a       7.633036919727164
_cell_length_b       8.421715053710907
_cell_length_c       15.340407185889115
_cell_angle_alpha    96.27905505356996
_cell_angle_beta     95.25314448406642
_cell_angle_gamma    107.52991693589453

_space_group_name_H-M_alt    "P 1"
_space_group_IT_number       1

loop_
  _space_group_symop_operation_xyz
  'x, y, z'

loop_
  _atom_site_type_symbol
  _atom_site_label
  _atom_site_symmetry_multiplicity
  _atom_site_fract_x
  _atom_site_fract_y
  _atom_site_fract_z
  _atom_site_occupancy
  Zn  Zn1       1.0  0.9171308614629721  0.6872894986566108  0.6715864137610839  1.0000
  Zn  Zn2       1.0  0.08285913499881302  0.3127034092795498  0.3284056929531474  1.0000
  H   H1        1.0  0.5626241781228813  0.6652587271396797  0.7313599750568186  1.0000
  H   H2        1.0  0.43736291741843303  0.33474154140827034  0.26863768195818244  1.0000
  H   H3        1.0  0.3695119569180889  0.847563817276736  0.7656918601965543  1.0000
  H   H4        1.0  0.6304893380669372  0.15244381176335509  0.23431227553754042  1.0000
  H   H5        1.0  0.8079021272526462  0.26528521414664397  0.702441417118969  1.0000
  H   H6        1.0  0.1920854578097391  0.7347078587045175  0.2975460050552243  1.0000
  H   H7        1.0  0.9863691276966263  0.06218182350495738  0.6717994802590398  1.0000
  H   H8        1.0  0.013624491876136353  0.9378146233603532  0.3281995801639966  1.0000
  H   H9        1.0  0.12526239609000808  0.18599372416316126  0.8746599040747045  1.0000
  H   H10       1.0  0.8747460716390661  0.8140010875138444  0.1253502868188079  1.0000
  H   H11       1.0  0.21049815851147713  0.3348857372796629  0.8020397969218821  1.0000
  H   H12       1.0  0.7894993843750557  0.6651191869828565  0.19796917135152373  1.0000
  H   H13       1.0  0.5354881376673362  0.7227549417432184  0.5233269624748758  1.0000
  H   H14       1.0  0.46451508999993524  0.2772569329440772  0.4766645196782164  1.0000
  H   H15       1.0  0.21297482131917886  0.0632278243184459  0.5329158978142347  1.0000
  H   H16       1.0  0.7870286667819072  0.9367804642987778  0.467070142510842  1.0000
  H   H17       1.0  0.8160272778899014  0.36278718922271475  0.8551139379734138  1.0000
  H   H18       1.0  0.18397327085711618  0.6371943950698836  0.14487798615612493  1.0000
  H   H19       1.0  0.2124543449550984  0.7942659884635715  0.013515448136935492  1.0000
  H   H20       1.0  0.7875355767898357  0.20571929975600511  0.9864781024102244  1.0000
  H   H21       1.0  0.30164092576512763  0.030424512532960097  0.829165069856657  1.0000
  H   H22       1.0  0.6983393962112957  0.9695671137396148  0.17082707818084233  1.0000
  H   H23       1.0  0.6356608538787398  0.42061979472863  0.6303029989251671  1.0000
  H   H24       1.0  0.36431994075473284  0.5793702671268477  0.369697547552434  1.0000
  H   H25       1.0  0.7354058523178467  0.4554600176470558  0.5388647862682916  1.0000
  H   H26       1.0  0.26459021729991855  0.5445211662100177  0.4611379534693896  1.0000
  C   C1        1.0  0.6124513944367607  0.7990929038853167  0.7265905164429469  1.0000
  C   C2        1.0  0.3875366849678272  0.20090240262872067  0.27340490666249206  1.0000
  C   C3        1.0  0.505183685781141  0.9023084947264054  0.7453318321014707  1.0000
  C   C4        1.0  0.49480773821677093  0.09768921032868862  0.25466719306236035  1.0000
  C   C5        1.0  0.5734794969843761  0.07255208090383997  0.7360647368237141  1.0000
  C   C6        1.0  0.4265169558790447  0.92746342701286  0.26393053244299847  1.0000
  C   C7        1.0  0.7489718726411639  0.13276796789376283  0.709045739317574  1.0000
  C   C8        1.0  0.2510111331922147  0.8672274799970197  0.2909455052294448  1.0000
  C   C9        1.0  0.8490513759060717  0.0218236741090791  0.6928754450997161  1.0000
  C   C10       1.0  0.15094430779523538  0.9781742664849488  0.3071173061624179  1.0000
  C   C11       1.0  0.4698451883431786  0.1952868596224135  0.7568657569174064  1.0000
  C   C12       1.0  0.5301470568215978  0.804695346867085  0.2431433642963441  1.0000
  C   C13       1.0  0.2506309769110615  0.26346457055274186  0.8516083108544807  1.0000
  C   C14       1.0  0.7493790557640949  0.7365427050730844  0.1484060570252907  1.0000
  C   C15       1.0  0.3761005604417348  0.38494571408863715  0.928651907591842  1.0000
  C   C16       1.0  0.6238961312667828  0.6150491447845213  0.07135634292010451  1.0000
  C   C17       1.0  0.44983617206926846  0.5562393641053305  0.9241617267735904  1.0000
  C   C18       1.0  0.5501614926021645  0.44376658276200226  0.0758538372262691  1.0000
  C   C19       1.0  0.42912461280027964  0.3315903784447443  0.006929464734795885  1.0000
  C   C20       1.0  0.5708792503168995  0.668417203463619  0.9930761114633031  1.0000
  C   C21       1.0  0.20928077845860565  0.7533089664417715  0.5646127771123375  1.0000
  C   C22       1.0  0.7907465245761999  0.24669372394617278  0.4353898328160853  1.0000
  C   C23       1.0  0.358382785406448  0.8800859022053799  0.529884101848694  1.0000
  C   C24       1.0  0.6416202541815181  0.11992583114199108  0.4701112731956343  1.0000
  C   C25       1.0  0.5196869398426145  0.843380091801322  0.5117075116453762  1.0000
  C   C26       1.0  0.48031041250582973  0.15662660888818178  0.48828721885104903  1.0000
  C   C27       1.0  0.33934691787951016  0.03702051277638669  0.5183829969937648  1.0000
  C   C28       1.0  0.6606514086708019  0.9629850004025117  0.4816097508994517  1.0000
  C   C29       1.0  0.03701876476140601  0.6746829679291722  0.846369810780324  1.0000
  C   C30       1.0  0.9629906228024439  0.3253323749989008  0.15363071436078712  1.0000
  C   C31       1.0  0.016344488214727358  0.586177587370095  0.9264614512647216  1.0000
  C   C32       1.0  0.9836493701066897  0.41381147534517737  0.0735325648391694  1.0000
  C   C33       1.0  0.896358283581641  0.42078594443083267  0.9190352639365004  1.0000
  C   C34       1.0  0.10363512016656531  0.5792094091596951  0.08095914720570362  1.0000
  C   C35       1.0  0.11968813902297633  0.6656376294934675  0.008312867102134197  1.0000
  C   C36       1.0  0.8803011714159865  0.33435383181808476  0.9916843225593726  1.0000
  N   N1        1.0  0.7816463486565154  0.8578584204942956  0.7014242876683243  1.0000
  N   N2        1.0  0.21834622796117742  0.1421420129134248  0.2985691133074013  1.0000
  N   N3        1.0  0.3407867168516531  0.1490848134819274  0.811807786525094  1.0000
  N   N4        1.0  0.6592284809755781  0.8509243092040393  0.18819068279925233  1.0000
  O   O1        1.0  0.5095118526701654  0.333195243449012  0.727954594857799  1.0000
  O   O2        1.0  0.4905037284991637  0.6668349384030776  0.2720544295599582  1.0000
  O   O3        1.0  0.10517253538284888  0.8172493271118173  0.6095697587165319  1.0000
  O   O4        1.0  0.894843900777822  0.18274082872176933  0.3904301207536919  1.0000
  O   O5        1.0  0.1941026231849321  0.5996592309423575  0.5509342799847091  1.0000
  O   O6        1.0  0.8059404539010588  0.40035950936323417  0.4490787343427201  1.0000
  O   O7        1.0  0.9576521109970598  0.577746025011308  0.7723966165785825  1.0000
  O   O8        1.0  0.04238532705997498  0.4222620749133624  0.22759647110481757  1.0000
  O   O9        1.0  0.12453836955913988  0.828360094665413  0.8530357043289669  1.0000
  O   O10       1.0  0.8754683378454972  0.17163723337274212  0.14697455887971964  1.0000
  O   O11       1.0  0.7055069355624894  0.5069880071180322  0.5968431193430065  1.0000
  O   O12       1.0  0.29448008289963207  0.49299329458674623  0.4031558764010725  1.0000
  F   F1        1.0  0.3992943656847743  0.6174552257337068  0.8512055222833582  1.0000
  F   F2        1.0  0.6006875357202617  0.3825545193240458  0.14880878720610724  1.0000
  F   F3        1.0  0.364150807862501  0.1663445213868684  0.0162048603543781  1.0000
  F   F4        1.0  0.6358742875736993  0.833651854587572  0.983797860517349  1.0000
