data_image0
_chemical_formula_structural       Nd2Zn2H32C52N4Cl2O22
_chemical_formula_sum              "Nd2 Zn2 H32 C52 N4 Cl2 O22"
_cell_length_a       8.431481773954516
_cell_length_b       12.755752452266812
_cell_length_c       13.312817382067568
_cell_angle_alpha    107.38190213634911
_cell_angle_beta     104.91658352310642
_cell_angle_gamma    93.50095603295075

_space_group_name_H-M_alt    "P 1"
_space_group_IT_number       1

loop_
  _space_group_symop_operation_xyz
  'x, y, z'

loop_
  _atom_site_type_symbol
  _atom_site_label
  _atom_site_symmetry_multiplicity
  _atom_site_fract_x
  _atom_site_fract_y
  _atom_site_fract_z
  _atom_site_occupancy
  Nd  Nd1       1.0  0.7549454993587758  0.008937246431472097  0.5120712742083242  1.0000
  Nd  Nd2       1.0  0.24505827696215482  0.9910633386151345  0.4879291097819732  1.0000
  Zn  Zn1       1.0  0.6785597907189215  0.2845395044475154  0.33748542215484184  1.0000
  Zn  Zn2       1.0  0.32144048018926  0.7154618901744525  0.6625153844007202  1.0000
  H   H1        1.0  0.8660906058495784  0.9114996706447724  0.7090533290178485  1.0000
  H   H2        1.0  0.1339086056848728  0.08850254805994948  0.2909467934738217  1.0000
  H   H3        1.0  0.002733244887018289  0.9144842366954437  0.6445043291240254  1.0000
  H   H4        1.0  0.997268430314165  0.08551799570291506  0.3554969428202952  1.0000
  H   H5        1.0  0.32310664009580153  0.3130332285247803  0.8226440989652419  1.0000
  H   H6        1.0  0.6768957378080315  0.6869665184741645  0.17735657166357288  1.0000
  H   H7        1.0  0.2367332199290573  0.45950845581203464  0.9619880030079955  1.0000
  H   H8        1.0  0.7632661974948367  0.5404887837551372  0.03801447827630977  1.0000
  H   H9        1.0  0.9589140785229591  0.5213085752663389  0.9067807503342139  1.0000
  H   H10       1.0  0.04108637477102658  0.4786878413030918  0.09321940690490042  1.0000
  H   H11       1.0  0.4859327309116708  0.5410180193881897  0.7185285688733957  1.0000
  H   H12       1.0  0.5140659533177114  0.45898751550990374  0.28147242160985547  1.0000
  H   H13       1.0  0.9263455117647084  0.521770424578463  0.6079106923894955  1.0000
  H   H14       1.0  0.07365039437052448  0.4782276248353269  0.3920914594328054  1.0000
  H   H15       1.0  0.8410017242339122  0.6676357336553806  0.5243691903893719  1.0000
  H   H16       1.0  0.15899975905426797  0.3323598601875729  0.47562789077728246  1.0000
  H   H17       1.0  0.579902065293723  0.7464246323554917  0.5432647216654518  1.0000
  H   H18       1.0  0.42010134848021613  0.25357429164571227  0.456733624918165  1.0000
  H   H19       1.0  0.26778620359286986  0.71559447102581  0.14211777234272213  1.0000
  H   H20       1.0  0.7322095084047433  0.28440855698302403  0.8578835247414814  1.0000
  H   H21       1.0  0.3617219188068361  0.6391501100865395  0.9727292033436116  1.0000
  H   H22       1.0  0.6382757482924788  0.36085043842030723  0.02727469924685982  1.0000
  H   H23       1.0  0.5784056028606841  0.7505768950851885  0.9387083267990664  1.0000
  H   H24       1.0  0.4215957285335534  0.24941786687877956  0.061291495800602995  1.0000
  H   H25       1.0  0.7067889798152295  0.9928750339561034  0.8903795051893867  1.0000
  H   H26       1.0  0.29321323920643744  0.0071296900103518975  0.1096248228649586  1.0000
  H   H27       1.0  0.9547147669002528  0.8111257121305682  0.09461034019574303  1.0000
  H   H28       1.0  0.04528426447301109  0.18886986747622808  0.9053870955727918  1.0000
  H   H29       1.0  0.09559890856129269  0.7299590779596766  0.9473279823068667  1.0000
  H   H30       1.0  0.9043955227700381  0.27003813693278284  0.05266467979941319  1.0000
  H   H31       1.0  0.030648909019944895  0.7842192812739909  0.7797529798559923  1.0000
  H   H32       1.0  0.9693397521331306  0.2157795592091318  0.22024223014805955  1.0000
  C   C1        1.0  0.8947343842356617  0.40705862896809447  0.7423501264222736  1.0000
  C   C2        1.0  0.10526342888169178  0.592942751688973  0.25765028270789975  1.0000
  C   C3        1.0  0.9384749315178169  0.3223346409905261  0.6647149947450687  1.0000
  C   C4        1.0  0.06152498859519537  0.6776650920435258  0.3352852784583575  1.0000
  C   C5        1.0  0.09484198451954738  0.28907436731370945  0.6956356514868602  1.0000
  C   C6        1.0  0.9051617800495678  0.7109262182754038  0.30436322844889224  1.0000
  C   C7        1.0  0.20248654646043457  0.34002965308902583  0.8015147911135544  1.0000
  C   C8        1.0  0.797513730323658  0.6599717412616782  0.1984867674692837  1.0000
  C   C9        1.0  0.15373918585132884  0.42178803830053374  0.878733949799809  1.0000
  C   C10       1.0  0.8462559999535203  0.5782124973264402  0.121266547256191  1.0000
  C   C11       1.0  0.9994046167773618  0.45589933041431857  0.8490853773394065  1.0000
  C   C12       1.0  0.0005949525404744615  0.5440987410318312  0.1509143625118838  1.0000
  C   C13       1.0  0.8213587592562421  0.2754382762051008  0.5496555137605412  1.0000
  C   C14       1.0  0.17864624596009548  0.7245623158239523  0.45034506894244697  1.0000
  C   C15       1.0  0.14371254525369181  0.19333157757250058  0.6198178213971843  1.0000
  C   C16       1.0  0.8562857892928266  0.8066664871624597  0.3801809677141393  1.0000
  C   C17       1.0  0.5682218811305333  0.56757494652652  0.6766135160018437  1.0000
  C   C18       1.0  0.43177980582247244  0.43242728532933217  0.32338925999702184  1.0000
  C   C19       1.0  0.7111223956063456  0.5201260617544676  0.6690349252813023  1.0000
  C   C20       1.0  0.28888017532280946  0.4798745152246652  0.3309682681053943  1.0000
  C   C21       1.0  0.8127491132353627  0.555837813489468  0.6140367728689143  1.0000
  C   C22       1.0  0.18725046195838493  0.4441602576854249  0.385963719009645  1.0000
  C   C23       1.0  0.7646474742535574  0.6375895068456642  0.5675421526887164  1.0000
  C   C24       1.0  0.23535472237678332  0.36240940963058677  0.4324574992367545  1.0000
  C   C25       1.0  0.6211048127901576  0.6823138928043732  0.5781911245259508  1.0000
  C   C26       1.0  0.37889545811802355  0.31768750181759486  0.4218096820296113  1.0000
  C   C27       1.0  0.6165871453111009  0.8860007298169637  0.09030421299009826  1.0000
  C   C28       1.0  0.3834113763848209  0.11399816516944129  0.9096963468518383  1.0000
  C   C29       1.0  0.567034031599981  0.9295571107623954  0.18554559722908687  1.0000
  C   C30       1.0  0.4329648232633901  0.07044344662568139  0.8144532398831714  1.0000
  C   C31       1.0  0.43859163726267514  0.8673245455602224  0.20198417285520515  1.0000
  C   C32       1.0  0.5614063453763619  0.1326776661620599  0.7980157509237671  1.0000
  C   C33       1.0  0.3660808992626912  0.7620465072478878  0.12634193785789452  1.0000
  C   C34       1.0  0.6339177860790031  0.23795321907497421  0.873657384605565  1.0000
  C   C35       1.0  0.41899154941317107  0.7197375103497448  0.03353236421550321  1.0000
  C   C36       1.0  0.5810048594111877  0.28026303253093227  0.9664675795259116  1.0000
  C   C37       1.0  0.5424444329956586  0.7820962298356875  0.013886315525994149  1.0000
  C   C38       1.0  0.4575574069636019  0.2179010253239113  0.986112051020065  1.0000
  C   C39       1.0  0.6536150073668524  0.042100817325980686  0.2645367421955456  1.0000
  C   C40       1.0  0.3463838533724228  0.9578997397908394  0.7354628469439888  1.0000
  C   C41       1.0  0.37188055865341596  0.9109010474994857  0.29707490282855537  1.0000
  C   C42       1.0  0.6281198935282647  0.0891011776451762  0.7029269224303506  1.0000
  C   C43       1.0  0.7913535166283054  0.9340836039582356  0.9041890745734236  1.0000
  C   C44       1.0  0.20864535586278524  0.06591695261607809  0.0958120186206486  1.0000
  C   C45       1.0  0.8180440204170765  0.904743834486595  0.9992902640345562  1.0000
  C   C46       1.0  0.18195818796508692  0.09525508144714927  0.0007108919454524117  1.0000
  C   C47       1.0  0.9289196827040199  0.8312030128662896  0.018388511180106128  1.0000
  C   C48       1.0  0.0710784764449173  0.16879422107471947  0.9816100112551497  1.0000
  C   C49       1.0  0.006400766759760758  0.7869478049030645  0.9378529134410274  1.0000
  C   C50       1.0  0.9935954431633791  0.2130519082686746  0.06214375551524405  1.0000
  C   C51       1.0  0.9717204462596956  0.8185944142319883  0.8438522417884969  1.0000
  C   C52       1.0  0.028272604282278697  0.18140196179905388  0.15614296303811415  1.0000
  N   N1        1.0  0.5254384303326703  0.6475594780108265  0.6326027166027332  1.0000
  N   N2        1.0  0.47456324486851287  0.35244275438753175  0.3673985553415945  1.0000
  N   N3        1.0  0.8677751513797743  0.8914683089378456  0.8275587862834756  1.0000
  N   N4        1.0  0.1322238906329929  0.10853307870166866  0.17244182155940282  1.0000
  Cl  Cl1       1.0  0.7736205330784856  0.37783575828763827  0.24309945632526112  1.0000
  Cl  Cl2       1.0  0.22638325499426062  0.6221648262164476  0.7569024317195813  1.0000
  O   O1        1.0  0.8530579100335844  0.32023159913958915  0.481693063698863  1.0000
  O   O2        1.0  0.1469432272230193  0.6797681414194228  0.5183059041627089  1.0000
  O   O3        1.0  0.700172656399175  0.20060748245779078  0.5267702756196542  1.0000
  O   O4        1.0  0.2998323429412507  0.7993931098425122  0.473229555056065  1.0000
  O   O5        1.0  0.0287832614308243  0.11083148669541029  0.5572981751670483  1.0000
  O   O6        1.0  0.971218221857356  0.889164107147536  0.44269890599960593  1.0000
  O   O7        1.0  0.292415130116659  0.18982151397888458  0.6185487772054401  1.0000
  O   O8        1.0  0.7075911216228193  0.8101790842188449  0.38145426029205254  1.0000
  O   O9        1.0  0.7373278781943927  0.43832767139834766  0.7168096904686935  1.0000
  O   O10       1.0  0.26267449383354363  0.5616720758718542  0.28319022813284533  1.0000
  O   O11       1.0  0.5944041169001438  0.12586777012839426  0.24613206652141878  1.0000
  O   O12       1.0  0.4055949251126307  0.8741336175111271  0.7538685413214523  1.0000
  O   O13       1.0  0.7814294377095196  0.0450506744417822  0.3416462530975153  1.0000
  O   O14       1.0  0.2185729401943206  0.954949072557163  0.6583544175312923  1.0000
  O   O15       1.0  0.46718893745529755  0.9824888452802438  0.3885142141333731  1.0000
  O   O16       1.0  0.5328155345800668  0.017515063213430396  0.6114864845339341  1.0000
  O   O17       1.0  0.22307995223080476  0.8796503358625076  0.28836163726860076  1.0000
  O   O18       1.0  0.7769187261226662  0.12035519930684296  0.7116386011873814  1.0000
  O   O19       1.0  0.7376463710562644  0.9538431109369437  0.07630054970370263  1.0000
  O   O20       1.0  0.2623554806548186  0.0461541436801411  0.9236993208969011  1.0000
  O   O21       1.0  0.882089632223142  0.9087594223891597  0.6348379645841221  1.0000
  O   O22       1.0  0.11791081408262728  0.0912428030267591  0.3651631086475149  1.0000
