data_image0
_chemical_formula_structural       Zn4H56C48S8N16
_chemical_formula_sum              "Zn4 H56 C48 S8 N16"
_cell_length_a       8.10338991107414
_cell_length_b       13.137967830128533
_cell_length_c       13.372614938118382
_cell_angle_alpha    89.99965019692733
_cell_angle_beta     90.0003318186045
_cell_angle_gamma    90.00036383970493

_space_group_name_H-M_alt    "P 1"
_space_group_IT_number       1

loop_
  _space_group_symop_operation_xyz
  'x, y, z'

loop_
  _atom_site_type_symbol
  _atom_site_label
  _atom_site_symmetry_multiplicity
  _atom_site_fract_x
  _atom_site_fract_y
  _atom_site_fract_z
  _atom_site_occupancy
  Zn  Zn1       1.0  0.04070061286008551  0.8749696339397064  0.9332547118255761  1.0000
  Zn  Zn2       1.0  0.4593043237654442  0.1250318182285497  0.43324927888835424  1.0000
  Zn  Zn3       1.0  0.5407019706268059  0.6250198784783976  0.0667504196243556  1.0000
  Zn  Zn4       1.0  0.959299477773392  0.3749797046607953  0.5667535888532669  1.0000
  H   H1        1.0  0.8593240601465127  0.8483860791147535  0.3154989665653432  1.0000
  H   H2        1.0  0.6406600183588155  0.15161728476282121  0.8154926335527151  1.0000
  H   H3        1.0  0.3593402196382485  0.6516198929244225  0.68449980616888  1.0000
  H   H4        1.0  0.1406500015160006  0.3483846288595699  0.1845031324835347  1.0000
  H   H5        1.0  0.5594506089506979  0.1856629210617342  0.9979428678432356  1.0000
  H   H6        1.0  0.9405524882500985  0.8143484417832809  0.49794295997446625  1.0000
  H   H7        1.0  0.059426155914465505  0.31433030465314715  0.0020660732613607  1.0000
  H   H8        1.0  0.4405758978576415  0.6856707851372903  0.5020433855288147  1.0000
  H   H9        1.0  0.1116022630254889  0.9938658649153072  0.12443062256654971  1.0000
  H   H10       1.0  0.388389852670791  0.006137508248564  0.6244260315066299  1.0000
  H   H11       1.0  0.6116113418783656  0.5061368622972823  0.8755657843614628  1.0000
  H   H12       1.0  0.8883856506531274  0.49386232217403153  0.3755676135964023  1.0000
  H   H13       1.0  0.0347508528275995  0.00045521874571360005  0.2505180036606021  1.0000
  H   H14       1.0  0.4652572753393329  0.9995504147349764  0.7505152079460515  1.0000
  H   H15       1.0  0.5347416414377761  0.4995478061734673  0.7494766425337434  1.0000
  H   H16       1.0  0.9652492110671106  0.5004498791343011  0.24948618028091127  1.0000
  H   H17       1.0  0.18636850294510773  0.9090421026561586  0.21658949802115052  1.0000
  H   H18       1.0  0.31363066290936104  0.09096069724763822  0.716586379451215  1.0000
  H   H19       1.0  0.6863837534352513  0.590954825506593  0.7834049281870179  1.0000
  H   H20       1.0  0.813624699712861  0.4090441711033392  0.2834107420002496  1.0000
  H   H21       1.0  0.45870927827052554  0.9074066705346411  0.0501116963303119  1.0000
  H   H22       1.0  0.0412895322040541  0.09259868722656962  0.5501128458382425  1.0000
  H   H23       1.0  0.9586903477123982  0.59257989714839  0.9498911645103476  1.0000
  H   H24       1.0  0.5413110565386958  0.4074157804137784  0.4498833189390155  1.0000
  H   H25       1.0  0.6340286510442114  0.9774316766068908  0.005873625437431001  1.0000
  H   H26       1.0  0.865975918275865  0.022569807535255403  0.5058733439306522  1.0000
  H   H27       1.0  0.13402174489851154  0.522562764887553  0.9941355728151892  1.0000
  H   H28       1.0  0.3659850070125117  0.4774360251322704  0.4941262048161335  1.0000
  H   H29       1.0  0.5367019477991022  0.012550556026113203  0.1194465039652286  1.0000
  H   H30       1.0  0.9633086420517785  0.9874464158909434  0.6194460172941803  1.0000
  H   H31       1.0  0.0366765744219038  0.4874357310387084  0.8805593660582858  1.0000
  H   H32       1.0  0.463320454732326  0.5125599596927161  0.3805501295259149  1.0000
  H   H33       1.0  0.6038949482482822  0.621206784273994  0.2605727684368588  1.0000
  H   H34       1.0  0.8961009463853175  0.37879616011966283  0.760572701622408  1.0000
  H   H35       1.0  0.10390535416313182  0.8787966741786803  0.7394251070104545  1.0000
  H   H36       1.0  0.39609649783474055  0.1212044613618062  0.23942695294093852  1.0000
  H   H37       1.0  0.6991164400660639  0.6967845705657255  0.35607759037779374  1.0000
  H   H38       1.0  0.800885302662593  0.3032231078115757  0.8560821287113427  1.0000
  H   H39       1.0  0.19912021270535973  0.8032245854835766  0.6439191239458778  1.0000
  H   H40       1.0  0.3008720890719658  0.1967794276002905  0.1439164435556322  1.0000
  H   H41       1.0  0.5170777579758479  0.7402682922324644  0.2979037760934062  1.0000
  H   H42       1.0  0.9829221951960249  0.2597298530457195  0.7979009887198458  1.0000
  H   H43       1.0  0.017079166102483605  0.7597317846668405  0.7020952899662021  1.0000
  H   H44       1.0  0.48291615920716424  0.24026577730668214  0.2020967274550571  1.0000
  H   H45       1.0  0.2759200427500589  0.3570850985125348  0.8442366901715275  1.0000
  H   H46       1.0  0.22407787372319632  0.6429199519875793  0.3442303188939134  1.0000
  H   H47       1.0  0.7759088616656982  0.14290363925505292  0.155766281222526  1.0000
  H   H48       1.0  0.7240971387145195  0.857089300971481  0.6557634919548718  1.0000
  H   H49       1.0  0.37654893108249615  0.36950389212064044  0.9630370798767629  1.0000
  H   H50       1.0  0.12344518342369781  0.6304973747708332  0.463030429524146  1.0000
  H   H51       1.0  0.8765463590926714  0.13048219158288527  0.036963253847027  1.0000
  H   H52       1.0  0.6234560389230098  0.8695114876316767  0.5369645233972166  1.0000
  H   H53       1.0  0.49176174475199735  0.3330437086078391  0.8567081502174076  1.0000
  H   H54       1.0  0.008231354605214802  0.6669620254487967  0.3567046156357776  1.0000
  H   H55       1.0  0.9917469922447995  0.16694510563209528  0.1432978227805251  1.0000
  H   H56       1.0  0.5082465485974694  0.8330509567377719  0.6432959149270872  1.0000
  C   C1        1.0  0.9449580070105413  0.8744044367639957  0.16468111677260566  1.0000
  C   C2        1.0  0.5550406742313214  0.12559834297702824  0.6646791256540184  1.0000
  C   C3        1.0  0.44496299557327756  0.6255980618299405  0.8353142177871719  1.0000
  C   C4        1.0  0.055039771963130604  0.37440247721996656  0.33532232200873585  1.0000
  C   C5        1.0  0.8071639709880927  0.7791889159087475  0.0407794393984844  1.0000
  C   C6        1.0  0.6928458678003366  0.22080854533963645  0.5407825964030124  1.0000
  C   C7        1.0  0.307160025298252  0.7208054363868756  0.9592161589170305  1.0000
  C   C8        1.0  0.19284515919813572  0.27918900389115464  0.4592185875620629  1.0000
  C   C9        1.0  0.3347727919326289  0.2155417936357793  0.9148733650212436  1.0000
  C   C10       1.0  0.1652257989538484  0.7844597728502265  0.41487117345147334  1.0000
  C   C11       1.0  0.8347574708564738  0.2844456502142165  0.08512981311034201  1.0000
  C   C12       1.0  0.665236748664249  0.7155484905281  0.5851284130223178  1.0000
  C   C13       1.0  0.40187754063676817  0.05305995038019521  0.9868314742207361  1.0000
  C   C14       1.0  0.09812173729680751  0.946945735413493  0.4868288211008719  1.0000
  C   C15       1.0  0.901865688888087  0.44693536540542306  0.013177921997524303  1.0000
  C   C16       1.0  0.5981352479820573  0.5530660733158256  0.5131705296402416  1.0000
  C   C17       1.0  0.15669223019929754  0.079858404970004  0.9015492135798555  1.0000
  C   C18       1.0  0.3433012972814354  0.9201432443795952  0.4015498257310099  1.0000
  C   C19       1.0  0.6566895525618364  0.42012910895014954  0.09845707798779561  1.0000
  C   C20       1.0  0.8433084963731048  0.5798634265765301  0.598460855450213  1.0000
  C   C21       1.0  0.8467794470044723  0.8279790329082817  0.23710745661011862  1.0000
  C   C22       1.0  0.6532088192790794  0.1720255797487908  0.7371047843719722  1.0000
  C   C23       1.0  0.3467940988393536  0.672023845845537  0.7628875330788674  1.0000
  C   C24       1.0  0.1532166155706065  0.3279824718247114  0.262892521353038  1.0000
  C   C25       1.0  0.4447810133294823  0.15457883493025548  0.9685842532569495  1.0000
  C   C26       1.0  0.05522179252562861  0.8454262032312629  0.46857906655508685  1.0000
  C   C27       1.0  0.9447584085947014  0.345415125033604  0.0314237980661787  1.0000
  C   C28       1.0  0.5552377662473873  0.6545839167321148  0.5314134033222118  1.0000
  C   C29       1.0  0.7349170930497237  0.7529855721000587  0.2083240343255071  1.0000
  C   C30       1.0  0.7650783027501546  0.24701617498255504  0.7083287836651593  1.0000
  C   C31       1.0  0.2349216923719908  0.7470115444564769  0.7916683190166367  1.0000
  C   C32       1.0  0.2650781903012529  0.2529869826498937  0.2916689150414129  1.0000
  C   C33       1.0  0.0758765589280159  0.9496920922861846  0.19033478078713267  1.0000
  C   C34       1.0  0.4241223562533989  0.0503108709358244  0.690330798342835  1.0000
  C   C35       1.0  0.5758817653481074  0.5503104962837924  0.8096585094478287  1.0000
  C   C36       1.0  0.9241207682039914  0.4496860535377821  0.3096674590778434  1.0000
  C   C37       1.0  0.5136767606507888  0.983292201752036  0.043587037564464  1.0000
  C   C38       1.0  0.9863244666046713  0.016712092398911704  0.5435872139384514  1.0000
  C   C39       1.0  0.013670667573421702  0.5167002503812909  0.9564202423235244  1.0000
  C   C40       1.0  0.4863369583083994  0.4832995353955383  0.45641200976653806  1.0000
  C   C41       1.0  0.6340013847716223  0.6990255010648666  0.2843046705969385  1.0000
  C   C42       1.0  0.865999672657992  0.3009757733999551  0.7843079555220172  1.0000
  C   C43       1.0  0.13400458528697362  0.8009757907620809  0.7156903194160195  1.0000
  C   C44       1.0  0.36599333792156596  0.1990232089622879  0.21568934991094585  1.0000
  C   C45       1.0  0.37103462484960664  0.3250291837936957  0.8932086766833507  1.0000
  C   C46       1.0  0.1289625251137281  0.6749717563154154  0.393201779211239  1.0000
  C   C47       1.0  0.8710233092444497  0.17495763964100058  0.10679313324573059  1.0000
  C   C48       1.0  0.6289748192650607  0.825034082886049  0.6067946886971072  1.0000
  S   S1        1.0  0.7883907243583864  0.7610547408053989  0.9151993146295965  1.0000
  S   S2        1.0  0.7116165190034708  0.2389434359827831  0.415205041566125  1.0000
  S   S3        1.0  0.2883884908329151  0.7389364940436637  0.08479098317234701  1.0000
  S   S4        1.0  0.21161928906505523  0.26105723071083997  0.5847962083342183  1.0000
  S   S5        1.0  0.9717901419396072  0.027966246514374404  0.8596450102120768  1.0000
  S   S6        1.0  0.5281943580533267  0.9720337981348947  0.35964196112673363  1.0000
  S   S7        1.0  0.4717883925560571  0.4720156398541562  0.1403661272504948  1.0000
  S   S8        1.0  0.0282112795525506  0.5279746945855734  0.6403668653455697  1.0000
  N   N1        1.0  0.9249040768226918  0.8484600454676183  0.0684299768473053  1.0000
  N   N2        1.0  0.5751060259439172  0.15153800494931602  0.5684286485450087  1.0000
  N   N3        1.0  0.4249016155381753  0.6515385695205752  0.931566035061465  1.0000
  N   N4        1.0  0.07510330500019081  0.34845984850756645  0.4315713740162296  1.0000
  N   N5        1.0  0.25680457054488676  0.0158858336927281  0.9538131064489832  1.0000
  N   N6        1.0  0.2431931580845301  0.9841170128704422  0.45381223579749275  1.0000
  N   N7        1.0  0.7567946543228744  0.48410815794440515  0.0461957801569568  1.0000
  N   N8        1.0  0.7432028956457727  0.5158892696000096  0.5461951025367995  1.0000
  N   N9        1.0  0.19072037545707596  0.1779924338778969  0.8808125712871941  1.0000
  N   N10       1.0  0.30927789023983376  0.8220093444752266  0.3808121563452644  1.0000
  N   N11       1.0  0.6907094718877005  0.321995212082804  0.1191938398014116  1.0000
  N   N12       1.0  0.8092838388132152  0.6779971944519829  0.6191946663305004  1.0000
  N   N13       1.0  0.7147286521482954  0.728839028779369  0.11030360131131542  1.0000
  N   N14       1.0  0.7852769142375777  0.2711610446003547  0.6103067813106051  1.0000
  N   N15       1.0  0.21472826794384053  0.7711564871170326  0.889687933310988  1.0000
  N   N16       1.0  0.28527625274526974  0.2288414302651205  0.38969098835175947  1.0000
