data_image0
_chemical_formula_structural       Cd2H48C60Br4N8O8
_chemical_formula_sum              "Cd2 H48 C60 Br4 N8 O8"
_cell_length_a       8.323768660371943
_cell_length_b       10.764430552529305
_cell_length_c       19.9504
_cell_angle_alpha    94.16453899428778
_cell_angle_beta     102.36737644440632
_cell_angle_gamma    94.73585578287137

_space_group_name_H-M_alt    "P 1"
_space_group_IT_number       1

loop_
  _space_group_symop_operation_xyz
  'x, y, z'

loop_
  _atom_site_type_symbol
  _atom_site_label
  _atom_site_symmetry_multiplicity
  _atom_site_fract_x
  _atom_site_fract_y
  _atom_site_fract_z
  _atom_site_occupancy
  Cd  Cd1       1.0  0.2264272404989853  0.7959933160764194  0.1390556473045876  1.0000
  Cd  Cd2       1.0  0.7735734112011768  0.20400749383451708  0.8609454952771501  1.0000
  H   H1        1.0  0.4010378598542346  0.018351490274128  0.2566598792879731  1.0000
  H   H2        1.0  0.5989774263833425  0.9816483834318248  0.7433420331168463  1.0000
  H   H3        1.0  0.2628446504571116  0.0353454833082978  0.04433615554078331  1.0000
  H   H4        1.0  0.7371573556648696  0.9646562628076296  0.955663641027158  1.0000
  H   H5        1.0  0.5254722341766325  0.2328313731611047  0.2756932180919947  1.0000
  H   H6        1.0  0.474536777959365  0.7671675643398501  0.7243096007015026  1.0000
  H   H7        1.0  0.37911009072657004  0.2565042526158265  0.0544367232332661  1.0000
  H   H8        1.0  0.6208913079848557  0.7435021745250694  0.945564706203527  1.0000
  H   H9        1.0  0.5078516216414926  0.43421187578507403  0.28048360476487494  1.0000
  H   H10       1.0  0.4921446083864183  0.5657926789458401  0.7195177906715386  1.0000
  H   H11       1.0  0.6072027096874351  0.3980640647977154  0.07533400168903631  1.0000
  H   H12       1.0  0.3927919018160749  0.6019283192682892  0.9246652684988348  1.0000
  H   H13       1.0  0.6646227735237743  0.6461555793458302  0.2984501331747822  1.0000
  H   H14       1.0  0.3353770217620777  0.3538480391800931  0.7015505416851227  1.0000
  H   H15       1.0  0.7574823053298374  0.6132629531193672  0.10174655870722661  1.0000
  H   H16       1.0  0.2425253523843409  0.3867350481765897  0.8982515911830761  1.0000
  H   H17       1.0  0.8982525929512661  0.7593324647528589  0.17898501350852314  1.0000
  H   H18       1.0  0.1017498960793901  0.24066366413311607  0.8210141048675582  1.0000
  H   H19       1.0  0.8901061370539906  0.7660693958829795  0.267399937102148  1.0000
  H   H20       1.0  0.10989082488634952  0.2339314140279569  0.7325993720315083  1.0000
  H   H21       1.0  0.6035657359981883  0.8307087334243874  0.1541922888217826  1.0000
  H   H22       1.0  0.396434900603147  0.1692827144366191  0.8458024706574818  1.0000
  H   H23       1.0  0.636323162749747  0.875312347909137  0.2438615130516268  1.0000
  H   H24       1.0  0.36366996983006317  0.1246781637468786  0.7561320379377037  1.0000
  H   H25       1.0  0.6458915948965611  0.9730942784101586  0.09112456413746631  1.0000
  H   H26       1.0  0.3541048690362699  0.026902786680807398  0.9088735512733166  1.0000
  H   H27       1.0  0.9434950562815344  0.9926806230701359  0.2914419512468811  1.0000
  H   H28       1.0  0.056496612473417  0.0073173782258208996  0.708555772347971  1.0000
  H   H29       1.0  0.777636903826661  0.1805705380380473  0.07090484936828292  1.0000
  H   H30       1.0  0.22235230508840687  0.8194274632579166  0.9290926544140062  1.0000
  H   H31       1.0  0.0930939490796234  0.1855165090164235  0.2770825831226489  1.0000
  H   H32       1.0  0.9068967387591371  0.8144833646895222  0.7229161286704412  1.0000
  H   H33       1.0  0.009218898057966392  0.3029306582220883  0.05563613318927451  1.0000
  H   H34       1.0  0.9907820026459503  0.6970720240988442  0.944363100038487  1.0000
  H   H35       1.0  0.047213820447972  0.3956580179655234  0.274105618592543  1.0000
  H   H36       1.0  0.9527734115358867  0.6043343661004741  0.7258939946438332  1.0000
  H   H37       1.0  0.12059286329892419  0.5235801320133859  0.05027091863743039  1.0000
  H   H38       1.0  0.8794130815866338  0.47642348651253735  0.9497328119692767  1.0000
  H   H39       1.0  0.1494581245430382  0.6125158615349022  0.2580528908284164  1.0000
  H   H40       1.0  0.8505367359642193  0.3874783949410912  0.7419494824363113  1.0000
  H   H41       1.0  0.3080141339144902  0.972252630121389  0.5062722082969842  1.0000
  H   H42       1.0  0.6919849294589328  0.027754733224504897  0.4937285478933476  1.0000
  H   H43       1.0  0.4476661117067167  0.7969154779945953  0.5586743350258985  1.0000
  H   H44       1.0  0.5523371394340373  0.20309563017126916  0.44132744336305757  1.0000
  H   H45       1.0  0.5105209925902372  0.6195739109776426  0.48288860226056585  1.0000
  H   H46       1.0  0.4894832394667006  0.3804353247782331  0.5171141929024757  1.0000
  H   H47       1.0  0.4454620342518254  0.6284163671371701  0.3554769549616523  1.0000
  H   H48       1.0  0.554541824299484  0.37159006000372585  0.6445272005031129  1.0000
  C   C1        1.0  0.40271671774949164  0.0707536923511327  0.21211275429474344  1.0000
  C   C2        1.0  0.5972920453827442  0.9292433727398333  0.787890971366572  1.0000
  C   C3        1.0  0.32552520889130676  0.0823382929353613  0.0945457192951054  1.0000
  C   C4        1.0  0.6744795060743128  0.9176653255905549  0.9054543927037458  1.0000
  C   C5        1.0  0.4702750595812191  0.19502647933601477  0.22286684551067282  1.0000
  C   C6        1.0  0.5297339525547713  0.80497245816494  0.7771369757689969  1.0000
  C   C7        1.0  0.3907362979047164  0.2070230101171902  0.1007298462308412  1.0000
  C   C8        1.0  0.6092617694536884  0.7929768635887555  0.8992710287291602  1.0000
  C   C9        1.0  0.46766090841527586  0.2656715719079514  0.1663895038289667  1.0000
  C   C10       1.0  0.5323415806153876  0.7343245569780237  0.8336121207625311  1.0000
  C   C11       1.0  0.547117956744934  0.3953397082678833  0.1767386117298955  1.0000
  C   C12       1.0  0.45288552830074014  0.6046639102580329  0.823264397821177  1.0000
  C   C13       1.0  0.5632478365138027  0.4683805494170841  0.2397240005070742  1.0000
  C   C14       1.0  0.43675256618260505  0.5316183880838707  0.7602765452132303  1.0000
  C   C15       1.0  0.6150993851153217  0.44899080780565004  0.1255484648351626  1.0000
  C   C16       1.0  0.3848981842355741  0.5510053210803249  0.8744502139158143  1.0000
  C   C17       1.0  0.649185741659032  0.5858714674321774  0.2509169369676272  1.0000
  C   C18       1.0  0.3508166379685845  0.41413308729873677  0.749084005514014  1.0000
  C   C19       1.0  0.699442367771681  0.5673439706193548  0.1388215923628451  1.0000
  C   C20       1.0  0.3005577859209794  0.43265309447161115  0.8611783564960263  1.0000
  C   C21       1.0  0.8150586175628688  0.7564489533742105  0.21467700483599833  1.0000
  C   C22       1.0  0.1849430150534843  0.2435499841267443  0.7853226483044224  1.0000
  C   C23       1.0  0.6985103425271431  0.8592011961834273  0.20134665009793906  1.0000
  C   C24       1.0  0.301484642481995  0.1407939964975569  0.798649756058964  1.0000
  C   C25       1.0  0.7444055878173401  0.0266837147124335  0.1296745518162012  1.0000
  C   C26       1.0  0.2555882917737335  0.9733124141735415  0.8703212910005221  1.0000
  C   C27       1.0  0.9100633109804547  0.0342660389512943  0.24232383311564124  1.0000
  C   C28       1.0  0.0899358617960146  0.9657328985496604  0.7576756002122238  1.0000
  C   C29       1.0  0.8198619765460933  0.1407331431730015  0.11971670892330621  1.0000
  C   C30       1.0  0.1801279642814109  0.8592611133029847  0.8802802122854771  1.0000
  C   C31       1.0  0.9916647712870841  0.1473380693990975  0.23420862214544513  1.0000
  C   C32       1.0  0.008332922565692489  0.8526589956918683  0.7657911069008634  1.0000
  C   C33       1.0  0.9442712082644462  0.2044119343915227  0.1729614166490734  1.0000
  C   C34       1.0  0.05572402574844659  0.7955851306994433  0.8270345838831047  1.0000
  C   C35       1.0  0.0166366363925547  0.3308988461850078  0.1658127490221233  1.0000
  C   C36       1.0  0.9833585976203381  0.6690982189059582  0.8341872614547158  1.0000
  C   C37       1.0  0.03704080552768119  0.3684462836370059  0.1020269502055413  1.0000
  C   C38       1.0  0.9629548019908399  0.6315535900689397  0.8979732036988254  1.0000
  C   C39       1.0  0.0613794281935682  0.41960707789320395  0.22337258390749068  1.0000
  C   C40       1.0  0.9386105126339288  0.5803871785827823  0.7766268435167092  1.0000
  C   C41       1.0  0.09926382517028998  0.49131382692728204  0.0985773058403083  1.0000
  C   C42       1.0  0.9007390373659946  0.5086851105736656  0.9014249634217961  1.0000
  C   C43       1.0  0.1188776411699877  0.5409064778201014  0.2146544168503226  1.0000
  C   C44       1.0  0.8811198036790273  0.4590887148608828  0.7853487252792135  1.0000
  C   C45       1.0  0.345658619796211  0.8065864755729918  0.3596098214736259  1.0000
  C   C46       1.0  0.6543431373220159  0.1934133981329538  0.6403893782328822  1.0000
  C   C47       1.0  0.304767020844146  0.9043028717244894  0.401971704511169  1.0000
  C   C48       1.0  0.6952381921289827  0.09570449162139738  0.5980296012105555  1.0000
  C   C49       1.0  0.3391028894783616  0.8967205474856285  0.47338861615008193  1.0000
  C   C50       1.0  0.6608983847311833  0.1032849434502694  0.5266112617482861  1.0000
  C   C51       1.0  0.41445524342368856  0.7964857599027795  0.5026878121565943  1.0000
  C   C52       1.0  0.5855452988734272  0.2035234758531033  0.49731415204453816  1.0000
  C   C53       1.0  0.4528574618944603  0.6989079220902497  0.4604327090074065  1.0000
  C   C54       1.0  0.5471416014789625  0.3010994412556443  0.5395705533983346  1.0000
  C   C55       1.0  0.4184415298615889  0.7045101727687708  0.3893175154137722  1.0000
  C   C56       1.0  0.5815571600061985  0.2954943819621434  0.6106835985921178  1.0000
  C   C57       1.0  0.309878015109966  0.8064217034942088  0.283178387468034  1.0000
  C   C58       1.0  0.6901252209319607  0.19358004262172557  0.7168230227354329  1.0000
  C   C59       1.0  0.2309093657506267  0.0190742405287736  0.3732592283755238  1.0000
  C   C60       1.0  0.7691003933966343  0.9809303142021406  0.6267408698145331  1.0000
  Br  Br1       1.0  0.39883856654495986  0.7256300212073938  0.044126548793819616  1.0000
  Br  Br2       1.0  0.6011565278672322  0.2743567456286442  0.9558735469314499  1.0000
  Br  Br3       1.0  0.9351608319282293  0.8156526847258618  0.05487351738738509  1.0000
  Br  Br4       1.0  0.0648408006881169  0.184346252775093  0.9451271382391937  1.0000
  N   N1        1.0  0.33355595599332577  0.014227507279656498  0.1490004305571375  1.0000
  N   N2        1.0  0.6664467820410849  0.9857704940163002  0.8510002871665493  1.0000
  N   N3        1.0  0.7190582565656881  0.6324064728176282  0.2013828256914181  1.0000
  N   N4        1.0  0.2809448549743578  0.3675943370933084  0.7986165317305449  1.0000
  N   N5        1.0  0.7876685783230215  0.9770928099355487  0.1908540247507204  1.0000
  N   N6        1.0  0.21232751210418138  0.0229014465404376  0.8091434459894559  1.0000
  N   N7        1.0  0.1372619485728421  0.5770271388626611  0.1534216340637755  1.0000
  N   N8        1.0  0.8627410384653303  0.4229727348432846  0.8465806830075097  1.0000
  O   O1        1.0  0.4126077517548127  0.763522918301831  0.249917868750579  1.0000
  O   O2        1.0  0.5873903156035922  0.2364769554041146  0.7500840086955876  1.0000
  O   O3        1.0  0.1750222601224038  0.8445814190116749  0.2513931828670408  1.0000
  O   O4        1.0  0.8249783915777584  0.1554193908992687  0.7486079597147041  1.0000
  O   O5        1.0  0.3222103414469828  0.0922601934518994  0.3464973846795019  1.0000
  O   O6        1.0  0.6777908082606885  0.9077443612790077  0.6535014429235275  1.0000
  O   O7        1.0  0.084882652842694  0.0314798928919231  0.3795290060540495  1.0000
  O   O8        1.0  0.915120956704861  0.9685246618389911  0.6204685376322844  1.0000
