data_image0
_chemical_formula_structural       Zn16H120C216O52
_chemical_formula_sum              "Zn16 H120 C216 O52"
_cell_length_a       19.51047668368789
_cell_length_b       19.51048789218374
_cell_length_c       31.798452571158784
_cell_angle_alpha    105.86082876007835
_cell_angle_beta     105.86076147563465
_cell_angle_gamma    94.22329510570407

_space_group_name_H-M_alt    "P 1"
_space_group_IT_number       1

loop_
  _space_group_symop_operation_xyz
  'x, y, z'

loop_
  _atom_site_type_symbol
  _atom_site_label
  _atom_site_symmetry_multiplicity
  _atom_site_fract_x
  _atom_site_fract_y
  _atom_site_fract_z
  _atom_site_occupancy
  Zn  Zn1       1.0  0.46843118016438734  0.24547059470646104  0.3488288135935349  1.0000
  Zn  Zn2       1.0  0.5538904927313766  0.3926743377634595  0.4267719026119466  1.0000
  Zn  Zn3       1.0  0.6200698537431465  0.316854965497683  0.3475115390157769  1.0000
  Zn  Zn4       1.0  0.6129503402267175  0.2439982165820496  0.42613118875443223  1.0000
  Zn  Zn5       1.0  0.2454710179901198  0.46843190837593324  0.848828881276127  1.0000
  Zn  Zn6       1.0  0.3926728068271003  0.5538892080961803  0.9267712823773309  1.0000
  Zn  Zn7       1.0  0.3168557950320121  0.6200698671050944  0.8475122156845459  1.0000
  Zn  Zn8       1.0  0.2439989842788606  0.6129497822424453  0.9261308419876357  1.0000
  Zn  Zn9       1.0  0.7545308679341219  0.5315692363778908  0.1511713096122023  1.0000
  Zn  Zn10      1.0  0.6073258403028631  0.44611035497249685  0.07322873115111862  1.0000
  Zn  Zn11      1.0  0.6831450113460278  0.37993004049221213  0.15248821665048953  1.0000
  Zn  Zn12      1.0  0.75600074116484  0.3870494192943213  0.07386866247488652  1.0000
  Zn  Zn13      1.0  0.5315685473723449  0.7545307388649007  0.6511713623260178  1.0000
  Zn  Zn14      1.0  0.4461097759276668  0.6073276157362885  0.5732290964784781  1.0000
  Zn  Zn15      1.0  0.3799309516965081  0.6831454736456379  0.6524880386314464  1.0000
  Zn  Zn16      1.0  0.38704938652728066  0.756001518750942  0.5738690341773065  1.0000
  H   H1        1.0  0.6171817810145157  0.484927516723033  0.2928520921573252  1.0000
  H   H2        1.0  0.577211030842328  0.5765296643219457  0.2547918665412467  1.0000
  H   H3        1.0  0.49352156524768986  0.6760778217860804  0.3651983230428115  1.0000
  H   H4        1.0  0.5373692060214736  0.586061682879361  0.40400062127576325  1.0000
  H   H5        1.0  0.4752167708393812  0.6054139666387073  0.2155435278699045  1.0000
  H   H6        1.0  0.43745476333054983  0.8200657326307307  0.2167311728304143  1.0000
  H   H7        1.0  0.5269204358305332  0.775017509600296  0.3441217976542958  1.0000
  H   H8        1.0  0.5121794159536748  0.622200991482991  0.15262754909233686  1.0000
  H   H9        1.0  0.47231317912964244  0.5850833011926255  0.06793086589156871  1.0000
  H   H10       1.0  0.2955912598975914  0.7046470263601494  0.06901115842813257  1.0000
  H   H11       1.0  0.33655675637960775  0.7437702000062387  0.15451460798416153  1.0000
  H   H12       1.0  0.585873800879611  0.8892787416697345  0.36068789984987865  1.0000
  H   H13       1.0  0.597450114579445  0.020751542998127114  0.3991198402702665  1.0000
  H   H14       1.0  0.4000273294894471  0.028468253500392386  0.3005026733628284  1.0000
  H   H15       1.0  0.38631892466263207  0.8965673797017788  0.2625617221618057  1.0000
  H   H16       1.0  0.3954059992063321  0.45295938724360957  0.47560310433231484  1.0000
  H   H17       1.0  0.3032933066939166  0.4631562633212169  0.5159068637366246  1.0000
  H   H18       1.0  0.1764387971004098  0.2658164645298697  0.4161221930522458  1.0000
  H   H19       1.0  0.26971375176989903  0.25652979003488946  0.3758069010430063  1.0000
  H   H20       1.0  0.2564477869023563  0.41571250610928706  0.5609151260963827  1.0000
  H   H21       1.0  0.036153197953879605  0.3731028819338817  0.5591100957932369  1.0000
  H   H22       1.0  0.0877707907204268  0.3249807877007172  0.43199728314280617  1.0000
  H   H23       1.0  0.9533251794962966  0.2668930914647731  0.5130135505574743  1.0000
  H   H24       1.0  0.8209088701782434  0.23694904242319134  0.4729420102961939  1.0000
  H   H25       1.0  0.847342431946359  0.3435414170900657  0.37540688224793684  1.0000
  H   H26       1.0  0.9796894044868197  0.3739635539582267  0.4151143832030257  1.0000
  H   H27       1.0  0.229548457963503  0.5271391694508765  0.6199257551737745  1.0000
  H   H28       1.0  0.2664989116477088  0.5735881063087689  0.7051398681640394  1.0000
  H   H29       1.0  0.1592616030641736  0.3760478513595871  0.7092853522615812  1.0000
  H   H30       1.0  0.11821848756557782  0.3305316370765681  0.623577584330562  1.0000
  H   H31       1.0  0.4849288092403511  0.6171818048422396  0.7928537240534013  1.0000
  H   H32       1.0  0.5765297256480225  0.577209952265065  0.754791798294214  1.0000
  H   H33       1.0  0.6760781102316713  0.49352020218174886  0.865198172949647  1.0000
  H   H34       1.0  0.58606355025033  0.5373692794212985  0.9040016573110776  1.0000
  H   H35       1.0  0.6054146377899627  0.47521700016447715  0.7155437287965539  1.0000
  H   H36       1.0  0.8200665419012267  0.43745411090439745  0.7167308353627889  1.0000
  H   H37       1.0  0.7750185020432169  0.5269211044089915  0.8441223937908332  1.0000
  H   H38       1.0  0.6222009533655992  0.5121791592738703  0.6526278725215846  1.0000
  H   H39       1.0  0.5850826020114184  0.4723141258678967  0.5679309644761902  1.0000
  H   H40       1.0  0.7046463796552374  0.29559135737674325  0.5690106924294511  1.0000
  H   H41       1.0  0.7437706044484145  0.336556856003611  0.6545140044150344  1.0000
  H   H42       1.0  0.8892796009095889  0.5858741243613251  0.8606877652116367  1.0000
  H   H43       1.0  0.020752143819898105  0.5974510596679039  0.8991197989233228  1.0000
  H   H44       1.0  0.028468314755897894  0.4000275566614917  0.8005029697526993  1.0000
  H   H45       1.0  0.8965679628742792  0.38631927961940693  0.7625614650530537  1.0000
  H   H46       1.0  0.4529593723891948  0.39540595302892  0.9756028585897526  1.0000
  H   H47       1.0  0.4631551150982816  0.3032937034243234  0.015907202322928488  1.0000
  H   H48       1.0  0.2658169450457565  0.176438195951782  0.9161219247918382  1.0000
  H   H49       1.0  0.2565302405157226  0.2697124852026889  0.8758059279317438  1.0000
  H   H50       1.0  0.41571201721124856  0.25644727631100744  0.06091510895490872  1.0000
  H   H51       1.0  0.37310233743115623  0.03615191147776639  0.059109555026914506  1.0000
  H   H52       1.0  0.324980863827534  0.0877703880148175  0.9319969221441868  1.0000
  H   H53       1.0  0.2668911049301457  0.9533254918025025  0.013012496084201153  1.0000
  H   H54       1.0  0.2369482826519942  0.8209089957838174  0.9729419216318718  1.0000
  H   H55       1.0  0.3435418984121696  0.8473409747834426  0.8754070193056053  1.0000
  H   H56       1.0  0.3739636213549887  0.9796881830886052  0.9151139016866452  1.0000
  H   H57       1.0  0.5271383872262803  0.22954873223214634  0.11992639467174372  1.0000
  H   H58       1.0  0.5735858993910768  0.2665004724249371  0.20514016632229476  1.0000
  H   H59       1.0  0.37604643614304223  0.1592597831982729  0.2092843095298704  1.0000
  H   H60       1.0  0.3305317373349368  0.1182155924106922  0.12357661699200412  1.0000
  H   H61       1.0  0.515071997176598  0.38281757030897273  0.20714693370663892  1.0000
  H   H62       1.0  0.4234699998735039  0.4227881843795132  0.2452081570183111  1.0000
  H   H63       1.0  0.3239226944252493  0.5064786387231948  0.13480145170976954  1.0000
  H   H64       1.0  0.41393779511808054  0.4626296485158861  0.09599870131278725  1.0000
  H   H65       1.0  0.3945861689599823  0.5247839727750688  0.2844565673198929  1.0000
  H   H66       1.0  0.17993372335449465  0.5625451767645304  0.2832687738013818  1.0000
  H   H67       1.0  0.22498338478050073  0.4730800412449129  0.1558784263603172  1.0000
  H   H68       1.0  0.377798773388399  0.48782057605912127  0.3473723504101542  1.0000
  H   H69       1.0  0.414916045079636  0.5276859696468746  0.4320688236272617  1.0000
  H   H70       1.0  0.2953538873216033  0.7044089969845402  0.4309897244103453  1.0000
  H   H71       1.0  0.25622966248950974  0.6634440308037739  0.34548618699976436  1.0000
  H   H72       1.0  0.11072336168510333  0.4141245272760301  0.13931155978514204  1.0000
  H   H73       1.0  0.97925136038576  0.4025476799017795  0.10088088930072558  1.0000
  H   H74       1.0  0.9715319488565372  0.5999695994228845  0.19949628258584082  1.0000
  H   H75       1.0  0.1034317621975163  0.6136788565751277  0.23743817562806413  1.0000
  H   H76       1.0  0.5470403534653343  0.6045937814039847  0.024396735079172085  1.0000
  H   H77       1.0  0.5368435328533253  0.6967069254366294  0.9840929896183327  1.0000
  H   H78       1.0  0.734182780359035  0.8235615380310861  0.08387735424568632  1.0000
  H   H79       1.0  0.7434700238405298  0.7302868015661517  0.12419305196961258  1.0000
  H   H80       1.0  0.5842882484942108  0.7435520118079637  0.939084814840669  1.0000
  H   H81       1.0  0.6268973875628133  0.9638472896089565  0.9408896348042006  1.0000
  H   H82       1.0  0.6750188619880787  0.9122298788641885  0.06800244609974024  1.0000
  H   H83       1.0  0.7331080806626318  0.04667415604820489  0.9869866782516752  1.0000
  H   H84       1.0  0.7630503631287623  0.17909056593472875  0.02705714800235624  1.0000
  H   H85       1.0  0.6564594469562337  0.15265795315374928  0.12459333931825968  1.0000
  H   H86       1.0  0.6260355646875199  0.02031146521214572  0.08488558728063109  1.0000
  H   H87       1.0  0.47286241776363636  0.770451706461131  0.8800728683440795  1.0000
  H   H88       1.0  0.4264138264245362  0.7334997944540688  0.7948592019216321  1.0000
  H   H89       1.0  0.623954368025231  0.8407395897027287  0.7907147750731341  1.0000
  H   H90       1.0  0.6694696054517949  0.881781735487955  0.8764225301184256  1.0000
  H   H91       1.0  0.38281794397945396  0.5150716843636902  0.70714709767379  1.0000
  H   H92       1.0  0.42278977508597393  0.42347024282531714  0.7452082511623815  1.0000
  H   H93       1.0  0.5064792402308741  0.32392208491113916  0.6348014800294094  1.0000
  H   H94       1.0  0.4626299783388319  0.41393636628293257  0.5959982854408922  1.0000
  H   H95       1.0  0.524784575311763  0.3945865595368616  0.7844567837417743  1.0000
  H   H96       1.0  0.5625455023749099  0.1799335554882404  0.7832687509651637  1.0000
  H   H97       1.0  0.4730803705085905  0.2249829304431117  0.6558784092557418  1.0000
  H   H98       1.0  0.4878203103116832  0.37779927584605844  0.8473721337829971  1.0000
  H   H99       1.0  0.5276854675116738  0.414916793872102  0.9320686075804688  1.0000
  H   H100      1.0  0.7044079291763339  0.2953542224291894  0.9309898566839936  1.0000
  H   H101      1.0  0.663443511496702  0.25623015525513176  0.8454864381184422  1.0000
  H   H102      1.0  0.4141248478158203  0.1107240178756896  0.6393120196541986  1.0000
  H   H103      1.0  0.4025479951645323  0.9792516637613178  0.6008803783699791  1.0000
  H   H104      1.0  0.5999686181306885  0.9715308784574503  0.6994965020259799  1.0000
  H   H105      1.0  0.6136781026204544  0.10343139207428459  0.7374378880552896  1.0000
  H   H106      1.0  0.6045937266871135  0.547039814743208  0.5243967147616146  1.0000
  H   H107      1.0  0.6967069589726337  0.5368435572438486  0.48409283463395525  1.0000
  H   H108      1.0  0.8235620088278921  0.7341834426173932  0.5838779246513895  1.0000
  H   H109      1.0  0.730286514346382  0.7434700309802196  0.6241931119589738  1.0000
  H   H110      1.0  0.7435530194367672  0.5842879339341138  0.4390850808136549  1.0000
  H   H111      1.0  0.9638470693948662  0.626898537769641  0.44089018482796405  1.0000
  H   H112      1.0  0.9122300160684276  0.6750196527927272  0.5680032383986315  1.0000
  H   H113      1.0  0.04667562684282701  0.7331073485786349  0.48698665635256344  1.0000
  H   H114      1.0  0.17909193533922974  0.7630503318279338  0.5270580182010249  1.0000
  H   H115      1.0  0.152657834619653  0.6564584043750868  0.6245934453854501  1.0000
  H   H116      1.0  0.020310862040283005  0.6260367999530203  0.5848857190053636  1.0000
  H   H117      1.0  0.7704512682240221  0.4728621627703617  0.38007347685156395  1.0000
  H   H118      1.0  0.7335002764489147  0.4264142064726712  0.2948600668352769  1.0000
  H   H119      1.0  0.8407413629727574  0.6239529336624939  0.29071558808644943  1.0000
  H   H120      1.0  0.8817839369771294  0.669467462674895  0.37642266906519967  1.0000
  C   C1        1.0  0.5977904869530306  0.470366140350805  0.3706737955664253  1.0000
  C   C2        1.0  0.579704491422433  0.5297460253715016  0.3506944987713254  1.0000
  C   C3        1.0  0.5907446843054913  0.5275042413137356  0.30859299116868044  1.0000
  C   C4        1.0  0.5676231350229203  0.5785603070522853  0.28728351730472923  1.0000
  C   C5        1.0  0.5320088598205218  0.632847543004196  0.3070323100615511  1.0000
  C   C6        1.0  0.5223608455165163  0.6355100037661287  0.3497100233548309  1.0000
  C   C7        1.0  0.5462360017818283  0.5848659313084992  0.37145535957838394  1.0000
  C   C8        1.0  0.5049711324351733  0.6846424320015317  0.282677714859787  1.0000
  C   C9        1.0  0.4783918578642812  0.6619047501103594  0.234541908019061  1.0000
  C   C10       1.0  0.452915838293066  0.7099454098803972  0.2104916707626145  1.0000
  C   C11       1.0  0.4540622675215005  0.7816920640372871  0.2353533801388252  1.0000
  C   C12       1.0  0.4808631781888123  0.8061420904333262  0.2835048075756177  1.0000
  C   C13       1.0  0.505762088619484  0.7567970721444868  0.3067261551580317  1.0000
  C   C14       1.0  0.4274022470407246  0.6859749227055048  0.15975136694862613  1.0000
  C   C15       1.0  0.46435206297584125  0.6401948270102195  0.13456244910801723  1.0000
  C   C16       1.0  0.4421366162345848  0.6192972028067416  0.08683854924856864  1.0000
  C   C17       1.0  0.381266139535974  0.6426331795624096  0.06297282244217683  1.0000
  C   C18       1.0  0.3432099870985255  0.6872706791934108  0.08774593653622284  1.0000
  C   C19       1.0  0.36649336265217153  0.7091471658521016  0.1355024396448528  1.0000
  C   C20       1.0  0.4856533644708776  0.8832686824284933  0.3084384193291144  1.0000
  C   C21       1.0  0.5440785563733569  0.9191399783955134  0.3478399190379378  1.0000
  C   C22       1.0  0.5511742544910803  0.9928756368086625  0.3693141366567971  1.0000
  C   C23       1.0  0.499768698537828  0.0328608828628916  0.3519218890110096  1.0000
  C   C24       1.0  0.4401155147240701  0.9971996119140485  0.31352353713484854  1.0000
  C   C25       1.0  0.43317017140043396  0.9235542136343255  0.29225466965654334  1.0000
  C   C26       1.0  0.3970872131460865  0.3455634325777979  0.4017246334723481  1.0000
  C   C27       1.0  0.3381897176785742  0.3541553437730017  0.4231067781246339  1.0000
  C   C28       1.0  0.34712353281288705  0.41236390735806344  0.4625752538670512  1.0000
  C   C29       1.0  0.29512124940120543  0.41777645536578933  0.4851343201660896  1.0000
  C   C30       1.0  0.23270438830182635  0.36544410356214035  0.4687695959906293  1.0000
  C   C31       1.0  0.2237074576519049  0.30777777045120314  0.4287353181995428  1.0000
  C   C32       1.0  0.2757667433995934  0.3019811606101613  0.4061812959140028  1.0000
  C   C33       1.0  0.17842259509263408  0.36982216262352813  0.4934838971122417  1.0000
  C   C34       1.0  0.19946733878805392  0.39732433462238254  0.5415789558492321  1.0000
  C   C35       1.0  0.14873654375095674  0.3976339770335215  0.5653881130519025  1.0000
  C   C36       1.0  0.0760017122849348  0.3708607652033891  0.5406703638706958  1.0000
  C   C37       1.0  0.05326699868309251  0.3457092186087465  0.49253234715363453  1.0000
  C   C38       1.0  0.10501365523489882  0.3451163762466223  0.4694184117774043  1.0000
  C   C39       1.0  0.9756717434976708  0.32319062676958055  0.4671013020019075  1.0000
  C   C40       1.0  0.9302432789427403  0.28405843365457883  0.4829690049003474  1.0000
  C   C41       1.0  0.8564846770605213  0.26682163965052297  0.46066263909993665  1.0000
  C   C42       1.0  0.8262109056860822  0.28887942027179037  0.422095961798604  1.0000
  C   C43       1.0  0.8712243480667754  0.32636057688654324  0.4052920737119408  1.0000
  C   C44       1.0  0.9451798775574007  0.34288383715246357  0.4274635965220029  1.0000
  C   C45       1.0  0.17140240494221362  0.42560312946653056  0.6160297259326628  1.0000
  C   C46       1.0  0.2137456711722265  0.4939614875839453  0.6393721963245868  1.0000
  C   C47       1.0  0.23451232522506876  0.5201616422304414  0.6870655220719044  1.0000
  C   C48       1.0  0.21521174022411327  0.47743383798887623  0.7123307727597422  1.0000
  C   C49       1.0  0.1733554684105414  0.4089210916366426  0.6892279086328515  1.0000
  C   C50       1.0  0.15072288748118717  0.3838486870925664  0.6415397312706688  1.0000
  C   C51       1.0  0.23968932946993968  0.5036427909231307  0.7634143588026419  1.0000
  C   C52       1.0  0.7463838437358064  0.2765695439343644  0.4017808352348951  1.0000
  C   C53       1.0  0.5104319088287356  0.11298582304591781  0.37147020909586814  1.0000
  C   C54       1.0  0.3577372903305617  0.6208088720676911  0.011833821977738499  1.0000
  C   C55       1.0  0.4703666746466483  0.5977914502959152  0.8706754558834293  1.0000
  C   C56       1.0  0.5297473205468535  0.5797051657108482  0.8506965219467375  1.0000
  C   C57       1.0  0.527506516471732  0.5907452067921639  0.8085948436298909  1.0000
  C   C58       1.0  0.5785611527286251  0.5676219478018326  0.7872838719827513  1.0000
  C   C59       1.0  0.632846148269465  0.5320083627032091  0.8070323699722978  1.0000
  C   C60       1.0  0.6355115748447275  0.5223610178707004  0.8497097430428583  1.0000
  C   C61       1.0  0.584867529136318  0.546235833231755  0.8714559995429384  1.0000
  C   C62       1.0  0.6846422648138883  0.5049716597924458  0.782678434863854  1.0000
  C   C63       1.0  0.661905175266682  0.4783920378828981  0.7345420385284811  1.0000
  C   C64       1.0  0.7099468236178055  0.4529166422405453  0.7104914130474924  1.0000
  C   C65       1.0  0.7816931474560321  0.45406409249601143  0.7353538390832242  1.0000
  C   C66       1.0  0.8061425790078828  0.4808654113224975  0.7835046072585355  1.0000
  C   C67       1.0  0.7567973434178726  0.5057618714315169  0.8067261668629016  1.0000
  C   C68       1.0  0.6859746355684777  0.42740285554098273  0.6597507914274701  1.0000
  C   C69       1.0  0.6401950312807899  0.46435277801739255  0.6345623207067348  1.0000
  C   C70       1.0  0.61929716754711  0.44213669655536597  0.5868389030533622  1.0000
  C   C71       1.0  0.6426333362135564  0.3812663758279128  0.5629728867540251  1.0000
  C   C72       1.0  0.6872710092715836  0.3432108042558539  0.5877457799320212  1.0000
  C   C73       1.0  0.7091472732499255  0.366493767643533  0.6355024918854469  1.0000
  C   C74       1.0  0.8832698392881255  0.4856553489982787  0.8084376317277985  1.0000
  C   C75       1.0  0.9191413358760201  0.5440793132972317  0.8478392830266728  1.0000
  C   C76       1.0  0.9928760883466127  0.5511746459176976  0.8693135761768148  1.0000
  C   C77       1.0  0.03286156247482099  0.49976936249336024  0.8519217705280298  1.0000
  C   C78       1.0  0.9971999554594506  0.4401152570955417  0.8135234334901611  1.0000
  C   C79       1.0  0.9235546123541172  0.4331707930648109  0.7922538051773175  1.0000
  C   C80       1.0  0.3455649030495067  0.3970871251450135  0.9017240432311766  1.0000
  C   C81       1.0  0.3541559062510444  0.33818904373676173  0.92310622586308  1.0000
  C   C82       1.0  0.41236343376464646  0.3471232087124249  0.9625745673911583  1.0000
  C   C83       1.0  0.41777604786007333  0.2951212683967698  0.9851339939768949  1.0000
  C   C84       1.0  0.3654424972219558  0.2327043056692162  0.9687696772586705  1.0000
  C   C85       1.0  0.3077780596759325  0.22370629235680184  0.928734611188709  1.0000
  C   C86       1.0  0.30198235570012594  0.2757654672909311  0.9061804302227969  1.0000
  C   C87       1.0  0.36982145305102426  0.17842269225746324  0.9934838208470325  1.0000
  C   C88       1.0  0.3973243937411368  0.19946771302949168  0.0415782197212096  1.0000
  C   C89       1.0  0.3976330760149196  0.1487359678649653  0.06538703726867821  1.0000
  C   C90       1.0  0.3708593936269864  0.07600044997555241  0.04066970539840041  1.0000
  C   C91       1.0  0.3457076815850471  0.05326675156618422  0.9925317205710158  1.0000
  C   C92       1.0  0.3451150753377021  0.10501315076958662  0.9694184312420049  1.0000
  C   C93       1.0  0.3231882197391869  0.9756711901888409  0.9671005367752912  1.0000
  C   C94       1.0  0.2840564309446947  0.9302428466821909  0.982968010588671  1.0000
  C   C95       1.0  0.2668195965470659  0.8564843471477559  0.9606622618268333  1.0000
  C   C96       1.0  0.2888791579230414  0.8262109988842071  0.9220959325318958  1.0000
  C   C97       1.0  0.32635977879142086  0.871223314903986  0.9052914549133463  1.0000
  C   C98       1.0  0.34288315326220703  0.9451790906636718  0.9274630606652536  1.0000
  C   C99       1.0  0.4256010896820257  0.1714012005658461  0.11602992485386214  1.0000
  C   C100      1.0  0.4939594691661497  0.21374484658578294  0.13937182312790947  1.0000
  C   C101      1.0  0.5201598720983185  0.23451288412773147  0.1870651051992525  1.0000
  C   C102      1.0  0.47743133608845767  0.2152116946447578  0.2123291981669695  1.0000
  C   C103      1.0  0.4089197668819082  0.17335374628907368  0.1892272044586747  1.0000
  C   C104      1.0  0.383846717220834  0.15072020643186326  0.1415387597497215  1.0000
  C   C105      1.0  0.5036407150913291  0.23968926663956577  0.2634137953527684  1.0000
  C   C106      1.0  0.2765697193916523  0.7463838068615304  0.9017808308209467  1.0000
  C   C107      1.0  0.11298721963976995  0.5104334279880122  0.8714696972422618  1.0000
  C   C108      1.0  0.6208082311118303  0.35773924718202477  0.5118343544812305  1.0000
  C   C109      1.0  0.5296330525959974  0.4022077530410257  0.1293253071047218  1.0000
  C   C110      1.0  0.4702540261318475  0.42029429602256835  0.14930455514635102  1.0000
  C   C111      1.0  0.472495370468728  0.4092543415234502  0.19140665279624614  1.0000
  C   C112      1.0  0.42143965368831715  0.43237742734937973  0.21271678577728184  1.0000
  C   C113      1.0  0.3671530391222504  0.46799128694766523  0.19296806288920015  1.0000
  C   C114      1.0  0.3644897696242069  0.477637909166411  0.1502899863181995  1.0000
  C   C115      1.0  0.4151338162320855  0.4537630947054367  0.12854435908092654  1.0000
  C   C116      1.0  0.31535908223672493  0.49502886728320306  0.21732250601063902  1.0000
  C   C117      1.0  0.338095631483263  0.5216089350566407  0.2654582575879659  1.0000
  C   C118      1.0  0.290053441188185  0.5470826449783387  0.289507881485271  1.0000
  C   C119      1.0  0.21830765925500373  0.5459374128896288  0.2646462316082249  1.0000
  C   C120      1.0  0.193857687891132  0.5191360079309816  0.2164953587312581  1.0000
  C   C121      1.0  0.24320400232245024  0.49423812184790716  0.1932740555423749  1.0000
  C   C122      1.0  0.3140250906190473  0.5725984766802555  0.34024844059786835  1.0000
  C   C123      1.0  0.3598041555833689  0.5356479360756338  0.36543734667336036  1.0000
  C   C124      1.0  0.3807014787612033  0.5578618007210353  0.4131609320622688  1.0000
  C   C125      1.0  0.3573669308411098  0.618732913641189  0.437027980935767  1.0000
  C   C126      1.0  0.31272925778308297  0.656788485213248  0.4122550877577781  1.0000
  C   C127      1.0  0.2908540742115093  0.633507292328254  0.36449853819545563  1.0000
  C   C128      1.0  0.11673150514189963  0.5143441104849273  0.1915618722082613  1.0000
  C   C129      1.0  0.0808605475832849  0.4559186340797581  0.15216037262321438  1.0000
  C   C130      1.0  0.0071252561223218  0.448824281119407  0.1306861531842429  1.0000
  C   C131      1.0  0.96713762200222  0.5002270893306432  0.1480778124636189  1.0000
  C   C132      1.0  0.0028008470266200998  0.5598825166670024  0.1864750688622152  1.0000
  C   C133      1.0  0.0764472715160167  0.5668276872083167  0.2077459396789791  1.0000
  C   C134      1.0  0.654435362578127  0.6029132278661465  0.09827542971439843  1.0000
  C   C135      1.0  0.6458438204640444  0.6618112240423243  0.07689377164366819  1.0000
  C   C136      1.0  0.5876362933612641  0.6528775919628061  0.03742551932199231  1.0000
  C   C137      1.0  0.5822231394538164  0.7048794461463003  0.014865988034600286  1.0000
  C   C138      1.0  0.6345561498690913  0.767295789845555  0.031230110844774072  1.0000
  C   C139      1.0  0.6922216652791279  0.7762934411760226  0.07126435321740839  1.0000
  C   C140      1.0  0.6980184493286998  0.7242344389562517  0.09381905821802415  1.0000
  C   C141      1.0  0.6301777338520439  0.8215774893894618  0.006516071958060432  1.0000
  C   C142      1.0  0.6026753316636545  0.8005320209533693  0.9584210593163149  1.0000
  C   C143      1.0  0.6023661091670293  0.8512631470896038  0.9346120478607887  1.0000
  C   C144      1.0  0.6291397915549695  0.9239986649790097  0.9593293797310736  1.0000
  C   C145      1.0  0.6542904243836887  0.9467327240202008  0.007467244361563957  1.0000
  C   C146      1.0  0.6548830319413311  0.8949868586130308  0.030581252159798598  1.0000
  C   C147      1.0  0.6768104260804862  0.02432783908361098  0.03289875828393459  1.0000
  C   C148      1.0  0.7159411356617582  0.06975654322208412  0.017031164273674883  1.0000
  C   C149      1.0  0.733179051404548  0.1435162817131967  0.03933793011442791  1.0000
  C   C150      1.0  0.7111221878172814  0.17378899439521694  0.07790428987338066  1.0000
  C   C151      1.0  0.6736399471020178  0.12877588708282417  0.09470836418058332  1.0000
  C   C152      1.0  0.6571165726312316  0.054820111323145716  0.07253675842867584  1.0000
  C   C153      1.0  0.5743997162462762  0.8285987065814169  0.8839701928497732  1.0000
  C   C154      1.0  0.5060407956398407  0.7862544406331011  0.8606274714048538  1.0000
  C   C155      1.0  0.4798403940179625  0.7654869368873776  0.8129349078027275  1.0000
  C   C156      1.0  0.5225678490934982  0.7847874203098115  0.7876698869624974  1.0000
  C   C157      1.0  0.5910815766486408  0.8266457122940382  0.810771670214571  1.0000
  C   C158      1.0  0.6161530061298421  0.8492768630703084  0.8584600732557635  1.0000
  C   C159      1.0  0.49635847263338917  0.760311980799642  0.736586275865136  1.0000
  C   C160      1.0  0.7234300073234294  0.25361646091756285  0.09821916668579432  1.0000
  C   C161      1.0  0.8870135845674129  0.4895654124668951  0.12852961278574074  1.0000
  C   C162      1.0  0.3791898783769696  0.6422612968968975  0.48816667665259666  1.0000
  C   C163      1.0  0.4022081583390786  0.5296339533637919  0.629324734011398  1.0000
  C   C164      1.0  0.42029415383076707  0.4702546007891969  0.6493038053815  1.0000
  C   C165      1.0  0.4092550397890093  0.4724949588729076  0.6914055693996204  1.0000
  C   C166      1.0  0.4323782102676645  0.4214396857771022  0.7127163904691401  1.0000
  C   C167      1.0  0.46799194651860176  0.36715289703920473  0.6929678968484795  1.0000
  C   C168      1.0  0.47763941973920515  0.36448928390279167  0.6502895858093395  1.0000
  C   C169      1.0  0.4537637236618792  0.4151332702282673  0.6285441448841383  1.0000
  C   C170      1.0  0.49502913450275804  0.31535845480585317  0.7173224765550117  1.0000
  C   C171      1.0  0.5216089476142827  0.3380951565868671  0.7654578950531601  1.0000
  C   C172      1.0  0.5470817296625939  0.2900539813740082  0.7895084479939456  1.0000
  C   C173      1.0  0.5459379994553402  0.2183082903240035  0.7646470367009711  1.0000
  C   C174      1.0  0.5191360109240222  0.19385862590991113  0.7164964329615132  1.0000
  C   C175      1.0  0.4942387181693775  0.2432033683489577  0.693274366383413  1.0000
  C   C176      1.0  0.572598019936116  0.3140254316557858  0.8402490498911703  1.0000
  C   C177      1.0  0.5356471243769647  0.35980535508674893  0.8654377583284827  1.0000
  C   C178      1.0  0.5578620304067314  0.3807028922579859  0.913160924223476  1.0000
  C   C179      1.0  0.6187325084156328  0.3573674492985433  0.9370273694990844  1.0000
  C   C180      1.0  0.6567886613417286  0.3127294176714912  0.9122547954614433  1.0000
  C   C181      1.0  0.6335074449972495  0.29085380798753135  0.8644984857344015  1.0000
  C   C182      1.0  0.5143447450179224  0.11673186165042891  0.691562611804713  1.0000
  C   C183      1.0  0.45591901195421525  0.08086047820112442  0.6521600635000269  1.0000
  C   C184      1.0  0.44882277443529267  0.007125266551952308  0.6306858303859287  1.0000
  C   C185      1.0  0.5002261703577419  0.9671380777307237  0.6480777062373166  1.0000
  C   C186      1.0  0.5598820522153859  0.0028013757785530047  0.6864752760838968  1.0000
  C   C187      1.0  0.566826858875146  0.07644669107641988  0.707746241280404  1.0000
  C   C188      1.0  0.6029125132360066  0.6544352374129616  0.5982757256779863  1.0000
  C   C189      1.0  0.6618116289612175  0.6458446504065093  0.5768940735434569  1.0000
  C   C190      1.0  0.6528778142766356  0.5876360872714913  0.5374259124324396  1.0000
  C   C191      1.0  0.7048795565660058  0.5822229193353863  0.5148660229625364  1.0000
  C   C192      1.0  0.7672964176264757  0.6345558035851298  0.531230521712999  1.0000
  C   C193      1.0  0.7762928085032925  0.6922215181178117  0.5712649202274421  1.0000
  C   C194      1.0  0.7242335227945135  0.6980175955127521  0.5938191679379727  1.0000
  C   C195      1.0  0.8215771324830075  0.6301786385017395  0.5065165042323088  1.0000
  C   C196      1.0  0.8005323892373257  0.6026764669529284  0.45842176012673264  1.0000
  C   C197      1.0  0.8512631846852442  0.6023673574379274  0.43461269213046444  1.0000
  C   C198      1.0  0.9239996350597651  0.6291418921066878  0.45932998993521323  1.0000
  C   C199      1.0  0.9467338093382338  0.6542928205731188  0.5074684420070312  1.0000
  C   C200      1.0  0.894986611664116  0.6548850430068569  0.5305815542123966  1.0000
  C   C201      1.0  0.024329064523662704  0.6768114124122846  0.5328994871587582  1.0000
  C   C202      1.0  0.06975752784612152  0.7159420068388656  0.5170315166410973  1.0000
  C   C203      1.0  0.143516129278602  0.733178800392885  0.539337567810101  1.0000
  C   C204      1.0  0.1737893608799368  0.7111204011933623  0.5779043658347902  1.0000
  C   C205      1.0  0.1287759193208942  0.673640310370885  0.594708432334258  1.0000
  C   C206      1.0  0.05482038941944009  0.6571165172088271  0.5725368203177936  1.0000
  C   C207      1.0  0.8285973221836969  0.5743976712086932  0.38397036078048785  1.0000
  C   C208      1.0  0.7862545957267885  0.5060399316695338  0.3606277696652143  1.0000
  C   C209      1.0  0.7654874022727469  0.4798402237870221  0.3129344284226505  1.0000
  C   C210      1.0  0.7847896076870529  0.5225672224329543  0.28767057195256746  1.0000
  C   C211      1.0  0.8266464184131763  0.5910800540172615  0.31077291151829917  1.0000
  C   C212      1.0  0.8492789989317089  0.6161519256651928  0.35846099967407247  1.0000
  C   C213      1.0  0.760310939189111  0.4963591625766171  0.2365866402877828  1.0000
  C   C214      1.0  0.25361696264222644  0.7234303636629421  0.5982195971001403  1.0000
  C   C215      1.0  0.4895651188651726  0.8870134816262834  0.6285294903276366  1.0000
  C   C216      1.0  0.6422602771753605  0.3791905187366639  0.9881659821474146  1.0000
  O   O1        1.0  0.5640395000369978  0.29998409020357303  0.38754759763239127  1.0000
  O   O2        1.0  0.3909553698465871  0.2864467997310527  0.3699682830932432  1.0000
  O   O3        1.0  0.4504254532796992  0.3972669429005364  0.4171127929183669  1.0000
  O   O4        1.0  0.5881727785231163  0.4750080504805822  0.40965414915346093  1.0000
  O   O5        1.0  0.6202697070767231  0.41800723088644537  0.3470129335615369  1.0000
  O   O6        1.0  0.26404511728248536  0.5709709268023531  0.7826794695297892  1.0000
  O   O7        1.0  0.23477012308880776  0.4564116317301128  0.7839737288073535  1.0000
  O   O8        1.0  0.7205805761104643  0.30461040623213614  0.3698981936211183  1.0000
  O   O9        1.0  0.7095689867029337  0.2402797283753912  0.4182741510018744  1.0000
  O   O10       1.0  0.5664856979004398  0.14322816532462215  0.4059389711436694  1.0000
  O   O11       1.0  0.463499625448847  0.145571867457285  0.3516426256113903  1.0000
  O   O12       1.0  0.40283919033744553  0.5935589871343724  0.9920847224357348  1.0000
  O   O13       1.0  0.2947755682521844  0.6310651914394684  0.9917253077570934  1.0000
  O   O14       1.0  0.2999829410034708  0.5640380554166952  0.8875470550391285  1.0000
  O   O15       1.0  0.28644767842155966  0.3909557981587497  0.8699673866395586  1.0000
  O   O16       1.0  0.397268435154281  0.4504250813606774  0.9171127884360147  1.0000
  O   O17       1.0  0.47500938289305594  0.5881702162302105  0.9096544041720309  1.0000
  O   O18       1.0  0.4180079454852574  0.6202692859722703  0.8470134785265842  1.0000
  O   O19       1.0  0.5709692271889324  0.26404645868584004  0.2826795014335701  1.0000
  O   O20       1.0  0.456410545589101  0.2347700308291039  0.2839739716255352  1.0000
  O   O21       1.0  0.30461206588457657  0.7205807616584821  0.8698990824042312  1.0000
  O   O22       1.0  0.24027908969740963  0.7095675461318719  0.9182740898847257  1.0000
  O   O23       1.0  0.1432286827814409  0.5664867950663534  0.9059388807891082  1.0000
  O   O24       1.0  0.14557264678717982  0.46349988299476047  0.8516417681239118  1.0000
  O   O25       1.0  0.5935587557108447  0.40283996962801893  0.49208495171829014  1.0000
  O   O26       1.0  0.6310629512791195  0.2947764410607903  0.49172547376453224  1.0000
  O   O27       1.0  0.7000167865721778  0.43596274570857213  0.1124533463054291  1.0000
  O   O28       1.0  0.7135531257077972  0.6090441071883462  0.13003147253844824  1.0000
  O   O29       1.0  0.6027323716345806  0.549575359132767  0.08288773310543009  1.0000
  O   O30       1.0  0.5249903409462676  0.4118263212759104  0.09034496888986614  1.0000
  O   O31       1.0  0.581992319770464  0.3797300016966574  0.1529861306375864  1.0000
  O   O32       1.0  0.42903049940942145  0.7359554064315361  0.7173198197981776  1.0000
  O   O33       1.0  0.5435886421356173  0.7652312166101041  0.7160260995923764  1.0000
  O   O34       1.0  0.6953882002317046  0.27941905935662703  0.13010093059774874  1.0000
  O   O35       1.0  0.7597200967559276  0.29043263506501665  0.08172548828896711  1.0000
  O   O36       1.0  0.8567710434450007  0.4335140047087833  0.0940605766612279  1.0000
  O   O37       1.0  0.8544308582012121  0.536500454813293  0.1483588730879576  1.0000
  O   O38       1.0  0.40643827247171066  0.5971588030481312  0.5079152877616195  1.0000
  O   O39       1.0  0.3689351573102044  0.7052241021180451  0.5082749281064879  1.0000
  O   O40       1.0  0.435961846935797  0.7000175017642717  0.6124528923921062  1.0000
  O   O41       1.0  0.6090438179559499  0.7135533828159595  0.630032238974664  1.0000
  O   O42       1.0  0.5495748142247052  0.602732347018609  0.5828883894028322  1.0000
  O   O43       1.0  0.411829105308101  0.5249909622386397  0.5903453702778378  1.0000
  O   O44       1.0  0.379730017839421  0.5819930350924734  0.6529858054195827  1.0000
  O   O45       1.0  0.7359556885290743  0.4290305776832  0.21731997189883856  1.0000
  O   O46       1.0  0.7652317615640528  0.5435884467813921  0.21602596903676397  1.0000
  O   O47       1.0  0.2794196891841736  0.6953883489906972  0.6301016409680571  1.0000
  O   O48       1.0  0.2904318213573092  0.7597217783603797  0.5817268635837891  1.0000
  O   O49       1.0  0.43351348728150907  0.8567709496299473  0.5940601139858046  1.0000
  O   O50       1.0  0.536498486210803  0.8544297437640366  0.6483595278294771  1.0000
  O   O51       1.0  0.5971589161977634  0.40643889156377366  0.00791523340325282  1.0000
  O   O52       1.0  0.7052230783891319  0.36893490362525944  0.008274165714951208  1.0000
