data_image0
_chemical_formula_structural       Cd4H64C80N8O20
_chemical_formula_sum              "Cd4 H64 C80 N8 O20"
_cell_length_a       12.684561762004412
_cell_length_b       13.229327994403938
_cell_length_c       13.229257878123079
_cell_angle_alpha    83.98297205215935
_cell_angle_beta     81.88783095792989
_cell_angle_gamma    81.88835545094942

_space_group_name_H-M_alt    "P 1"
_space_group_IT_number       1

loop_
  _space_group_symop_operation_xyz
  'x, y, z'

loop_
  _atom_site_type_symbol
  _atom_site_label
  _atom_site_symmetry_multiplicity
  _atom_site_fract_x
  _atom_site_fract_y
  _atom_site_fract_z
  _atom_site_occupancy
  Cd  Cd1       1.0  0.8913000244217956  0.07158723968928629  0.34626057814654826  1.0000
  Cd  Cd2       1.0  0.6087070140564704  0.6537482728312796  0.9284125591038189  1.0000
  Cd  Cd3       1.0  0.10869623007557999  0.928411244799676  0.65374774929014  1.0000
  Cd  Cd4       1.0  0.39130207911929926  0.3462635954287093  0.07158958807785609  1.0000
  H   H1        1.0  0.0196999031340397  0.1240140722585892  0.4937980323258769  1.0000
  H   H2        1.0  0.48030129665831817  0.5062057999141841  0.875995399923468  1.0000
  H   H3        1.0  0.9803015362575209  0.8759906081341811  0.5062040722271345  1.0000
  H   H4        1.0  0.5197035353200761  0.49380458292303325  0.12401522015652937  1.0000
  H   H5        1.0  0.09356377195537391  0.05020296288692799  0.42377587977586717  1.0000
  H   H6        1.0  0.40643479183199827  0.5762288741294269  0.949802895623385  1.0000
  H   H7        1.0  0.9064301344703124  0.9497946186572077  0.5762299328490099  1.0000
  H   H8        1.0  0.5935673510446405  0.4237783395410232  0.05020783533802129  1.0000
  H   H9        1.0  0.8239563425659923  0.10825034534576618  0.1277939860996042  1.0000
  H   H10       1.0  0.676059922957279  0.8722198421294464  0.8917494404502261  1.0000
  H   H11       1.0  0.17603830258521205  0.8917480774502803  0.8722138616902126  1.0000
  H   H12       1.0  0.32395969691613397  0.12779161672903433  0.10825402909456729  1.0000
  H   H13       1.0  0.6722601406221854  0.10312431414944709  0.025919914974217303  1.0000
  H   H14       1.0  0.8277588654912051  0.9740906824339249  0.8968900278784628  1.0000
  H   H15       1.0  0.3277346217581468  0.8968833788972003  0.9740882024974837  1.0000
  H   H16       1.0  0.17226004541965517  0.025914209207016398  0.10313107056738596  1.0000
  H   H17       1.0  0.5301876071382665  0.9914767466731575  0.0977627071312739  1.0000
  H   H18       1.0  0.9698256513232407  0.902237203911099  0.008535417737256494  1.0000
  H   H19       1.0  0.46980575582040274  0.008528462366072609  0.9022399197390738  1.0000
  H   H20       1.0  0.030189851175158804  0.09775824068226768  0.9914822013126565  1.0000
  H   H21       1.0  0.538181960051638  0.9008185470050234  0.2718855124940092  1.0000
  H   H22       1.0  0.9618291617067953  0.7281105953966288  0.099179983003495  1.0000
  H   H23       1.0  0.461816454746483  0.09917984308429338  0.728115657941842  1.0000
  H   H24       1.0  0.0381895285613396  0.2718760628835568  0.9008201070403032  1.0000
  H   H25       1.0  0.7660062862649043  0.9092811709186747  0.4247807474977847  1.0000
  H   H26       1.0  0.7339915630324255  0.5752285044030357  0.09070694981903667  1.0000
  H   H27       1.0  0.2339871777272009  0.09070861875604663  0.5752223850073718  1.0000
  H   H28       1.0  0.26601365708283  0.4247744334535283  0.909281135996437  1.0000
  H   H29       1.0  0.5221612281641868  0.8999711451207232  0.43875233806915737  1.0000
  H   H30       1.0  0.9778349101130247  0.5612467513947551  0.1000293592183964  1.0000
  H   H31       1.0  0.4778334391405892  0.1000238580163568  0.5612408269535363  1.0000
  H   H32       1.0  0.02217154264688759  0.43873961780116133  0.89994103838481  1.0000
  H   H33       1.0  0.7794261916568244  0.8300234389006177  0.5714977238881855  1.0000
  H   H34       1.0  0.7205637236176018  0.4284897615298461  0.1699837174122577  1.0000
  H   H35       1.0  0.22056040670263855  0.16997956428545544  0.4284851410496343  1.0000
  H   H36       1.0  0.2794410208337296  0.5715105139457534  0.8300237124341905  1.0000
  H   H37       1.0  0.771050155833734  0.7452887382642501  0.7469949061314833  1.0000
  H   H38       1.0  0.7289537443692069  0.2529960066311148  0.2547233493725328  1.0000
  H   H39       1.0  0.22895022711541907  0.2547240506603358  0.2529919304165204  1.0000
  H   H40       1.0  0.2710492069852107  0.7470100847324588  0.7453047948288684  1.0000
  H   H41       1.0  0.4408950313252689  0.7575379997289176  0.7782066865911543  1.0000
  H   H42       1.0  0.05910804320549798  0.22180123646381128  0.24243256736166782  1.0000
  H   H43       1.0  0.5591072811165175  0.24244208420820704  0.22179851922858512  1.0000
  H   H44       1.0  0.9408999353327944  0.7781868508433474  0.7575434008516382  1.0000
  H   H45       1.0  0.4327793683776946  0.8371182305172482  0.5997261980149914  1.0000
  H   H46       1.0  0.067214286804294  0.4002779524123453  0.16284665141048288  1.0000
  H   H47       1.0  0.5672088239827175  0.1628489465446776  0.4002739911960019  1.0000
  H   H48       1.0  0.9327996763369413  0.5997028791337868  0.8371073360921668  1.0000
  H   H49       1.0  0.6104391433895769  0.29791452734523455  0.5392387725402654  1.0000
  H   H50       1.0  0.8895463231634011  0.46077015829656176  0.702074895322937  1.0000
  H   H51       1.0  0.38954271889814157  0.7020780186897466  0.4607659333825538  1.0000
  H   H52       1.0  0.1104481140124776  0.5392390131312651  0.29793081171092684  1.0000
  H   H53       1.0  0.5128853954408754  0.3666252327355721  0.7023271216626907  1.0000
  H   H54       1.0  0.9871069983256004  0.29768374325472274  0.6333615320958967  1.0000
  H   H55       1.0  0.48711183740859104  0.6333708335797682  0.29767530943278325  1.0000
  H   H56       1.0  0.012888000092090082  0.7023298715984154  0.36663517285099084  1.0000
  H   H57       1.0  0.6421479082552749  0.09578879387868967  0.8742878664662538  1.0000
  H   H58       1.0  0.8578490348083321  0.12572723051197698  0.9042116997960574  1.0000
  H   H59       1.0  0.3578550374998386  0.9042230412542334  0.1257213638092551  1.0000
  H   H60       1.0  0.14215254201673838  0.8742749741551489  0.0957831433821426  1.0000
  H   H61       1.0  0.7425869227081563  0.028802093272211907  0.7124230567604924  1.0000
  H   H62       1.0  0.7574044073142829  0.28758900973569007  0.971193570158135  1.0000
  H   H63       1.0  0.257408437004912  0.9711971529720245  0.2875860760541612  1.0000
  H   H64       1.0  0.2425929863427996  0.7124109080050687  0.028808325646927774  1.0000
  C   C1        1.0  0.6812637676117036  0.9626593174113008  0.294860596451933  1.0000
  C   C2        1.0  0.8187450234999147  0.7051448840988995  0.03733753984927547  1.0000
  C   C3        1.0  0.3187324143946668  0.037339113666511985  0.7051454805644253  1.0000
  C   C4        1.0  0.18126848023399592  0.294853085826773  0.9626581403490986  1.0000
  C   C5        1.0  0.757455031366206  0.06493725430281928  0.15786703927379608  1.0000
  C   C6        1.0  0.7425602823842964  0.8421419673019913  0.9350622731785234  1.0000
  C   C7        1.0  0.24254250727287996  0.9350627702602379  0.8421393573719199  1.0000
  C   C8        1.0  0.2574583357629052  0.1578655825790349  0.06494036662307678  1.0000
  C   C9        1.0  0.6751185269087401  0.05975612653712399  0.10017801948265508  1.0000
  C   C10       1.0  0.8248979574437884  0.8998277710627746  0.9402489798401064  1.0000
  C   C11       1.0  0.3248774665371314  0.9402476165435731  0.8998243616653525  1.0000
  C   C12       1.0  0.1751191377246926  0.10017518882233387  0.059757546314344295  1.0000
  C   C13       1.0  0.5947481508858558  0.9997150020721505  0.14140843693247973  1.0000
  C   C14       1.0  0.9052659295927086  0.8585872756857496  0.0002936552707880397  1.0000
  C   C15       1.0  0.4052505455382232  0.0002873284611624051  0.8585959489134964  1.0000
  C   C16       1.0  0.09474906826834233  0.1414049231449255  0.9997176677998068  1.0000
  C   C17       1.0  0.5985209188981883  0.9498302084535979  0.23873702117936793  1.0000
  C   C18       1.0  0.9014942903446864  0.7612617898545722  0.050171903152708835  1.0000
  C   C19       1.0  0.40147974177856594  0.05016986828042041  0.761267334199644  1.0000
  C   C20       1.0  0.0985236762339881  0.2387340811241856  0.9498270915393688  1.0000
  C   C21       1.0  0.6868052997148553  0.9169014766952942  0.39940827959824077  1.0000
  C   C22       1.0  0.8131936117919237  0.6005977327879959  0.0830950039287757  1.0000
  C   C23       1.0  0.3131915540644314  0.08309688730854249  0.6005939114709589  1.0000
  C   C24       1.0  0.18681356782716563  0.39939749683666287  0.9168907461672191  1.0000
  C   C25       1.0  0.6017604701656153  0.8880548316819413  0.46398162962648115  1.0000
  C   C26       1.0  0.898229252188692  0.5360234444992215  0.11194186670644503  1.0000
  C   C27       1.0  0.3982267469515079  0.111937725535519  0.5360161284491269  1.0000
  C   C28       1.0  0.10177754914978725  0.463967773466578  0.8880376674189916  1.0000
  C   C29       1.0  0.6057322688725434  0.8421391350651531  0.5685853137467162  1.0000
  C   C30       1.0  0.8942618085268917  0.43141404370643943  0.15785384529387148  1.0000
  C   C31       1.0  0.39425443806884186  0.1578510313043466  0.4314098190413559  1.0000
  C   C32       1.0  0.1057471764864459  0.5685834070107845  0.8421252579151285  1.0000
  C   C33       1.0  0.7016728866369277  0.816028598642333  0.6129811310044886  1.0000
  C   C34       1.0  0.798320335772317  0.3870139888070127  0.1839731694205752  1.0000
  C   C35       1.0  0.298316890425582  0.18397076552273012  0.3870069792180074  1.0000
  C   C36       1.0  0.2016884552030405  0.6129847399732427  0.816028493229524  1.0000
  C   C37       1.0  0.697841880555444  0.7698016198703498  0.7120739716360162  1.0000
  C   C38       1.0  0.8021564999368493  0.2879195663606779  0.2302022803120494  1.0000
  C   C39       1.0  0.3021524421300442  0.23020029827680588  0.2879183380612388  1.0000
  C   C40       1.0  0.19784662409152534  0.712082357251482  0.7698120112710923  1.0000
  C   C41       1.0  0.5134529517944771  0.7756356269686364  0.7290474329442984  1.0000
  C   C42       1.0  0.9865467301669284  0.27095231154893895  0.22433949424630836  1.0000
  C   C43       1.0  0.4865428266079804  0.22434413898196937  0.27095285372755024  1.0000
  C   C44       1.0  0.013460111160831916  0.7290426688237017  0.7756357538881814  1.0000
  C   C45       1.0  0.5099413613153415  0.8206388193646389  0.6295976928895753  1.0000
  C   C46       1.0  0.9900528908314784  0.37039815881724536  0.17933599047302806  1.0000
  C   C47       1.0  0.490045266437022  0.1793375128438228  0.3704000359361074  1.0000
  C   C48       1.0  0.009956426503805517  0.6295843399093569  0.8206299005934523  1.0000
  C   C49       1.0  0.7461393878996319  0.1247333656943397  0.5198464726638291  1.0000
  C   C50       1.0  0.7538575835645602  0.4801594196273766  0.8752597293646359  1.0000
  C   C51       1.0  0.2538504003005785  0.8752593997866425  0.48015688079277646  1.0000
  C   C52       1.0  0.24614020778798104  0.519839073143352  0.12474682729859404  1.0000
  C   C53       1.0  0.6824062570040681  0.15991571933576407  0.6166054295259684  1.0000
  C   C54       1.0  0.8175760355711148  0.38340532520829373  0.8400769841461365  1.0000
  C   C55       1.0  0.31757171122918487  0.8400859516193933  0.3833987220316217  1.0000
  C   C56       1.0  0.182417843101689  0.6166014197641514  0.15992459731997138  1.0000
  C   C57       1.0  0.6166635295957548  0.25456376159864647  0.6133576779928942  1.0000
  C   C58       1.0  0.8833262658859907  0.38664884605584143  0.7454298654927951  1.0000
  C   C59       1.0  0.383323012159245  0.745438043924807  0.38664048501121323  1.0000
  C   C60       1.0  0.11667172626345491  0.6133572605471469  0.2545718698890695  1.0000
  C   C61       1.0  0.5629646912658046  0.29256069333144546  0.7034183949062082  1.0000
  C   C62       1.0  0.9370279391302747  0.2965903479880366  0.7074310078390409  1.0000
  C   C63       1.0  0.4370274172532191  0.7074421385226658  0.2965832422034467  1.0000
  C   C64       1.0  0.06297128883355188  0.7034172630816188  0.2925672964716384  1.0000
  C   C65       1.0  0.5730923353368027  0.23579744730952967  0.7979520783160862  1.0000
  C   C66       1.0  0.926901123666589  0.20205760168997236  0.7642007561161391  1.0000
  C   C67       1.0  0.4269050975200131  0.764212542185426  0.20205150744232006  1.0000
  C   C68       1.0  0.07310004438624419  0.7979477377766739  0.23579676758745893  1.0000
  C   C69       1.0  0.5164486285971678  0.27712976540483675  0.8951657288686332  1.0000
  C   C70       1.0  0.9835481027776679  0.10484497594558208  0.7228711354833592  1.0000
  C   C71       1.0  0.48355363229814685  0.7228804091688656  0.10483929583036661  1.0000
  C   C72       1.0  0.01645042091153207  0.8951664111937417  0.2771245183632088  1.0000
  C   C73       1.0  0.6362469129508241  0.13977961166930436  0.8005146411208057  1.0000
  C   C74       1.0  0.8637450341472074  0.19949966703875077  0.8602170162719528  1.0000
  C   C75       1.0  0.3637458071474314  0.8602311366802268  0.1994949270893258  1.0000
  C   C76       1.0  0.13625427738440274  0.8005062876125706  0.13977619707548428  1.0000
  C   C77       1.0  0.6911742668509148  0.10217021886450081  0.7108255382740721  1.0000
  C   C78       1.0  0.8088111983924692  0.28918396307575017  0.8978249515855197  1.0000
  C   C79       1.0  0.3088127312140969  0.8978347968142227  0.28917742042914085  1.0000
  C   C80       1.0  0.19118480059179183  0.7108189250902084  0.10217375887070547  1.0000
  N   N1        1.0  0.7606908752293295  0.01887609856819951  0.25291189346260967  1.0000
  N   N2        1.0  0.7393208070000837  0.747096384911863  0.9811228651896471  1.0000
  N   N3        1.0  0.23930431533806734  0.9811230230500313  0.7470919883712881  1.0000
  N   N4        1.0  0.2606916320143  0.2529085314904335  0.018874345350226904  1.0000
  N   N5        1.0  0.6055735406689138  0.7500262435790718  0.77023839861571  1.0000
  N   N6        1.0  0.8944297233067073  0.22976326178831383  0.24996672145778823  1.0000
  N   N7        1.0  0.39442393655595964  0.249972017743353  0.2297584062261109  1.0000
  N   N8        1.0  0.10557855195452252  0.7702339310587261  0.7500359865965577  1.0000
  O   O1        1.0  0.7276770730071006  0.1733451690863035  0.4350947251737053  1.0000
  O   O2        1.0  0.7723219610004365  0.5649111107140781  0.826654011886056  1.0000
  O   O3        1.0  0.27231003637857043  0.8266490267457768  0.5649073737250345  1.0000
  O   O4        1.0  0.2276773078031482  0.435089064560472  0.17335661510706046  1.0000
  O   O5        1.0  0.8197874780532076  0.047808720009939513  0.5254821043172484  1.0000
  O   O6        1.0  0.6802119518897883  0.4745293758805502  0.9521876263707864  1.0000
  O   O7        1.0  0.1802073659457263  0.9521889903010889  0.4745280739016521  1.0000
  O   O8        1.0  0.3197874004815803  0.525469142975659  0.04781790965909488  1.0000
  O   O9        1.0  0.4650219296276532  0.36784156700684895  0.8904820740054544  1.0000
  O   O10       1.0  0.0349732173498225  0.10952660846368188  0.6321550664197274  1.0000
  O   O11       1.0  0.5349764705044748  0.632167714143975  0.10952295679530262  1.0000
  O   O12       1.0  0.9650248928182993  0.8904824590425588  0.36784096269973077  1.0000
  O   O13       1.0  0.5197701244523073  0.2201074804222074  0.9786492124219631  1.0000
  O   O14       1.0  0.980235720569439  0.021363218133941996  0.7798977255621293  1.0000
  O   O15       1.0  0.4802394788992075  0.7799067786857345  0.021355560047247524  1.0000
  O   O16       1.0  0.01976786524642896  0.9786459495733411  0.22009510641066035  1.0000
  O   O17       1.0  0.03993229361664421  0.1125140482487126  0.42050128938014086  1.0000
  O   O18       1.0  0.46006565319792264  0.5795026450568486  0.8874917589003316  1.0000
  O   O19       1.0  0.9600652505608379  0.8874851213995996  0.5795014365737925  1.0000
  O   O20       1.0  0.5399378166093668  0.4205069992098771  0.1125222122420979  1.0000
