data_image0
_chemical_formula_structural       Er2H14C14N4O16
_chemical_formula_sum              "Er2 H14 C14 N4 O16"
_cell_length_a       7.752357308666252
_cell_length_b       8.579730637838301
_cell_length_c       8.518184301436806
_cell_angle_alpha    116.05916725371462
_cell_angle_beta     101.66539089173538
_cell_angle_gamma    97.74281978216621

_space_group_name_H-M_alt    "P 1"
_space_group_IT_number       1

loop_
  _space_group_symop_operation_xyz
  'x, y, z'

loop_
  _atom_site_type_symbol
  _atom_site_label
  _atom_site_symmetry_multiplicity
  _atom_site_fract_x
  _atom_site_fract_y
  _atom_site_fract_z
  _atom_site_occupancy
  Er  Er1       1.0  0.6636198086522003  0.4107217588641702  0.16626003939186523  1.0000
  Er  Er2       1.0  0.3363851375750357  0.5892775361810648  0.8337416747623365  1.0000
  H   H1        1.0  0.3235965175875394  0.9361694192680899  0.5520529504207089  1.0000
  H   H2        1.0  0.676402463343159  0.0638324591888306  0.4479499476477855  1.0000
  H   H3        1.0  0.9611948988619549  0.0809279221521351  0.24219929989231306  1.0000
  H   H4        1.0  0.03879617405127073  0.919068434805254  0.7577950295524687  1.0000
  H   H5        1.0  0.0008153757479121054  0.8392953826557771  0.9528117303469799  1.0000
  H   H6        1.0  0.9991816369987064  0.1607037337018156  0.0471837310428356  1.0000
  H   H7        1.0  0.7272450284677137  0.7533307746482122  0.1804275318576671  1.0000
  H   H8        1.0  0.2727625916025005  0.24666316428035634  0.8195664843919701  1.0000
  H   H9        1.0  0.8300408730682353  0.7995329507421616  0.3821218184566249  1.0000
  H   H10       1.0  0.16995845885104194  0.2004649031228709  0.6178770489886886  1.0000
  H   H11       1.0  0.3479424276443056  0.3894891489077849  0.32624278817144864  1.0000
  H   H12       1.0  0.6520516173332995  0.6105085474809256  0.6737479811326637  1.0000
  H   H13       1.0  0.48006510028920263  0.29189980962858186  0.37551865270927465  1.0000
  H   H14       1.0  0.5199285930862062  0.7081019228573808  0.6244773261074953  1.0000
  C   C1        1.0  0.40096562785782924  0.6714865621920367  0.26610989518444234  1.0000
  C   C2        1.0  0.5990369700518487  0.3285194071898587  0.7338978021104695  1.0000
  C   C3        1.0  0.27599681567613743  0.7876178604377201  0.25933655707247283  1.0000
  C   C4        1.0  0.7240051367053084  0.21238536895587853  0.7406639597448289  1.0000
  C   C5        1.0  0.25318738781988515  0.9183796066477681  0.4186445761713173  1.0000
  C   C6        1.0  0.7468099479976616  0.0816208739512945  0.5813538860125576  1.0000
  C   C7        1.0  0.05550014154705  0.9985410437089756  0.24741188692797073  1.0000
  C   C8        1.0  0.9444958710010101  0.0014594262844199058  0.7525874979443118  1.0000
  C   C9        1.0  0.0770343223896219  0.866207081294803  0.08786180601450874  1.0000
  C   C10       1.0  0.9229607191047935  0.1337893304903091  0.9121321131440325  1.0000
  C   C11       1.0  0.5743580802532339  0.9994217253811968  0.07610829120223889  1.0000
  C   C12       1.0  0.4256458670027002  0.0005789002891063041  0.9238949886554694  1.0000
  C   C13       1.0  0.059858336611064517  0.4770565191814383  0.435454739036679  1.0000
  C   C14       1.0  0.94013537793213  0.5229399510302173  0.5645471761471583  1.0000
  N   N1        1.0  0.19234925693262991  0.7650464233895276  0.09402408647740394  1.0000
  N   N2        1.0  0.8076530197469938  0.23495814723480632  0.9059770733550039  1.0000
  N   N3        1.0  0.14647843540099362  0.0268444930291381  0.412513531790303  1.0000
  N   N4        1.0  0.8535172540761453  0.9731546127227942  0.5874828522879127  1.0000
  O   O1        1.0  0.4079791482813634  0.5497676485389036  0.1113570532687121  1.0000
  O   O2        1.0  0.5920224531115043  0.4502396054465904  0.8886474941717708  1.0000
  O   O3        1.0  0.49544428357232567  0.6998239446955805  0.4178194557918288  1.0000
  O   O4        1.0  0.5045559945510691  0.300183298684253  0.5821860143370544  1.0000
  O   O5        1.0  0.6961915593320854  0.1438600757018378  0.18200000318157816  1.0000
  O   O6        1.0  0.30381270915390257  0.8561419487260338  0.8180098141386409  1.0000
  O   O7        1.0  0.5611225746808942  0.8535168419100854  0.08296489385038805  1.0000
  O   O8        1.0  0.4388919550491083  0.14648393763771853  0.9170380778369775  1.0000
  O   O9        1.0  0.987927294240919  0.4423970220083432  0.2731430204643956  1.0000
  O   O10       1.0  0.012071709698439301  0.5575995596581649  0.7268622773027147  1.0000
  O   O11       1.0  0.22158987989036663  0.4772064184102404  0.5041055245867343  1.0000
  O   O12       1.0  0.7784051597631747  0.5227900278909772  0.4958919312402515  1.0000
  O   O13       1.0  0.7982293517232582  0.7039669726643254  0.24895188378675945  1.0000
  O   O14       1.0  0.2017749459076299  0.29602963991946035  0.7510485443372517  1.0000
  O   O15       1.0  0.427547183982739  0.3132077170084954  0.2727824485934249  1.0000
  O   O16       1.0  0.5724498293774971  0.6867913878437335  0.7272118339068997  1.0000
