data_image0
_chemical_formula_structural       CuH36C16S4Cl2O12
_chemical_formula_sum              "Cu1 H36 C16 S4 Cl2 O12"
_cell_length_a       7.790222433827822
_cell_length_b       8.76385961497813
_cell_length_c       11.43921829113331
_cell_angle_alpha    98.75491984202709
_cell_angle_beta     97.32465201130016
_cell_angle_gamma    114.41316654050682

_space_group_name_H-M_alt    "P 1"
_space_group_IT_number       1

loop_
  _space_group_symop_operation_xyz
  'x, y, z'

loop_
  _atom_site_type_symbol
  _atom_site_label
  _atom_site_symmetry_multiplicity
  _atom_site_fract_x
  _atom_site_fract_y
  _atom_site_fract_z
  _atom_site_occupancy
  Cu  Cu1       1.0  0.5000001817343217  1.5611430229003911e-06  0.5000016017767592  1.0000
  H   H1        1.0  0.5575944045178359  0.3801459315746881  0.015280709473813683  1.0000
  H   H2        1.0  0.4424046808061418  0.6198545116926368  0.984716204485096  1.0000
  H   H3        1.0  0.7439297209878787  0.5703040065926503  0.994625466154723  1.0000
  H   H4        1.0  0.2560687065094171  0.4296977231175703  0.005371538382249189  1.0000
  H   H5        1.0  0.7711193530952727  0.37735685492928883  0.9814598732229244  1.0000
  H   H6        1.0  0.22887908705546048  0.6226448855029714  0.01853800780412473  1.0000
  H   H7        1.0  0.4967228443611588  0.23923866624271983  0.7958267874403119  1.0000
  H   H8        1.0  0.5032775352391068  0.760761777177187  0.20417023394515607  1.0000
  H   H9        1.0  0.4724200975144085  0.4328733636362329  0.8097457845388618  1.0000
  H   H10       1.0  0.5275783299828871  0.5671283660739874  0.19025121999811026  1.0000
  H   H11       1.0  0.843259948398483  0.4000167033682445  0.7737454547451748  1.0000
  H   H12       1.0  0.15674038844762345  0.5999888861284218  0.2262521438056311  1.0000
  H   H13       1.0  0.8098968162872282  0.5880243310058618  0.7750480725268006  1.0000
  H   H14       1.0  0.19010095338338565  0.411978685147254  0.22494902258823402  1.0000
  H   H15       1.0  0.44249350974944685  0.5106284222805185  0.6252017701711523  1.0000
  H   H16       1.0  0.557504964431807  0.48937075583539513  0.37479669876329075  1.0000
  H   H17       1.0  0.666395337266273  0.6530249051313672  0.593851778237628  1.0000
  H   H18       1.0  0.3336024751585  0.34697296494499597  0.4061447397120546  1.0000
  H   H19       1.0  0.09672802698472788  0.19019962225407738  0.5723558904216617  1.0000
  H   H20       1.0  0.9032704938804765  0.8097970042675154  0.42764404291025926  1.0000
  H   H21       1.0  0.15459870761589664  0.021536435760992796  0.6093667643477332  1.0000
  H   H22       1.0  0.845400475005796  0.9784614988001579  0.3906351199689482  1.0000
  H   H23       1.0  0.08092122658143097  0.04639999970027728  0.8225927165718332  1.0000
  H   H24       1.0  0.9190824199111344  0.953604357268837  0.17740938870439033  1.0000
  H   H25       1.0  0.07049557374457996  0.24081346691431088  0.7963170927749914  1.0000
  H   H26       1.0  0.9295048097854846  0.7591895709880487  0.20368197017329231  1.0000
  H   H27       1.0  0.9208181741309788  0.1751424300360398  0.9705342284238156  1.0000
  H   H28       1.0  0.07918608350431082  0.8248631920844857  0.029466321876874695  1.0000
  H   H29       1.0  0.7343137100980568  0.1261578981279783  0.8462832091383987  1.0000
  H   H30       1.0  0.2656899451181402  0.8738438750807234  0.153717731065079  1.0000
  H   H31       1.0  0.6495517131863124  0.9005640869268988  0.9682106484215538  1.0000
  H   H32       1.0  0.3504551709618724  0.09944156766490411  0.03179274620246279  1.0000
  H   H33       1.0  0.8425509669815198  0.8554634998006491  0.9327730553670435  1.0000
  H   H34       1.0  0.15745269216448318  0.14454086789049814  0.0672299263992571  1.0000
  H   H35       1.0  0.6422347024968145  0.8127440189366906  0.8168985439956343  1.0000
  H   H36       1.0  0.3577696397827523  0.18725908375562733  0.1831061001727576  1.0000
  C   C1        1.0  0.6674640172489816  0.42976673906413504  0.961901950334294  1.0000
  C   C2        1.0  0.332535704524602  0.5702349907986743  0.03809516162922926  1.0000
  C   C3        1.0  0.5768726450025738  0.3800211726435022  0.8267103771803406  1.0000
  C   C4        1.0  0.4231270894244473  0.61998056794134  0.17328761127325268  1.0000
  C   C5        1.0  0.7340678140920642  0.4469282242205138  0.7554872310194866  1.0000
  C   C6        1.0  0.2659312625082818  0.553074802807224  0.244510848012176  1.0000
  C   C7        1.0  0.546873286889159  0.5228675005573533  0.56671164635398  1.0000
  C   C8        1.0  0.4531251406081366  0.4771342291528739  0.4332853581829923  1.0000
  C   C9        1.0  0.04233104571037669  0.05107986991949789  0.5652078774766167  1.0000
  C   C10       1.0  0.95766750046171  0.9489167780461684  0.434793808835451  1.0000
  C   C11       1.0  0.9849456893525642  0.1059379698062841  0.7995746035019878  1.0000
  C   C12       1.0  0.01505729538351347  0.8940650791232797  0.20042555078947533  1.0000
  C   C13       1.0  0.8417980387220892  0.08519191735703656  0.8827554348799963  1.0000
  C   C14       1.0  0.15820367704458227  0.9148111528640042  0.11724636496506236  1.0000
  C   C15       1.0  0.7386437958923718  0.9026876966309272  0.9009887840014129  1.0000
  C   C16       1.0  0.2613618280100382  0.0973153954919397  0.0990150911034533  1.0000
  S   S1        1.0  0.6542274957371603  0.3801894657130091  0.5916122382883486  1.0000
  S   S2        1.0  0.3457728965165499  0.6198109884289379  0.4083856595871893  1.0000
  S   S3        1.0  0.8513292056381943  0.9926730431659293  0.6476624503290153  1.0000
  S   S4        1.0  0.14866867005377327  0.007324880520606297  0.3523384500710449  1.0000
  Cl  Cl1       1.0  0.1999464667440732  0.7393158454705073  0.7147848198481555  1.0000
  Cl  Cl2       1.0  0.800054090868379  0.26067697533256506  0.285219224199956  1.0000
  O   O1        1.0  0.47070323580243206  0.20548989957796238  0.565849853044348  1.0000
  O   O2        1.0  0.5292920299598831  0.7945105968417747  0.43415112108527854  1.0000
  O   O3        1.0  0.7476854277968813  0.10188367338365369  0.6145449397785328  1.0000
  O   O4        1.0  0.25231436596753526  0.8981155263289079  0.38545538956261527  1.0000
  O   O5        1.0  0.19418318241158497  0.8205184340139764  0.8349412378421874  1.0000
  O   O6        1.0  0.8058050396509272  0.1794730559322133  0.1650581354020488  1.0000
  O   O7        1.0  0.02597218809618329  0.7080126617272952  0.6284410843875392  1.0000
  O   O8        1.0  0.9740296013893968  0.29197233289288244  0.3715534364383615  1.0000
  O   O9        1.0  0.20899435969738522  0.5767513085516783  0.7182065682272949  1.0000
  O   O10       1.0  0.791010097327174  0.4232441179136329  0.28180071615337  1.0000
  O   O11       1.0  0.3706806260978438  0.8554788395776214  0.6767790804239198  1.0000
  O   O12       1.0  0.6293192824115721  0.14451268390793354  0.3232238891295083  1.0000
