data_image0
_chemical_formula_structural       Zn6H18C114N12O24
_chemical_formula_sum              "Zn6 H18 C114 N12 O24"
_cell_length_a       17.04371413580179
_cell_length_b       17.042751812628364
_cell_length_c       17.043918148432166
_cell_angle_alpha    64.8294145501678
_cell_angle_beta     64.83278176849855
_cell_angle_gamma    64.82101424734188

_space_group_name_H-M_alt    "P 1"
_space_group_IT_number       1

loop_
  _space_group_symop_operation_xyz
  'x, y, z'

loop_
  _atom_site_type_symbol
  _atom_site_label
  _atom_site_symmetry_multiplicity
  _atom_site_fract_x
  _atom_site_fract_y
  _atom_site_fract_z
  _atom_site_occupancy
  Zn  Zn1       1.0  0.9957866295630141  0.9957854170298002  0.5812796407292778  1.0000
  Zn  Zn2       1.0  0.004214584346819101  0.004176994744163699  0.4187418988098486  1.0000
  Zn  Zn3       1.0  0.9957559416258874  0.5813480472895806  0.9957816690583174  1.0000
  Zn  Zn4       1.0  0.0042634877842005  0.4186525633592453  0.0042052322183038825  1.0000
  Zn  Zn5       1.0  0.5813022250953355  0.9957757807577039  0.9957927877776809  1.0000
  Zn  Zn6       1.0  0.41869526865448153  0.004236894085238381  0.004218760282952866  1.0000
  H   H1        1.0  0.2801685417066864  0.9597611760468397  0.2801181826897121  1.0000
  H   H2        1.0  0.9678719883368317  0.21684538661495617  0.7231915959075649  1.0000
  H   H3        1.0  0.7833114080052967  0.27681621525813677  0.031768518698811504  1.0000
  H   H4        1.0  0.21668614116683224  0.7231952102476242  0.9682376588557632  1.0000
  H   H5        1.0  0.21673765694487912  0.968201411581937  0.723134743112624  1.0000
  H   H6        1.0  0.7832498466483245  0.03179618920507456  0.2768743323500191  1.0000
  H   H7        1.0  0.7231708181845706  0.21667459270827988  0.9682069455031767  1.0000
  H   H8        1.0  0.27683833629142646  0.783327622773129  0.03179471424301275  1.0000
  H   H9        1.0  0.9685422044421516  0.7231216065109436  0.21662111112795668  1.0000
  H   H10       1.0  0.03146034307309261  0.2768671329954557  0.7833760019399423  1.0000
  H   H11       1.0  0.7198196506257446  0.04023036206740474  0.7198954774445241  1.0000
  H   H12       1.0  0.9597281442371965  0.2801230123509911  0.28019506534231203  1.0000
  H   H13       1.0  0.04028524945587011  0.7198579416711511  0.7198060542901745  1.0000
  H   H14       1.0  0.2801411387259308  0.28018378250881426  0.9597326888798463  1.0000
  H   H15       1.0  0.7198739513362965  0.7198255916751891  0.04027936130329837  1.0000
  H   H16       1.0  0.276849057428919  0.03179289351429298  0.7832605706668974  1.0000
  H   H17       1.0  0.7231390834543207  0.968214905282963  0.21674281964737224  1.0000
  H   H18       1.0  0.032119007264029206  0.7831428291186171  0.2768134789578697  1.0000
  C   C1        1.0  0.324744263799424  0.9492115784629006  0.4622500505197636  1.0000
  C   C2        1.0  0.3247709976067911  0.4622906402469197  0.9491712601883933  1.0000
  C   C3        1.0  0.5469944846928103  0.4133437741199372  0.9869132831167919  1.0000
  C   C4        1.0  0.012963291377168704  0.4530478431195206  0.5866872526319186  1.0000
  C   C5        1.0  0.9870393390864866  0.5469351072327768  0.41330578200568624  1.0000
  C   C6        1.0  0.3794218208767788  0.0970019978946226  0.7815404564422509  1.0000
  C   C7        1.0  0.6205758598301188  0.9029958573182241  0.21846368885523765  1.0000
  C   C8        1.0  0.0972981363383738  0.7813003529032443  0.3794376785046083  1.0000
  C   C9        1.0  0.9026948743085657  0.21869180821752815  0.6205649145624433  1.0000
  C   C10       1.0  0.7816732612435474  0.3793940156189564  0.09684675358696637  1.0000
  C   C11       1.0  0.2183283894226022  0.6206168899380131  0.9031544121394505  1.0000
  C   C12       1.0  0.21836778686495967  0.9031127201765016  0.620577268370191  1.0000
  C   C13       1.0  0.0509047835943051  0.6751227866862449  0.5377648450619716  1.0000
  C   C14       1.0  0.7816340322832646  0.09687225480552544  0.3794299301356289  1.0000
  C   C15       1.0  0.6205901603957431  0.21819116640952527  0.9033020498029388  1.0000
  C   C16       1.0  0.37941833739540004  0.7818393287185755  0.09666874503498955  1.0000
  C   C17       1.0  0.9035441883566834  0.6206637071822171  0.2180721208744956  1.0000
  C   C18       1.0  0.09645634873056251  0.37931521913027666  0.7819328491365383  1.0000
  C   C19       1.0  0.9490856140667321  0.3248591855117411  0.4622372108355179  1.0000
  C   C20       1.0  0.45933918244538324  0.974424483759684  0.4593529878600078  1.0000
  C   C21       1.0  0.5406442608517922  0.025582160762418486  0.540647558148052  1.0000
  C   C22       1.0  0.974388717605379  0.45938832547503233  0.4593247141830615  1.0000
  C   C23       1.0  0.025608516556630406  0.5405956082949713  0.5406660505024237  1.0000
  C   C24       1.0  0.45936087819010407  0.4593765708261372  0.9744019868863063  1.0000
  C   C25       1.0  0.5406461172359727  0.5406476544219598  0.0255931676366573  1.0000
  C   C26       1.0  0.9703219679301682  0.1749094216739735  0.4404886998780316  1.0000
  C   C27       1.0  0.6752479763599696  0.050783300777226245  0.5377611197903674  1.0000
  C   C28       1.0  0.029681956693437407  0.8250593621902028  0.5595255371906588  1.0000
  C   C29       1.0  0.1749121071922914  0.4404407255555896  0.9703600609792247  1.0000
  C   C30       1.0  0.8251077968439448  0.5595810121641732  0.02962958099876555  1.0000
  C   C31       1.0  0.4404345194053292  0.9703870897248306  0.17490248321065857  1.0000
  C   C32       1.0  0.5595562751066581  0.029627676336488724  0.8250998349768396  1.0000
  C   C33       1.0  0.5596438570867833  0.82510561696899  0.029609721221170608  1.0000
  C   C34       1.0  0.4403820976282732  0.1749070826755954  0.97039289998402  1.0000
  C   C35       1.0  0.02956232458016221  0.5596601359536635  0.8251315766162507  1.0000
  C   C36       1.0  0.9704510631096782  0.44033190443438736  0.1748590617158925  1.0000
  C   C37       1.0  0.8250840025602956  0.029582669611222943  0.5596448518743743  1.0000
  C   C38       1.0  0.9492459590842515  0.46229188337314053  0.32467374833346707  1.0000
  C   C39       1.0  0.17490680876125714  0.9704079710598917  0.4403798267297817  1.0000
  C   C40       1.0  0.41575381424402025  0.9566755860958271  0.4157873501367318  1.0000
  C   C41       1.0  0.5842255196156145  0.04333613785514956  0.584214552229959  1.0000
  C   C42       1.0  0.9566124833129593  0.4158526592741724  0.4157259802644331  1.0000
  C   C43       1.0  0.0433793283139323  0.5841296215971215  0.5842683172131444  1.0000
  C   C44       1.0  0.4157907662926022  0.4157907477750343  0.9566484895264439  1.0000
  C   C45       1.0  0.5842161768515625  0.5842321199885488  0.04335429315614901  1.0000
  C   C46       1.0  0.2760168747526421  0.9516141044084491  0.41029712825746867  1.0000
  C   C47       1.0  0.7239821933165373  0.0483735928645928  0.5897130160219248  1.0000
  C   C48       1.0  0.951661884180524  0.4102995212066531  0.2759681646541806  1.0000
  C   C49       1.0  0.05075126500889131  0.5376861678427787  0.6753241640421024  1.0000
  C   C50       1.0  0.048339410092467006  0.5896714536799266  0.7240351068146893  1.0000
  C   C51       1.0  0.41033614938248775  0.27601012353866844  0.951579214638926  1.0000
  C   C52       1.0  0.58968720093786  0.7240015307222404  0.04841260421542866  1.0000
  C   C53       1.0  0.5896551759662358  0.04840457570750798  0.7239929122229825  1.0000
  C   C54       1.0  0.4103146211176141  0.9516125274320045  0.2760124814784605  1.0000
  C   C55       1.0  0.7239839240852888  0.5896528615632732  0.04843448398730749  1.0000
  C   C56       1.0  0.2760259167297364  0.4103615586604262  0.9515535934617034  1.0000
  C   C57       1.0  0.0484566326656477  0.7239494298193208  0.5896426725915518  1.0000
  C   C58       1.0  0.9515406144280548  0.27603190696055435  0.41034916805062227  1.0000
  C   C59       1.0  0.4425297768529078  0.05730127102977888  0.7110149020298026  1.0000
  C   C60       1.0  0.46226993850606146  0.3247439801800311  0.9491955212707239  1.0000
  C   C61       1.0  0.5574700297446853  0.9426980308958974  0.28897602045718435  1.0000
  C   C62       1.0  0.05748511350909521  0.7108538192593841  0.4425360402170782  1.0000
  C   C63       1.0  0.9425072616955676  0.2891327131628074  0.5574674008319319  1.0000
  C   C64       1.0  0.7110636366396719  0.44251014657016446  0.0572732748888711  1.0000
  C   C65       1.0  0.2889461388692285  0.5575035555849651  0.9427233434274741  1.0000
  C   C66       1.0  0.28893577095474393  0.9427355080539216  0.5574621058716289  1.0000
  C   C67       1.0  0.7110552050635308  0.05725268801649706  0.4425453323875673  1.0000
  C   C68       1.0  0.5574760025447462  0.2888902824947052  0.9427691354359525  1.0000
  C   C69       1.0  0.4425392154519587  0.7111329225189779  0.05721363203693376  1.0000
  C   C70       1.0  0.94292750065204  0.5574815789006209  0.2888193146487764  1.0000
  C   C71       1.0  0.5377465692175677  0.6752748413005987  0.05079909615968602  1.0000
  C   C72       1.0  0.057073065809078116  0.44249737690659424  0.7111821102716149  1.0000
  C   C73       1.0  0.3198251391413152  0.9530728799110051  0.3198106883998762  1.0000
  C   C74       1.0  0.6801534678289727  0.04693181853056668  0.6802044168959328  1.0000
  C   C75       1.0  0.9530511992371161  0.31981957908440256  0.31984634768476644  1.0000
  C   C76       1.0  0.046956164467282215  0.6801593413943648  0.6801505014755449  1.0000
  C   C77       1.0  0.3198469043036526  0.3198559848513298  0.9530154495830132  1.0000
  C   C78       1.0  0.6801784153392347  0.6801589163913635  0.046980064946538225  1.0000
  C   C79       1.0  0.6723513212455219  0.03044397167436595  0.4032379190318809  1.0000
  C   C80       1.0  0.32763624405078673  0.9695471661320665  0.5967703012318568  1.0000
  C   C81       1.0  0.030251986351061112  0.40323892073163137  0.6724429928414751  1.0000
  C   C82       1.0  0.537746924650257  0.050806548105320766  0.6752205738644081  1.0000
  C   C83       1.0  0.9697519863064772  0.596744918720468  0.3275502862652147  1.0000
  C   C84       1.0  0.4032106273556197  0.6724163690282978  0.030444999710425615  1.0000
  C   C85       1.0  0.596796415271676  0.32760529364018953  0.9695470948301551  1.0000
  C   C86       1.0  0.5967791703129848  0.9695252447634033  0.32765640615019015  1.0000
  C   C87       1.0  0.403204263377944  0.0304853050754659  0.6723413442259556  1.0000
  C   C88       1.0  0.32762449358587276  0.5968175530277265  0.9695409405569393  1.0000
  C   C89       1.0  0.6723805533928768  0.403196268768383  0.03045524971705763  1.0000
  C   C90       1.0  0.9693155636618728  0.3277843593569685  0.596811867274667  1.0000
  C   C91       1.0  0.03068500797246541  0.6722004740885481  0.4031830008040842  1.0000
  C   C92       1.0  0.7186022514094504  0.017085513670458866  0.31517502221057464  1.0000
  C   C93       1.0  0.46224263509448354  0.949201564281026  0.3247744671815126  1.0000
  C   C94       1.0  0.2813791004516091  0.9829236336976734  0.6848306333401056  1.0000
  C   C95       1.0  0.016744612105398505  0.31523270155275906  0.7187341757196677  1.0000
  C   C96       1.0  0.9832539186194896  0.6847533804858089  0.2812610222440881  1.0000
  C   C97       1.0  0.31514034426911053  0.7186748251305842  0.017066312238945565  1.0000
  C   C98       1.0  0.6848599773198957  0.2813365094848023  0.98293170764628  1.0000
  C   C99       1.0  0.6848227140729721  0.9829106536331482  0.28139304180348984  1.0000
  C   C100      1.0  0.3151572809997845  0.0170995474619815  0.7186121531590217  1.0000
  C   C101      1.0  0.28134599720000614  0.6848731523104661  0.9829344223750384  1.0000
  C   C102      1.0  0.7186543261442467  0.3151407940424065  0.01706074900816643  1.0000
  C   C103      1.0  0.982593114250662  0.28149003199690975  0.6849036829811936  1.0000
  C   C104      1.0  0.6752387488058105  0.5377289051359924  0.05082293722539801  1.0000
  C   C105      1.0  0.017404059685922804  0.7184971037686624  0.31509105439438667  1.0000
  C   C106      1.0  0.5469613574774074  0.9869390193671282  0.4133583616172842  1.0000
  C   C107      1.0  0.45302206799243555  0.013070217229312734  0.5866416992825236  1.0000
  C   C108      1.0  0.9868371863180557  0.41342265711778475  0.5469782753680122  1.0000
  C   C109      1.0  0.0131606944626697  0.5865616966231855  0.4530155657942246  1.0000
  C   C110      1.0  0.4133439318505908  0.5470107336650756  0.9869285051409876  1.0000
  C   C111      1.0  0.5866638536456108  0.45301079312682196  0.0130557087451422  1.0000
  C   C112      1.0  0.5866431334393951  0.013048829110047719  0.45304018372544164  1.0000
  C   C113      1.0  0.4133443881661947  0.9869500947509665  0.5469653995166582  1.0000
  C   C114      1.0  0.45301603091470355  0.5866802292769788  0.013065242233935312  1.0000
  N   N1        1.0  0.3172098831120282  0.13450622021749575  0.8313361811015128  1.0000
  N   N2        1.0  0.3171559980761531  0.8318527983716706  0.13387363347338518  1.0000
  N   N3        1.0  0.8664137464889167  0.6829568026898798  0.16801667659760255  1.0000
  N   N4        1.0  0.13358806111276073  0.31702555072308064  0.8319945521071189  1.0000
  N   N5        1.0  0.682791197417977  0.8654997747094693  0.16865729173952831  1.0000
  N   N6        1.0  0.13492371974238893  0.8310768427089813  0.31736159087991206  1.0000
  N   N7        1.0  0.8650630332234287  0.1689293685830506  0.6826477324388519  1.0000
  N   N8        1.0  0.8315768525269932  0.317136070321311  0.13418418081769803  1.0000
  N   N9        1.0  0.16842614855413274  0.6828770375778888  0.8658149188541345  1.0000
  N   N10       1.0  0.16846753070274192  0.865734409277259  0.6827678540412805  1.0000
  N   N11       1.0  0.8315287588538143  0.13426250767790293  0.3172419552715269  1.0000
  N   N12       1.0  0.682844448677024  0.16818280419177245  0.8660848913904076  1.0000
  O   O1        1.0  0.9851697461774621  0.1304715665219121  0.516977480692354  1.0000
  O   O2        1.0  0.9852984249100986  0.5168105634612842  0.13037709922060273  1.0000
  O   O3        1.0  0.8695533239339214  0.014688310374253876  0.48316475378768337  1.0000
  O   O4        1.0  0.13043341222233812  0.9853420263079825  0.5168222091144232  1.0000
  O   O5        1.0  0.8602670519221508  0.02533915917608445  0.6148188587896044  1.0000
  O   O6        1.0  0.1397350182864514  0.9746062657802029  0.38519824872293634  1.0000
  O   O7        1.0  0.025345695036868714  0.6148530590291585  0.8602727168848574  1.0000
  O   O8        1.0  0.9747106523422392  0.38510046452797286  0.13971137786910498  1.0000
  O   O9        1.0  0.6148206551586599  0.8602629854960993  0.025390025079524016  1.0000
  O   O10       1.0  0.38518503345063243  0.1397492937810156  0.9746118211840626  1.0000
  O   O11       1.0  0.3852208959981454  0.9746876825454509  0.13970444632626292  1.0000
  O   O12       1.0  0.014781985600961906  0.8695087935430121  0.48304310614315704  1.0000
  O   O13       1.0  0.6147441904754204  0.025328905734866677  0.8602990157766827  1.0000
  O   O14       1.0  0.13974920406673874  0.3852167846539628  0.9746300679085991  1.0000
  O   O15       1.0  0.8602689228697855  0.6147947216663854  0.02533993012500695  1.0000
  O   O16       1.0  0.9746288100009155  0.13968762511286303  0.38529548691884946  1.0000
  O   O17       1.0  0.025430269429797606  0.8602749019351138  0.6146760934688941  1.0000
  O   O18       1.0  0.1304294708909524  0.5169042173907668  0.9852642847625008  1.0000
  O   O19       1.0  0.8695945345440563  0.4830804606342978  0.014757270173326877  1.0000
  O   O20       1.0  0.5169237064478979  0.9852137566136179  0.13045943985908773  1.0000
  O   O21       1.0  0.4830501978556257  0.014785867488683345  0.8695573893077508  1.0000
  O   O22       1.0  0.48317430646543613  0.8696144918980336  0.014672341974147702  1.0000
  O   O23       1.0  0.5168197229878758  0.13040694332975986  0.985340521430665  1.0000
  O   O24       1.0  0.014679057767459402  0.48317715233427083  0.8696279425791076  1.0000
