data_image0
_chemical_formula_structural       Al6H63C90N7O28
_chemical_formula_sum              "Al6 H63 C90 N7 O28"
_cell_length_a       13.154101618281542
_cell_length_b       13.157759098325702
_cell_length_c       27.606693044354017
_cell_angle_alpha    89.89123133419625
_cell_angle_beta     89.57357823193473
_cell_angle_gamma    60.63108202516171

_space_group_name_H-M_alt    "P 1"
_space_group_IT_number       1

loop_
  _space_group_symop_operation_xyz
  'x, y, z'

loop_
  _atom_site_type_symbol
  _atom_site_label
  _atom_site_symmetry_multiplicity
  _atom_site_fract_x
  _atom_site_fract_y
  _atom_site_fract_z
  _atom_site_occupancy
  Al  Al1       1.0  0.418074370010487  0.17680175927744554  0.4985565793899058  1.0000
  Al  Al2       1.0  0.4184803425745614  0.9348158523867764  0.498771733299897  1.0000
  Al  Al3       1.0  0.6501496882240899  0.92602630925677  0.4996000180491792  1.0000
  Al  Al4       1.0  0.9119901718828773  0.17305599947209765  0.9864086608722646  1.0000
  Al  Al5       1.0  0.6727339659032483  0.4150822227281024  0.9858034469783734  1.0000
  Al  Al6       1.0  0.8958073343171125  0.42401250020720477  0.9835479227687005  1.0000
  H   H1        1.0  0.4647758962827809  0.6885303866394707  0.21397516839219585  1.0000
  H   H2        1.0  0.8126892016703096  0.5484485768652689  0.6936324096340485  1.0000
  H   H3        1.0  0.4966881193180085  0.867332964623067  0.728775653734232  1.0000
  H   H4        1.0  0.46249793583429993  0.9130177503154399  0.6414484849857731  1.0000
  H   H5        1.0  0.717335902121292  0.9242347837103109  0.6411679804348938  1.0000
  H   H6        1.0  0.4950370575105937  0.3103728743271433  0.777027620000567  1.0000
  H   H7        1.0  0.5078463108521163  0.3604757676229866  0.8632629238579315  1.0000
  H   H8        1.0  0.47419950471826416  0.876904939914965  0.25979972457444234  1.0000
  H   H9        1.0  0.7320644827043096  0.9569902866651248  0.7286494637907381  1.0000
  H   H10       1.0  0.8558462985164399  0.0705599939184509  0.8697914748856308  1.0000
  H   H11       1.0  0.5759177657405063  0.3266687173380801  0.7024554024793802  1.0000
  H   H12       1.0  0.4797272405209157  0.23981341099668188  0.21797851756864625  1.0000
  H   H13       1.0  0.5437412897445455  0.293744899943384  0.6161452475754106  1.0000
  H   H14       1.0  0.0031143345812409914  0.1314139026025032  0.75596255803913  1.0000
  H   H15       1.0  0.9594662653959248  0.15097154951872227  0.843978946308738  1.0000
  H   H16       1.0  0.19610438635139366  0.31550694704485943  0.7741902655099296  1.0000
  H   H17       1.0  0.6642170563839118  0.8384913510819415  0.19684224960260377  1.0000
  H   H18       1.0  0.1394840473739691  0.34595025091093845  0.8614615003407877  1.0000
  H   H19       1.0  0.18663844558291495  0.0195110283631124  0.7148374134868691  1.0000
  H   H20       1.0  0.8211336364056623  0.686986862390313  0.26690733627895474  1.0000
  H   H21       1.0  0.8164342069715789  0.9940641370460738  0.20686519725445154  1.0000
  H   H22       1.0  0.8754375466658573  0.1126211957580594  0.27799357684008197  1.0000
  H   H23       1.0  0.7287063034977025  0.32751005846289877  0.23054010993157456  1.0000
  H   H24       1.0  0.4676214363197816  0.45794960558539083  0.27053825510730434  1.0000
  H   H25       1.0  0.44846444324241486  0.3719300333001955  0.31578324226401844  1.0000
  H   H26       1.0  0.5571742113275421  0.4129613867120128  0.32326314598485345  1.0000
  H   H27       1.0  0.2630140079602583  0.37147105891536103  0.23363474630290437  1.0000
  H   H28       1.0  0.2903119366679264  0.31119848509608516  0.17393404092275944  1.0000
  H   H29       1.0  0.14742358525617763  0.4189015366942783  0.19105606003929412  1.0000
  H   H30       1.0  0.35261461712892134  0.8809166226452233  0.1976745012664551  1.0000
  H   H31       1.0  0.24357730813293443  0.950046022927573  0.15285104367863064  1.0000
  H   H32       1.0  0.3681970171965006  0.9684598055613801  0.1521411493225955  1.0000
  H   H33       1.0  0.09993474629550311  0.9574874638810723  0.2443118993551608  1.0000
  H   H34       1.0  0.06543803374563588  0.3390604804849531  0.2852635166274667  1.0000
  H   H35       1.0  0.1827583484561045  0.9396957108125363  0.2925151057413445  1.0000
  H   H36       1.0  0.8624103301770134  0.6612452667410693  0.7375476237668581  1.0000
  H   H37       1.0  0.9359562994331868  0.62468859100548  0.7905385964429856  1.0000
  H   H38       1.0  0.43534102186303164  0.6464112521524826  0.7839032693186285  1.0000
  H   H39       1.0  0.4867895109644352  0.6800064294633685  0.7335999246653346  1.0000
  H   H40       1.0  0.47406283173796754  0.6677356695113161  0.9082009731207565  1.0000
  H   H41       1.0  0.397969958754146  0.7170570093756654  0.8529538448645158  1.0000
  H   H42       1.0  0.4765587002919033  0.565045655250465  0.8668956101460668  1.0000
  H   H43       1.0  0.9373498924506408  0.9538054759117855  0.7992790959624332  1.0000
  H   H44       1.0  0.8694716042109363  0.9834714359985597  0.7445356388017788  1.0000
  H   H45       1.0  0.38570125751309087  0.0970396711085471  0.24614066390203967  1.0000
  H   H46       1.0  0.04858034658692386  0.4358721362052549  0.6002431111827777  1.0000
  H   H47       1.0  0.20079101521500317  0.387719588173141  0.5948426334016406  1.0000
  H   H48       1.0  0.1355758266147618  0.33815325250861855  0.5534969221258664  1.0000
  H   H49       1.0  0.08976162246217005  0.4577993292832118  0.6731764906607797  1.0000
  H   H50       1.0  0.051302418717249096  0.4177122631325219  0.7249516811921881  1.0000
  H   H51       1.0  0.27846871020037867  0.8814024156038869  0.653784400305213  1.0000
  H   H52       1.0  0.2889751940093033  0.9166431739878931  0.5943482874262431  1.0000
  H   H53       1.0  0.8814317640035088  0.4195730434979835  0.2517646976149309  1.0000
  H   H54       1.0  0.814406400080344  0.4132536260783083  0.19673686697218076  1.0000
  H   H55       1.0  0.9058868771409653  0.47684494531410593  0.19710156269869125  1.0000
  H   H56       1.0  0.9696920355571875  0.22974366276013566  0.22536616368230267  1.0000
  H   H57       1.0  0.5894784291296205  0.9769145187932081  0.24555688281126467  1.0000
  H   H58       1.0  0.5777019337297702  0.0207581238985597  0.3028015296501182  1.0000
  H   H59       1.0  0.7855442812403413  0.6023241874956041  0.6071649111615899  1.0000
  H   H60       1.0  0.6239463851421974  0.5341943682756138  0.2830194531279774  1.0000
  H   H61       1.0  0.8601145999754467  0.5955395576530477  0.8642283776543281  1.0000
  H   H62       1.0  0.3451003417204177  0.3675095131761167  0.4696298548829888  1.0000
  H   H63       1.0  0.9578762678058512  0.9796210773194783  0.9723376185780384  1.0000
  C   C1        1.0  0.30467952212544713  0.0909832401823749  0.4246096263205531  1.0000
  C   C2        1.0  0.6284624133254083  0.728419531151694  0.3400557190465109  1.0000
  C   C3        1.0  0.7878630116414415  0.1406472662351916  0.2642535462603561  1.0000
  C   C4        1.0  0.6006077355720622  0.7951932904176855  0.4316839995262003  1.0000
  C   C5        1.0  0.7553803973044426  0.0746073262749221  0.22561191291098487  1.0000
  C   C6        1.0  0.6856517898464605  0.23049410517754854  0.10604330916063993  1.0000
  C   C7        1.0  0.6687255270646874  0.11693539307017177  0.38932042683519813  1.0000
  C   C8        1.0  0.7065850534742212  0.2594670921399356  0.23896411052786706  1.0000
  C   C9        1.0  0.6740489002670672  0.1937718304493785  0.19908120705463264  1.0000
  C   C10       1.0  0.5995018740496648  0.2772344555936357  0.27047609098147524  1.0000
  C   C11       1.0  0.6819969117713001  0.1575712446002413  0.29708315285228803  1.0000
  C   C12       1.0  0.618622372561866  0.7487327112418498  0.3834787216124553  1.0000
  C   C13       1.0  0.5675572799948015  0.21119258534633897  0.23162346306286005  1.0000
  C   C14       1.0  0.6492446131915273  0.0911800304976822  0.2575640999436146  1.0000
  C   C15       1.0  0.6759247675774848  0.21403910613140195  0.14887243775380915  1.0000
  C   C16       1.0  0.6323112237422707  0.09511635980372551  0.435386021385611  1.0000
  C   C17       1.0  0.6796433721795906  0.1360571539395394  0.34691661323738293  1.0000
  C   C18       1.0  0.1142519657847316  0.2617197012321455  0.2625449413795239  1.0000
  C   C19       1.0  0.20173817933312685  0.24942912485366256  0.22114360416406245  1.0000
  C   C20       1.0  0.09049360363481183  0.23697845043558627  0.09622178231914091  1.0000
  C   C21       1.0  0.26287566579410543  0.1058897087949617  0.3756707637217218  1.0000
  C   C22       1.0  0.06204614391183581  0.20145960980612188  0.23034201134320406  1.0000
  C   C23       1.0  0.7375940546803577  0.581998528980364  0.23040190378895894  1.0000
  C   C24       1.0  0.1484149381487114  0.1895824310819947  0.1878103581818706  1.0000
  C   C25       1.0  0.15275921571678447  0.07947628329493742  0.2504830342445602  1.0000
  C   C26       1.0  0.2064995650152994  0.1389776415812989  0.2834842124964468  1.0000
  C   C27       1.0  0.24159894305270777  0.0654486819241527  0.20794835864260364  1.0000
  C   C28       1.0  0.2747298630047156  0.10898235344404128  0.5633111116899772  1.0000
  C   C29       1.0  0.29302368913536003  0.12621675608732366  0.24064054959979594  1.0000
  C   C30       1.0  0.11709478562195838  0.2156715775282194  0.13874360041162961  1.0000
  C   C31       1.0  0.2370154487669609  0.11762061559021929  0.3328853621014504  1.0000
  C   C32       1.0  0.6203749675174635  0.7594260061790479  0.6184488683299565  1.0000
  C   C33       1.0  0.7210918044922463  0.6594078420187728  0.6337363793034715  1.0000
  C   C34       1.0  0.6478826679492898  0.6684562576511296  0.19113458116648024  1.0000
  C   C35       1.0  0.7368426536090953  0.6303535560913928  0.6828280137786467  1.0000
  C   C36       1.0  0.6558112093405841  0.7037188880682521  0.7179795421200412  1.0000
  C   C37       1.0  0.5585093268367773  0.807383161285777  0.7021121568675002  1.0000
  C   C38       1.0  0.5392761881589294  0.8334224601988325  0.6530921572425471  1.0000
  C   C39       1.0  0.7697940046016927  0.6520080984305707  0.7960424391263461  1.0000
  C   C40       1.0  0.5966975588678237  0.7967225412097818  0.5669098676114929  1.0000
  C   C41       1.0  0.7800569605032167  0.6188351945212104  0.8446535034383021  1.0000
  C   C42       1.0  0.5836947197777673  0.6416272149356601  0.8453815968096665  1.0000
  C   C43       1.0  0.5773968183439919  0.667022871353069  0.7952537707893301  1.0000
  C   C44       1.0  0.6686095486530379  0.6736540825945666  0.7703113872332212  1.0000
  C   C45       1.0  0.742176471481777  0.6869622725454076  0.2548201094363094  1.0000
  C   C46       1.0  0.6894996677970511  0.6122424477295992  0.868992545375001  1.0000
  C   C47       1.0  0.6312480664754433  0.10703696884147719  0.6233821167739607  1.0000
  C   C48       1.0  0.6865443334191499  0.012136953335513598  0.6549845752542183  1.0000
  C   C49       1.0  0.6971049496365608  0.030922372412646802  0.7037857711731592  1.0000
  C   C50       1.0  0.658292858334022  0.1443568775985398  0.7217534657041542  1.0000
  C   C51       1.0  0.6046587720306675  0.23853756725137026  0.6892723824947499  1.0000
  C   C52       1.0  0.6104072755541523  0.08719935547772198  0.5724008764508925  1.0000
  C   C53       1.0  0.5884486736338985  0.22068892649275543  0.6409926272255577  1.0000
  C   C54       1.0  0.5752212988032213  0.2592602601299205  0.797351149560946  1.0000
  C   C55       1.0  0.5808191782260012  0.2867487285218786  0.845457421436713  1.0000
  C   C56       1.0  0.6378773817362674  0.7067817998342036  0.2896064299713928  1.0000
  C   C57       1.0  0.7770537125114747  0.12222888725445098  0.8487406199919152  1.0000
  C   C58       1.0  0.7740893987016764  0.09740194742607862  0.7995511823023026  1.0000
  C   C59       1.0  0.6695607590281939  0.1661117723953112  0.7733611669201326  1.0000
  C   C60       1.0  0.6831688094673111  0.2167235126718552  0.8713400929902664  1.0000
  C   C61       1.0  0.20976443605835027  0.14294297756652694  0.6094762142868292  1.0000
  C   C62       1.0  0.15696130475850373  0.2613215719086242  0.6252953738680986  1.0000
  C   C63       1.0  0.119655701552837  0.2896333860003751  0.6736352787529827  1.0000
  C   C64       1.0  0.63224875049481  0.6023730724383257  0.263668249356698  1.0000
  C   C65       1.0  0.13500812295977474  0.20029662895054662  0.7065271761827534  1.0000
  C   C66       1.0  0.17782562967023813  0.08702570992478798  0.689440673384361  1.0000
  C   C67       1.0  0.654175433247062  0.7722423251222281  0.21692319333816104  1.0000
  C   C68       1.0  0.2128733375585057  0.0554524947049302  0.6411076357643711  1.0000
  C   C69       1.0  0.035599482991585815  0.17640403673878782  0.778948073661937  1.0000
  C   C70       1.0  0.0101510958026978  0.18772353363083033  0.8281199343771706  1.0000
  C   C71       1.0  0.11053688175234565  0.29859002159182063  0.8380578312008  1.0000
  C   C72       1.0  0.13985311014229038  0.2834228017323425  0.7889302869722813  1.0000
  C   C73       1.0  0.10240434627775133  0.22252558433091707  0.7584399838377538  1.0000
  C   C74       1.0  0.04661244878198543  0.24929647279498107  0.8581420535473401  1.0000
  C   C75       1.0  0.7168996200885545  0.2495369592236116  0.05818375406435191  1.0000
  C   C76       1.0  0.5439260039186209  0.6882807653539517  0.22597079563492886  1.0000
  C   C77       1.0  0.70734702675162  0.5585525873806106  0.05177300378676361  1.0000
  C   C78       1.0  0.5493448405221315  0.7925842012208476  0.2505072047088178  1.0000
  C   C79       1.0  0.03940353458890655  0.2612855302806167  0.048888574101077616  1.0000
  C   C80       1.0  0.7007897855861813  0.24688954288481568  0.9212375757175056  1.0000
  C   C81       1.0  0.7167476378090359  0.5599858175454101  0.918266370574216  1.0000
  C   C82       1.0  0.011894472476932089  0.2617883574811373  0.9101281277727725  1.0000
  C   C83       1.0  0.678241077429142  0.6132578238915798  0.09859390822352762  1.0000
  C   C84       1.0  0.5138906843338801  0.385906792746006  0.29629742223131234  1.0000
  C   C85       1.0  0.2271616163899352  0.3425732214894737  0.20416805404479285  1.0000
  C   C86       1.0  0.30520538629691163  0.9607523581263352  0.17616358903811155  1.0000
  C   C87       1.0  0.47780288102720914  0.6480821511845533  0.8696156256465887  1.0000
  C   C88       1.0  0.13423878650122834  0.3603278197918486  0.5916608138179315  1.0000
  C   C89       1.0  0.6605569351847365  0.642627696345386  0.14107841878357164  1.0000
  C   C90       1.0  0.8402120386867298  0.4669296876863669  0.21834908251463508  1.0000
  N   N1        1.0  0.12093599274547277  0.9994049542004431  0.2700852634785208  1.0000
  N   N2        1.0  0.8571714078036908  0.6677209521619999  0.7741961251896472  1.0000
  N   N3        1.0  0.47740252948705836  0.6872869861812487  0.7701520338576986  1.0000
  N   N4        1.0  0.8756783509079327  0.013844529380797601  0.7773777343874928  1.0000
  N   N5        1.0  0.059303025673223424  0.40747137942523176  0.688405981401232  1.0000
  N   N6        1.0  0.24948260484796958  0.9421212954681618  0.6272371059401181  1.0000
  N   N7        1.0  0.6277345268224651  3.888886810440036e-05  0.272071791829795  1.0000
  O   O1        1.0  0.5307827811357411  0.1691915253002065  0.44931304501056263  1.0000
  O   O2        1.0  0.8046971681278592  0.5371207737906116  0.032870585610403714  1.0000
  O   O3        1.0  0.009000900397097689  0.36323691184917806  0.031086899951425606  1.0000
  O   O4        1.0  0.3281476491279918  0.16627185592125218  0.4413132920783769  1.0000
  O   O5        1.0  0.9859053028895912  0.1880505057241351  0.9269688442261101  1.0000
  O   O6        1.0  0.7901745901984113  0.17430106971723802  0.944086954186439  1.0000
  O   O7        1.0  0.6264049936633781  0.349527289423456  0.9372837116358783  1.0000
  O   O8        1.0  0.647523768976484  0.5302426280147613  0.9385304751274507  1.0000
  O   O9        1.0  0.8140947334826405  0.5395023111533918  0.937343708665914  1.0000
  O   O10       1.0  0.00652823825154762  0.3486760124483723  0.9341052908200499  1.0000
  O   O11       1.0  0.8259689744079639  0.3393029712710174  0.9858837641017576  1.0000
  O   O12       1.0  0.4929540163862002  0.8314800812612617  0.551827865860716  1.0000
  O   O13       1.0  0.3177012429089815  0.9987479246349266  0.446838797778348  1.0000
  O   O14       1.0  0.5097421928333857  0.8102242597065583  0.45511679638689634  1.0000
  O   O15       1.0  0.6749962062877588  0.8237013268545963  0.4468123344174658  1.0000
  O   O16       1.0  0.7030873958660353  0.00020407287816230277  0.457663234668857  1.0000
  O   O17       1.0  0.5219707741173565  0.16659902349451267  0.5514651082504047  1.0000
  O   O18       1.0  0.31307363421962725  0.1729854524678132  0.5461509272601078  1.0000
  O   O19       1.0  0.2967432566199122  0.010529889896290001  0.5427779553229473  1.0000
  O   O20       1.0  0.677201167447201  0.7998443134815075  0.5417950197468147  1.0000
  O   O21       1.0  0.6832151084928878  0.9870261941644574  0.553833204745118  1.0000
  O   O22       1.0  0.49726905742240746  0.010483077637403  0.4980733153304727  1.0000
  O   O23       1.0  0.024164733256618814  0.18319349591793346  0.029382977271730205  1.0000
  O   O24       1.0  0.8208278742346878  0.1816913353620251  0.04495163374014061  1.0000
  O   O25       1.0  0.6383368613103785  0.3356415869454636  0.0337225777548085  1.0000
  O   O26       1.0  0.6347755729929859  0.5305379326416214  0.03378475699380351  1.0000
  O   O27       1.0  0.3406526584369302  0.3301294621490882  0.4991203758627664  1.0000
  O   O28       1.0  0.9942476274392789  0.020113294314946004  0.9871541139043318  1.0000
