data_image0
_chemical_formula_structural       Mn2H14C16N2O16
_chemical_formula_sum              "Mn2 H14 C16 N2 O16"
_cell_length_a       7.610763646453597
_cell_length_b       7.749856354265438
_cell_length_c       9.898529025211698
_cell_angle_alpha    68.7692229367345
_cell_angle_beta     79.02086100661053
_cell_angle_gamma    62.77368131990148

_space_group_name_H-M_alt    "P 1"
_space_group_IT_number       1

loop_
  _space_group_symop_operation_xyz
  'x, y, z'

loop_
  _atom_site_type_symbol
  _atom_site_label
  _atom_site_symmetry_multiplicity
  _atom_site_fract_x
  _atom_site_fract_y
  _atom_site_fract_z
  _atom_site_occupancy
  Mn  Mn1       1.0  0.7922964810940556  0.7207475769219158  0.022351183309403708  1.0000
  Mn  Mn2       1.0  0.20770315879543944  0.2792558072652866  0.9776464390295271  1.0000
  H   H1        1.0  0.14076155755190456  0.5290504884530164  0.6466887552860996  1.0000
  H   H2        1.0  0.8592439863736061  0.47094832278072846  0.35330923992123064  1.0000
  H   H3        1.0  0.2545476019194836  0.034334348898482914  0.6285734935893996  1.0000
  H   H4        1.0  0.7454493136859028  0.9656659542142452  0.37142643935262487  1.0000
  H   H5        1.0  0.3561446778035489  0.08143180003815327  0.37047555817412803  1.0000
  H   H6        1.0  0.6438517228312715  0.9185730757846499  0.6295251791985663  1.0000
  H   H7        1.0  0.63752786144817  0.6152831004473855  0.8390621902420177  1.0000
  H   H8        1.0  0.3624717704109982  0.3847171931884859  0.16093934096324602  1.0000
  H   H9        1.0  0.4543512257180923  0.7596713537183745  0.9109561316812956  1.0000
  H   H10       1.0  0.5456483329475856  0.2403258774316512  0.08904627954916584  1.0000
  H   H11       1.0  0.08141766572256157  0.7834381771665164  0.05788080199597093  1.0000
  H   H12       1.0  0.9185818929431233  0.21655905398350933  0.9421216092344906  1.0000
  H   H13       1.0  0.9059338106679249  0.9118555684502355  0.1430008693730612  1.0000
  H   H14       1.0  0.09406842080942815  0.08814167193326482  0.8570011208932227  1.0000
  C   C1        1.0  0.4070006567210738  0.8508936048061032  0.2106012102906546  1.0000
  C   C2        1.0  0.59299883678144  0.14910365440940862  0.7893981720986714  1.0000
  C   C3        1.0  0.32456568622217186  0.82257731242175  0.3642294281537913  1.0000
  C   C4        1.0  0.6754359434003872  0.17742453809247397  0.6357693280883152  1.0000
  C   C5        1.0  0.26040394136975914  0.6696902260698822  0.44561404266637783  1.0000
  C   C6        1.0  0.7395984147735245  0.33031314864047107  0.5543851779357992  1.0000
  C   C7        1.0  0.18992809771020797  0.6487102111656569  0.588814349803684  1.0000
  C   C8        1.0  0.8100761098094721  0.35128859545135077  0.4111838558857385  1.0000
  C   C9        1.0  0.19392142461779818  0.7759208153600171  0.6571737108790143  1.0000
  C   C10       1.0  0.8060814167446677  0.22407490544408404  0.34282760454510697  1.0000
  C   C11       1.0  0.25430627661693705  0.9318734792463135  0.5770354389583544  1.0000
  C   C12       1.0  0.7456907121819396  0.0681298863522599  0.42296361395847254  1.0000
  C   C13       1.0  0.31436761870223506  0.9569959264340613  0.4321584788788115  1.0000
  C   C14       1.0  0.685632696235544  0.0430059101082634  0.5678414974590991  1.0000
  C   C15       1.0  0.14600628659835016  0.7385146404439099  0.8153020688165497  1.0000
  C   C16       1.0  0.8539958797158246  0.2614826280050693  0.1846968926085992  1.0000
  N   N1        1.0  0.27420710557937156  0.5214045825479233  0.3825206764782577  1.0000
  N   N2        1.0  0.7257898614984551  0.4785987924058119  0.6174773668248574  1.0000
  O   O1        1.0  0.5937184130645005  0.7629195376993892  0.1979189690805256  1.0000
  O   O2        1.0  0.4062818584311642  0.23708231755325937  0.8020789880299687  1.0000
  O   O3        1.0  0.2871417430090089  0.9691539214153979  0.10897640870532396  1.0000
  O   O4        1.0  0.7128566039167692  0.03084943944475071  0.8910234433431224  1.0000
  O   O5        1.0  0.1951412354422786  0.8213839533315835  0.882602438851002  1.0000
  O   O6        1.0  0.8048616059201874  0.1786117674725176  0.1173988765731266  1.0000
  O   O7        1.0  0.058865278311948384  0.6191940422882568  0.8791604121408267  1.0000
  O   O8        1.0  0.9411323203720486  0.38080780373091727  0.12083796593383765  1.0000
  O   O9        1.0  0.35712720848763263  0.5299222296047077  0.25935832907505574  1.0000
  O   O10       1.0  0.6428763376745008  0.47007502475068463  0.7406424410954314  1.0000
  O   O11       1.0  0.20889617127134832  0.39332847205074717  0.451127668034637  1.0000
  O   O12       1.0  0.791092953509832  0.606684081370446  0.5488669788580011  1.0000
  O   O13       1.0  0.5998038090313498  0.7035528722933863  0.901018480979445  1.0000
  O   O14       1.0  0.40019509630710093  0.2964458971463629  0.0989825858657483  1.0000
  O   O15       1.0  0.975447733874816  0.773329644625136  0.1327988506448959  1.0000
  O   O16       1.0  0.02455119318469197  0.22666911545945115  0.8672032258140091  1.0000
