data_image0
_chemical_formula_structural       NiH8C6N8O4
_chemical_formula_sum              "Ni1 H8 C6 N8 O4"
_cell_length_a       5.411605020343735
_cell_length_b       7.72858713142186
_cell_length_c       8.044956848331235
_cell_angle_alpha    121.62118303871742
_cell_angle_beta     101.34126710298064
_cell_angle_gamma    95.69850619744328

_space_group_name_H-M_alt    "P 1"
_space_group_IT_number       1

loop_
  _space_group_symop_operation_xyz
  'x, y, z'

loop_
  _atom_site_type_symbol
  _atom_site_label
  _atom_site_symmetry_multiplicity
  _atom_site_fract_x
  _atom_site_fract_y
  _atom_site_fract_z
  _atom_site_occupancy
  Ni  Ni1       1.0  0.9999967588238619  1.6534133635802119e-06  7.714540870897626e-06  1.0000
  H   H1        1.0  0.5817536978901642  0.3083021970479578  0.7253523552847552  1.0000
  H   H2        1.0  0.4182998623286025  0.6917194940917569  0.27466016660915216  1.0000
  H   H3        1.0  0.7954404012003947  0.19727402741416  0.41096225173539114  1.0000
  H   H4        1.0  0.2045929902101875  0.8027286668637643  0.5890542903999288  1.0000
  H   H5        1.0  0.1758986342703679  0.3184034369305735  0.8925212099121254  1.0000
  H   H6        1.0  0.8241498598580606  0.6816057794735927  0.1074894946161393  1.0000
  H   H7        1.0  0.1562671943083203  0.5322562142585952  0.8867942535671034  1.0000
  H   H8        1.0  0.8437574120107668  0.46775505223155284  0.1132090148859817  1.0000
  C   C1        1.0  0.47945295794590254  0.8909150164940701  0.9830993116432722  1.0000
  C   C2        1.0  0.5205247392735258  0.10908983196832618  0.016896536800388173  1.0000
  C   C3        1.0  0.406456132397544  0.2615245011931435  0.60390521388058  1.0000
  C   C4        1.0  0.5935304129494412  0.7384929987687983  0.3960943286693989  1.0000
  C   C5        1.0  0.0027650949810933156  0.20465447814340373  0.44126842750839046  1.0000
  C   C6        1.0  0.997232185360332  0.7953370139698708  0.5587163091236392  1.0000
  N   N1        1.0  0.13703523752278812  0.1382712152234049  0.30762608946948683  1.0000
  N   N2        1.0  0.8629155931819524  0.8617075915389519  0.692344519903038  1.0000
  N   N3        1.0  0.3920112089294676  0.172724048906062  0.40933289252718896  1.0000
  N   N4        1.0  0.6079303283569216  0.8272793605577606  0.590655779409282  1.0000
  N   N5        1.0  0.1659768956247092  0.2835888012939591  0.6297621770026253  1.0000
  N   N6        1.0  0.8340074378100436  0.7164114819888424  0.3702249545488596  1.0000
  N   N7        1.0  0.08846854596352927  0.37173258867174747  0.8082032437636144  1.0000
  N   N8        1.0  0.9115821187779575  0.6282628857995148  0.1918060755816882  1.0000
  O   O1        1.0  0.25082748473681704  0.8031231382979271  0.9555187736512495  1.0000
  O   O2        1.0  0.7491610797200821  0.1968439873778394  0.04448519829780647  1.0000
  O   O3        1.0  0.32383533130987263  0.1853575267322753  0.015464949991873254  1.0000
  O   O4        1.0  0.6761386835982606  0.8146257516595129  0.9845310818545697  1.0000
