data_image0
_chemical_formula_structural       Ag2Mo4H14C22N12O16
_chemical_formula_sum              "Ag2 Mo4 H14 C22 N12 O16"
_cell_length_a       7.257682862015279
_cell_length_b       11.452368276167938
_cell_length_c       11.776639873145013
_cell_angle_alpha    119.09304557446029
_cell_angle_beta     98.88392690205751
_cell_angle_gamma    90.00017166708655

_space_group_name_H-M_alt    "P 1"
_space_group_IT_number       1

loop_
  _space_group_symop_operation_xyz
  'x, y, z'

loop_
  _atom_site_type_symbol
  _atom_site_label
  _atom_site_symmetry_multiplicity
  _atom_site_fract_x
  _atom_site_fract_y
  _atom_site_fract_z
  _atom_site_occupancy
  Ag  Ag1       1.0  0.9999990092883451  0.4999999838314225  0.4999995152545651  1.0000
  Ag  Ag2       1.0  0.4999997211492442  0.999999971292496  0.4999986663628204  1.0000
  Mo  Mo1       1.0  0.41258093718222705  0.09454236189112211  0.14924456725669438  1.0000
  Mo  Mo2       1.0  0.08741866002660713  0.9452973731005515  0.8507546371891335  1.0000
  Mo  Mo3       1.0  0.5874181859069765  0.9054563917640053  0.8507557891406989  1.0000
  Mo  Mo4       1.0  0.9125804630625963  0.05470138055457599  0.14924571920825258  1.0000
  H   H1        1.0  0.28300080986880977  0.7412491853378854  0.21235988958501653  1.0000
  H   H2        1.0  0.21700055787844974  0.5288902306562733  0.7876396282517033  1.0000
  H   H3        1.0  0.7169972824112423  0.25875257711777516  0.7876418013472275  1.0000
  H   H4        1.0  0.7830017246333298  0.47111154956751733  0.212359075341233  1.0000
  H   H5        1.0  0.0847433126886017  0.36822730712554375  0.2010544073232268  1.0000
  H   H6        1.0  0.4152572303881357  0.1671736016065566  0.7989455310477283  1.0000
  H   H7        1.0  0.9152587240987701  0.631772458637073  0.7989450115469694  1.0000
  H   H8        1.0  0.5847418958832975  0.8328251604107848  0.20105313134450845  1.0000
  H   H9        1.0  0.39927571557680624  0.6833250501734014  0.5515306909080806  1.0000
  H   H10       1.0  0.10072047644631252  0.13179082529676123  0.4484677462985189  1.0000
  H   H11       1.0  0.6007195890495112  0.31667671576755657  0.4484698859075777  1.0000
  H   H12       1.0  0.8992759786691379  0.8682089307120366  0.5515328323488191  1.0000
  H   H13       1.0  0.2500011054140501  0.30820226795972167  0.9999987852186224  1.0000
  H   H14       1.0  0.7500010542355258  0.6917985050334822  2.760129475956074e-07  1.0000
  C   C1        1.0  0.2718716051767274  0.6480591009942885  0.11919600644625919  1.0000
  C   C2        1.0  0.22813374252729093  0.5288627837659662  0.8808017025957752  1.0000
  C   C3        1.0  0.7281318246419488  0.35194066093512805  0.8808043929835208  1.0000
  C   C4        1.0  0.7718712031848939  0.4711379815608296  0.11919931975496208  1.0000
  C   C5        1.0  0.25000069611672165  0.7793279231882266  0.999999476911398  1.0000
  C   C6        1.0  0.7500017468763643  0.22067223893870394  0.999999829351367  1.0000
  C   C7        1.0  0.18134448628212851  0.4548352876222452  0.2716635750235881  1.0000
  C   C8        1.0  0.31865627576844713  0.18317138344684744  0.7283344531769204  1.0000
  C   C9        1.0  0.8186561558828203  0.5451644777924755  0.7283357102895991  1.0000
  C   C10       1.0  0.6813428536852157  0.8168273869327012  0.2716625152101599  1.0000
  C   C11       1.0  0.34147118469677923  0.6166207478286695  0.448251125724326  1.0000
  C   C12       1.0  0.15852614553243433  0.1683659979397234  0.5517462698333233  1.0000
  C   C13       1.0  0.65852678631218  0.3833800115775078  0.5517500758439695  1.0000
  C   C14       1.0  0.8414715861165832  0.8316327637297083  0.4482522590019046  1.0000
  C   C15       1.0  0.250003477402835  0.6489985043175325  2.726398093854514e-07  1.0000
  C   C16       1.0  0.7499997871611866  0.35100286316542656  2.0651278731737334e-06  1.0000
  C   C17       1.0  0.27181370407230804  0.5255664776406165  0.11766210918608526  1.0000
  C   C18       1.0  0.2281914186380476  0.4079043867278644  0.8823362915158269  1.0000
  C   C19       1.0  0.728189728928605  0.4744332926510143  0.8823365962385311  1.0000
  C   C20       1.0  0.7718121324517142  0.5920963782510358  0.11766459727790145  1.0000
  C   C21       1.0  0.2500032281100458  0.40329483804098487  0.9999992815025394  1.0000
  C   C22       1.0  0.75000311381568  0.5967059318148246  1.0274026109582275e-06  1.0000
  N   N1        1.0  0.2130460718293392  0.5085308518259241  0.40293846747206896  1.0000
  N   N2        1.0  0.28695314981781195  0.10559107795213411  0.5970596804342563  1.0000
  N   N3        1.0  0.7869530528509755  0.4914679060103071  0.5970610419227427  1.0000
  N   N4        1.0  0.7130445834223166  0.8944076878984081  0.40293800139839686  1.0000
  N   N5        1.0  0.3883918282191842  0.6329767993706457  0.35252576283783554  1.0000
  N   N6        1.0  0.11160845074771691  0.2804498657564594  0.6474718285997838  1.0000
  N   N7        1.0  0.6116061443808859  0.36702396421664224  0.6474745917278781  1.0000
  N   N8        1.0  0.8883923126883175  0.7195509027077379  0.3525279460773588  1.0000
  N   N9        1.0  0.2847588606232776  0.5294250851641779  0.24077773848271994  1.0000
  N   N10       1.0  0.21524239683090937  0.2886476110921379  0.7592199703475799  1.0000
  N   N11       1.0  0.7152416602705784  0.47057367720106674  0.7592210574665188  1.0000
  N   N12       1.0  0.784759761227548  0.7113531577199625  0.2407799378865648  1.0000
  O   O1        1.0  0.6431630813975034  0.0181936675476777  0.08954804334035772  1.0000
  O   O2        1.0  0.8568348461448567  0.9286448801607253  0.9104515597550745  1.0000
  O   O3        1.0  0.3568359204206075  0.9818040830579663  0.91045182369308  1.0000
  O   O4        1.0  0.1431641540821431  0.0713528662638154  0.08954915428094519  1.0000
  O   O5        1.0  0.43970011573594553  0.1274053813359828  0.3092114569504858  1.0000
  O   O6        1.0  0.0602977535637379  0.8181943381752957  0.6907883283945322  1.0000
  O   O7        1.0  0.5602992514865549  0.8725953825992009  0.6907890311722299  1.0000
  O   O8        1.0  0.9396987047339423  0.1818054261957158  0.3092105562476419  1.0000
  O   O9        1.0  0.35717501285437697  0.8763350431493112  0.09478599990382724  1.0000
  O   O10       1.0  0.142823053958324  0.7815490960296642  0.9052131453775444  1.0000
  O   O11       1.0  0.6428256309016831  0.12366472644651344  0.9052124384067852  1.0000
  O   O12       1.0  0.8571761919930836  0.21845066485604298  0.09478685338121555  1.0000
  O   O13       1.0  0.4542243031480738  0.2491024254194869  0.16319107512810396  1.0000
  O   O14       1.0  0.0457763556279929  0.0859117861282712  0.8368079762551375  1.0000
  O   O15       1.0  0.5457747034433853  0.7508953377294747  0.8368062508976023  1.0000
  O   O16       1.0  0.9542230036389227  0.9140889569013881  0.1631967468804731  1.0000
