data_image0
_chemical_formula_structural       La2H26C24O16
_chemical_formula_sum              "La2 H26 C24 O16"
_cell_length_a       8.629477359172633
_cell_length_b       9.288523541361762
_cell_length_c       9.661428895231255
_cell_angle_alpha    111.47077631556623
_cell_angle_beta     96.17976005556683
_cell_angle_gamma    94.87182913975025

_space_group_name_H-M_alt    "P 1"
_space_group_IT_number       1

loop_
  _space_group_symop_operation_xyz
  'x, y, z'

loop_
  _atom_site_type_symbol
  _atom_site_label
  _atom_site_symmetry_multiplicity
  _atom_site_fract_x
  _atom_site_fract_y
  _atom_site_fract_z
  _atom_site_occupancy
  La  La1       1.0  0.468136649023819  0.7454834684612308  0.02759865431886503  1.0000
  La  La2       1.0  0.531865693249145  0.2545174083132054  0.972404192287847  1.0000
  H   H1        1.0  0.3061463829141644  0.04520124185940941  0.1734867186787454  1.0000
  H   H2        1.0  0.6938533123314696  0.954797322200136  0.8265139906950553  1.0000
  H   H3        1.0  0.3682192109734643  0.9905935147034058  0.3036139262356484  1.0000
  H   H4        1.0  0.6317819791073518  0.009407377026953202  0.6963877698879628  1.0000
  H   H5        1.0  0.4577326443227605  0.6122109890322776  0.2758115060245885  1.0000
  H   H6        1.0  0.5422652752073346  0.3877829436527164  0.724183225108419  1.0000
  H   H7        1.0  0.3159405564964928  0.7067736829700664  0.2939801024462269  1.0000
  H   H8        1.0  0.6840586803710024  0.29322140218006615  0.7060162128256662  1.0000
  H   H9        1.0  0.11073823398049847  0.438641966467344  0.17366214012461967  1.0000
  H   H10       1.0  0.8892656648903381  0.5613612769009251  0.8263365380076378  1.0000
  H   H11       1.0  0.2613532412981812  0.6015112081311214  0.6505935315120509  1.0000
  H   H12       1.0  0.7386432906039031  0.3984897122845296  0.3494076868585622  1.0000
  H   H13       1.0  0.9543880403979655  0.8530342685676757  0.4705732608654714  1.0000
  H   H14       1.0  0.04561452878294149  0.14696781455084823  0.5294248641727534  1.0000
  H   H15       1.0  0.8751843678957341  0.7750740828015665  0.21169953831437024  1.0000
  H   H16       1.0  0.1248182259902535  0.22492801588616376  0.7882965246341485  1.0000
  H   H17       1.0  0.0010848786271112282  0.6667805376180385  0.09090980225189338  1.0000
  H   H18       1.0  0.9989173602632917  0.333219210658342  0.9090874554747614  1.0000
  H   H19       1.0  0.2136105452461692  0.2678794135117002  0.37969405263011413  1.0000
  H   H20       1.0  0.7863836575665528  0.7321215212466045  0.6203069268640106  1.0000
  H   H21       1.0  0.38229093562219424  0.40158039062368545  0.48734546987003563  1.0000
  H   H22       1.0  0.6177065833267861  0.5984193474149748  0.5126564653279004  1.0000
  H   H23       1.0  0.022904498428942974  0.9378536646237873  0.7356029375622909  1.0000
  H   H24       1.0  0.9770967287094905  0.062147250460384405  0.2643956654267541  1.0000
  H   H25       1.0  0.06723472631492909  0.7892450435911301  0.8051169537404305  1.0000
  H   H26       1.0  0.9327592079699869  0.21075359524804324  0.19487800321786608  1.0000
  C   C1        1.0  0.02313595480656263  0.6482639045227573  0.30727458397080204  1.0000
  C   C2        1.0  0.9768642605799016  0.35173817736920654  0.6927253642806404  1.0000
  C   C3        1.0  0.1117091729214579  0.5242469629258579  0.2868283652848547  1.0000
  C   C4        1.0  0.8882933715543756  0.4757551046234594  0.713171821843076  1.0000
  C   C5        1.0  0.1980949687990901  0.5071656650274504  0.4100509008501803  1.0000
  C   C6        1.0  0.8019050690895851  0.49283524165883824  0.5899496447903302  1.0000
  C   C7        1.0  0.1948411675095798  0.6149661132461689  0.5547599904295096  1.0000
  C   C8        1.0  0.8051590231718037  0.38503595307658134  0.4452420199116318  1.0000
  C   C9        1.0  0.1074888067675701  0.739891369346111  0.5779953406447048  1.0000
  C   C10       1.0  0.892511408618894  0.26011071254584545  0.4220046076067375  1.0000
  C   C11       1.0  0.023306920793871217  0.7561808488681551  0.45365304586456995  1.0000
  C   C12       1.0  0.9766946489876103  0.24382240884276743  0.546345393391192  1.0000
  C   C13       1.0  0.9259834647278496  0.6653219092292206  0.1761778628830443  1.0000
  C   C14       1.0  0.07401777476312789  0.33467901363955116  0.8238197090611479  1.0000
  C   C15       1.0  0.7934054463999444  0.5321279567486885  0.09599883842930985  1.0000
  C   C16       1.0  0.2065980974753145  0.4678729362082307  0.9040010344810837  1.0000
  C   C17       1.0  0.2916515171226592  0.3716590955296298  0.38849982440724756  1.0000
  C   C18       1.0  0.7083471787235425  0.6283406431223071  0.6115011991840831  1.0000
  C   C19       1.0  0.3701685045017697  0.33298599430786885  0.2491190681969684  1.0000
  C   C20       1.0  0.6298310132460685  0.6670113945459946  0.7508822385659001  1.0000
  C   C21       1.0  0.10459738372102836  0.8536960120988584  0.7363373111400193  1.0000
  C   C22       1.0  0.8954003374308214  0.14630491671468346  0.26366196457913554  1.0000
  C   C23       1.0  0.26829086270843316  0.9418124614200565  0.8075912886431595  1.0000
  C   C24       1.0  0.7317089606248288  0.05818724670674411  0.1924129475209853  1.0000
  O   O1        1.0  0.6573396284142703  0.56337705738639  0.055927752829234165  1.0000
  O   O2        1.0  0.3426632425274505  0.43661915810164237  0.9440714165028865  1.0000
  O   O3        1.0  0.8161912425713852  0.39144794879772593  0.06651793402166818  1.0000
  O   O4        1.0  0.1838134658485586  0.6085529369878699  0.9334820583269733  1.0000
  O   O5        1.0  0.3213862586851591  0.20678440407456833  0.1354382419486555  1.0000
  O   O6        1.0  0.67861441125482  0.7932129698233722  0.8645642152973139  1.0000
  O   O7        1.0  0.4845856743238884  0.4284267863797239  0.2455399991275087  1.0000
  O   O8        1.0  0.5154150079686346  0.5715705953028164  0.7544614270736075  1.0000
  O   O9        1.0  0.3107795480847315  0.06583216539161901  0.7867419917881548  1.0000
  O   O10       1.0  0.6892182270395112  0.9341698607815588  0.21326699699046964  1.0000
  O   O11       1.0  0.3579918023608358  0.8864393577882835  0.8835496298740536  1.0000
  O   O12       1.0  0.6420040566077104  0.11355688515848071  0.11645088491828662  1.0000
  O   O13       1.0  0.3130948396723383  0.9513684229040109  0.20092665190015416  1.0000
  O   O14       1.0  0.6869073498079104  0.04863129423395661  0.7990747300059197  1.0000
  O   O15       1.0  0.4252392929178441  0.7131700316679073  0.27550575459129323  1.0000
  O   O16       1.0  0.574759613659147  0.28682271864008163  0.7244896933690299  1.0000
