data_image0
_chemical_formula_structural       Ag4H24C24N12O16
_chemical_formula_sum              "Ag4 H24 C24 N12 O16"
_cell_length_a       8.055765530005694
_cell_length_b       7.9814514950224416
_cell_length_c       12.677744154815851
_cell_angle_alpha    94.76185776639694
_cell_angle_beta     89.99987003037269
_cell_angle_gamma    90.00005102505641

_space_group_name_H-M_alt    "P 1"
_space_group_IT_number       1

loop_
  _space_group_symop_operation_xyz
  'x, y, z'

loop_
  _atom_site_type_symbol
  _atom_site_label
  _atom_site_symmetry_multiplicity
  _atom_site_fract_x
  _atom_site_fract_y
  _atom_site_fract_z
  _atom_site_occupancy
  Ag  Ag1       1.0  0.2596443588490303  0.5351369845757361  0.5440722962673519  1.0000
  Ag  Ag2       1.0  0.7596407674310725  0.4648628628565064  0.95592565010368  1.0000
  Ag  Ag3       1.0  0.7403585756974492  0.4648606069254981  0.4559258316407906  1.0000
  Ag  Ag4       1.0  0.24035596038191895  0.5351385003175223  0.04407268810984279  1.0000
  H   H1        1.0  0.1852658290650453  0.7080721232617434  0.3080380095184836  1.0000
  H   H2        1.0  0.6852580619784874  0.2919244300070716  0.1919604474358252  1.0000
  H   H3        1.0  0.8147420708688173  0.2919242110162656  0.6919600482858285  1.0000
  H   H4        1.0  0.3147374244862745  0.7080731614914911  0.8080376804775398  1.0000
  H   H5        1.0  0.1583981254086879  0.20456528955882905  0.17852826507665748  1.0000
  H   H6        1.0  0.6583990281299562  0.7954324806524937  0.3214726649355555  1.0000
  H   H7        1.0  0.8415986023983705  0.7954310237038696  0.8214721579522575  1.0000
  H   H8        1.0  0.34160390641412863  0.20456635406622328  0.6785271098840936  1.0000
  H   H9        1.0  0.1520406515207  0.22679588654636967  0.48458149189494293  1.0000
  H   H10       1.0  0.6520413851729571  0.7732056507791967  0.015419657350136593  1.0000
  H   H11       1.0  0.8479598003289296  0.7732054556176989  0.5154192115327163  1.0000
  H   H12       1.0  0.34795534263722055  0.2267956983872992  0.9845802576745513  1.0000
  H   H13       1.0  0.30142749050347106  0.9961326113584548  0.3018665925699011  1.0000
  H   H14       1.0  0.8014281377284931  0.003867768905195099  0.1981350651043527  1.0000
  H   H15       1.0  0.6985729613461586  0.0038687308056139995  0.6981341108577581  1.0000
  H   H16       1.0  0.1985698314272284  0.9961335732579782  0.8018656383250473  1.0000
  H   H17       1.0  0.28252648496130206  0.9502073213026563  0.43454105201759324  1.0000
  H   H18       1.0  0.7825264044928771  0.049794309630335896  0.06545991390627391  1.0000
  H   H19       1.0  0.7174764495808219  0.0497940138585307  0.5654604398139114  1.0000
  H   H20       1.0  0.21746908197076917  0.9502082967607279  0.9345400712196223  1.0000
  H   H21       1.0  0.7120198593490555  0.10534589116135609  0.3711601027289221  1.0000
  H   H22       1.0  0.212019740208234  0.8946519105129057  0.12884154035550213  1.0000
  H   H23       1.0  0.28798183384623843  0.8946516793281346  0.6288403903968458  1.0000
  H   H24       1.0  0.787976987599677  0.10534691719981029  0.8711590228740889  1.0000
  C   C1        1.0  0.18220462293277248  0.5717751470791654  0.2994421167790335  1.0000
  C   C2        1.0  0.6821981862854116  0.42822643989788395  0.2005558364708548  1.0000
  C   C3        1.0  0.8178007943098818  0.42822496587674413  0.7005553629224508  1.0000
  C   C4        1.0  0.3177985415321061  0.5717799661837119  0.7994412053328475  1.0000
  C   C5        1.0  0.16783852304715197  0.3175232955237419  0.2321070079967171  1.0000
  C   C6        1.0  0.6678395176579812  0.6824744884637184  0.2678931203468693  1.0000
  C   C7        1.0  0.8321594461072833  0.6824742749644132  0.7678934851316654  1.0000
  C   C8        1.0  0.33216341688794415  0.3175256104837699  0.7321059361675282  1.0000
  C   C9        1.0  0.9854960108332019  0.0819725908073394  0.3824955368384195  1.0000
  C   C10       1.0  0.4854959526683372  0.918024156831585  0.1175048635287084  1.0000
  C   C11       1.0  0.014506923710030198  0.9180237294613605  0.6175040977805466  1.0000
  C   C12       1.0  0.5145020164856717  0.08197215643156139  0.8824955594993327  1.0000
  C   C13       1.0  0.1540306550107644  0.17312052561594976  0.40166152880264866  1.0000
  C   C14       1.0  0.6540323813628319  0.8268797559125576  0.0983395475455993  1.0000
  C   C15       1.0  0.8459697968370249  0.8268795523193474  0.5983398929302552  1.0000
  C   C16       1.0  0.3459655877942963  0.17312159325438614  0.9016603674782147  1.0000
  C   C17       1.0  0.2997920769533379  0.05368085730870579  0.38348449574834825  1.0000
  C   C18       1.0  0.799792602056172  0.9463207790066975  0.11651723432395761  1.0000
  C   C19       1.0  0.7002096162432351  0.9463204848558032  0.616516207678437  1.0000
  C   C20       1.0  0.20020412575302518  0.05368182038104409  0.883483539206658  1.0000
  C   C21       1.0  0.4674210770000755  0.13202922931592553  0.4083206036579199  1.0000
  C   C22       1.0  0.9674216218625773  0.8679712630241382  0.0916816092147599  1.0000
  C   C23       1.0  0.5325793748505346  0.8679708626268976  0.5916792412638117  1.0000
  C   C24       1.0  0.0325763472921565  0.13203132936028078  0.9083199527205678  1.0000
  N   N1        1.0  0.17582142884083396  0.479279677925085  0.3820919643775227  1.0000
  N   N2        1.0  0.6758166096478461  0.5207193690120633  0.1179082228551707  1.0000
  N   N3        1.0  0.824181505703251  0.5207191567936249  0.6179078104421266  1.0000
  N   N4        1.0  0.3241776354694039  0.47928072993230586  0.8820908336653375  1.0000
  N   N5        1.0  0.1785030519762643  0.4761483748646498  0.20544080421963432  1.0000
  N   N6        1.0  0.678500088048075  0.5238481735544197  0.2945576622324424  1.0000
  N   N7        1.0  0.8214986412209981  0.5238466951823567  0.7945579718942782  1.0000
  N   N8        1.0  0.3215003638059101  0.4761494249496963  0.7054396772718547  1.0000
  N   N9        1.0  0.1671344906378138  0.3171027181441771  0.3377877571669856  1.0000
  N   N10       1.0  0.6671333799283871  0.6828963225624773  0.1622124422675242  1.0000
  N   N11       1.0  0.8328647198654124  0.6828961165731967  0.6622120176552784  1.0000
  N   N12       1.0  0.33286334788319744  0.3171050336077882  0.8377866843515775  1.0000
  O   O1        1.0  0.8615426156949083  0.18223848677912  0.3715499297658694  1.0000
  O   O2        1.0  0.36154367173416807  0.8177606863887305  0.1284507849454073  1.0000
  O   O3        1.0  0.1384565948078915  0.8177590907132455  0.6284497749560601  1.0000
  O   O4        1.0  0.6384542974225338  0.1822394055532044  0.8715490599780722  1.0000
  O   O5        1.0  0.9788737987478768  0.9262650160111717  0.3808113706412469  1.0000
  O   O6        1.0  0.47887299275664214  0.07373548454433629  0.1191908261422583  1.0000
  O   O7        1.0  0.021129135791426296  0.0737363051424822  0.6191916980014227  1.0000
  O   O8        1.0  0.5211224937057252  0.9262633501717019  0.8808089486826205  1.0000
  O   O9        1.0  0.5893995957937789  0.04411015542532939  0.3625105700308993  1.0000
  O   O10       1.0  0.08940198229542769  0.9558888225134722  0.1374905270178246  1.0000
  O   O11       1.0  0.41060085605499097  0.9558886722887222  0.6374899931960768  1.0000
  O   O12       1.0  0.9105972282082319  0.044111269428903185  0.8625093179047809  1.0000
  O   O13       1.0  0.48651791222805224  0.26363750063499936  0.4666962767488911  1.0000
  O   O14       1.0  0.9865173083586497  0.7363617551830683  0.03330505078919539  1.0000
  O   O15       1.0  0.5134837809713487  0.7363638555370499  0.5333028498667218  1.0000
  O   O16       1.0  0.013478178101330198  0.2636383227504382  0.9666963709471972  1.0000
