data_image0
_chemical_formula_structural       Cu4H44C56N20O8
_chemical_formula_sum              "Cu4 H44 C56 N20 O8"
_cell_length_a       8.546535314
_cell_length_b       12.724940083621416
_cell_length_c       13.133
_cell_angle_alpha    102.08799677817868
_cell_angle_beta     90.0
_cell_angle_gamma    90.0

_space_group_name_H-M_alt    "P 1"
_space_group_IT_number       1

loop_
  _space_group_symop_operation_xyz
  'x, y, z'

loop_
  _atom_site_type_symbol
  _atom_site_label
  _atom_site_symmetry_multiplicity
  _atom_site_fract_x
  _atom_site_fract_y
  _atom_site_fract_z
  _atom_site_occupancy
  Cu  Cu1       1.0  0.9916310748891632  0.6508491211265053  0.7558827205092626  1.0000
  Cu  Cu2       1.0  0.49162963067819726  0.8491551020013546  0.7441170323038051  1.0000
  Cu  Cu3       1.0  0.0083811740510384  0.3491547658629557  0.24412393128089602  1.0000
  Cu  Cu4       1.0  0.5083791080676505  0.1508447665972668  0.2558842354830375  1.0000
  H   H1        1.0  0.794977116501272  0.6097080319709107  0.5560676113843995  1.0000
  H   H2        1.0  0.2949826926790138  0.8903002095477888  0.9439390483132684  1.0000
  H   H3        1.0  0.2050246018558752  0.3903014807657357  0.4439500806373644  1.0000
  H   H4        1.0  0.7050108352246411  0.1096964443381552  0.05605852142344501  1.0000
  H   H5        1.0  0.7247299370370328  0.4424738564707127  0.42555578739240474  1.0000
  H   H6        1.0  0.2247401934739131  0.05753692748388059  0.074443240768268  1.0000
  H   H7        1.0  0.2752671010609689  0.5575396746567804  0.5744551055823378  1.0000
  H   H8        1.0  0.7752509943001655  0.9424629411147407  0.9255488897308268  1.0000
  H   H9        1.0  0.8031172572067149  0.2626797985434592  0.4643648127254423  1.0000
  H   H10       1.0  0.3031181531253182  0.237328574376626  0.0356268732537615  1.0000
  H   H11       1.0  0.1968832910856477  0.7373297141931942  0.5356384119240545  1.0000
  H   H12       1.0  0.6968882454909604  0.7626688831874802  0.9643693366735488  1.0000
  H   H13       1.0  0.9409228072605131  0.2578874656209749  0.6289486474510823  1.0000
  H   H14       1.0  0.4409260433086857  0.242112870517424  0.8710406463685985  1.0000
  H   H15       1.0  0.0590859314853347  0.7421164213684932  0.37104962849197415  1.0000
  H   H16       1.0  0.5590908858906545  0.7578805686558424  0.12895627108056118  1.0000
  H   H17       1.0  0.9547541430775367  0.7158610592613996  0.9323421979681257  1.0000
  H   H18       1.0  0.4547585491905012  0.7841415565101215  0.5676518986166457  1.0000
  H   H19       1.0  0.0452417249556802  0.2841524718660935  0.0676580348375779  1.0000
  H   H20       1.0  0.5452630602679776  0.2158342017434265  0.4323574215045483  1.0000
  H   H21       1.0  0.9898233247971788  0.8767759133177861  0.07205606395821453  1.0000
  H   H22       1.0  0.48982773091014314  0.6232299171664124  0.4279310705076468  1.0000
  H   H23       1.0  0.0102029649204383  0.1232464582695698  0.927929972384696  1.0000
  H   H24       1.0  0.5102008989370432  0.3767506631561446  0.5720708521977684  1.0000
  H   H25       1.0  0.1822832227052302  0.8735097652384666  0.21647367179493668  1.0000
  H   H26       1.0  0.6822905172401192  0.6264888321422077  0.283516563667817  1.0000
  H   H27       1.0  0.8177442370771644  0.126514213705228  0.7835119292511052  1.0000
  H   H28       1.0  0.3177264119592209  0.37349335553668783  0.716481877978147  1.0000
  H   H29       1.0  0.333830013587658  0.7099628651782054  0.21674047924929593  1.0000
  H   H30       1.0  0.8338466686408169  0.7900357322024689  0.2832474718915207  1.0000
  H   H31       1.0  0.666184575482113  0.2900587027309811  0.7832514855468915  1.0000
  H   H32       1.0  0.1661655802993849  0.2099504738672735  0.7167495007919484  1.0000
  H   H33       1.0  0.5493489264952913  0.46460554589203434  0.2607584080381855  1.0000
  H   H34       1.0  0.0493907746813562  0.0353859497865017  0.23924279792235129  1.0000
  H   H35       1.0  0.4505790777804322  0.5353927153502482  0.7392707069087692  1.0000
  H   H36       1.0  0.9505945627688064  0.9646107040994423  0.7607479188485513  1.0000
  H   H37       1.0  0.5792370613493745  0.4209706433776502  0.12290359309738359  1.0000
  H   H38       1.0  0.0792613585636701  0.0790393368987736  0.377094510550755  1.0000
  H   H39       1.0  0.420742425776865  0.5790565502787217  0.8771260623530067  1.0000
  H   H40       1.0  0.9207450400526156  0.9209492802054768  0.6228953369419088  1.0000
  H   H41       1.0  0.4173071155697059  0.3702006860777942  0.1850980182474942  1.0000
  H   H42       1.0  0.9173319610763642  0.1297883985662338  0.31488442392188887  1.0000
  H   H43       1.0  0.5826524804551951  0.6297999861989965  0.8148889452389695  1.0000
  H   H44       1.0  0.0826615668272908  0.8702026295725247  0.6851211415993602  1.0000
  C   C1        1.0  0.8257416298789053  0.5300362003530381  0.5682622611641008  1.0000
  C   C2        1.0  0.3257495461862163  0.969971237487492  0.9317366210552221  1.0000
  C   C3        1.0  0.1742647687373733  0.469974919739947  0.43174890403562216  1.0000
  C   C4        1.0  0.6742521721709238  0.030023809042113197  0.0682583382157773  1.0000
  C   C5        1.0  0.786448514287386  0.43726039618761087  0.4967990136885446  1.0000
  C   C6        1.0  0.2864540904651349  0.0627463693761356  0.003199960553338598  1.0000
  C   C7        1.0  0.2135532040697541  0.5627467055145274  0.503207528948515  1.0000
  C   C8        1.0  0.7135417775680892  0.9372526955443163  0.9967927683145135  1.0000
  C   C9        1.0  0.8307647179985693  0.3377714682754984  0.5181318541016324  1.0000
  C   C10       1.0  0.3307702941763111  0.16223449361008588  0.9818608655431973  1.0000
  C   C11       1.0  0.1692405105529318  0.6622364371048164  0.48186876008215046  1.0000
  C   C12       1.0  0.6692361044399675  0.83775974924135  0.018131646333976896  1.0000
  C   C13       1.0  0.9094316836517322  0.3339893588115999  0.6093106800887753  1.0000
  C   C14       1.0  0.4094360897646894  0.1660093699704532  0.8906836176716482  1.0000
  C   C15       1.0  0.0905805652884695  0.6660121171433602  0.3906931981637811  1.0000
  C   C16       1.0  0.5905749891107277  0.8339808544901359  0.1093134089306034  1.0000
  C   C17       1.0  0.9478987335054256  0.4311170802628297  0.6785106890879149  1.0000
  C   C18       1.0  0.4479066498127366  0.0688824521973928  0.8214814874224601  1.0000
  C   C19       1.0  0.05211702562912991  0.5688876104048006  0.32149231857090393  1.0000
  C   C20       1.0  0.5521032589978958  0.9311093796195351  0.1785128195609857  1.0000
  C   C21       1.0  0.1319177840584302  0.6218749157732688  0.9896846091852253  1.0000
  C   C22       1.0  0.6319215683989654  0.8781260926419137  0.5103083998151234  1.0000
  C   C23       1.0  0.868068723456517  0.3781345969633776  0.010323184108145294  1.0000
  C   C24       1.0  0.3680719595046895  0.12186172078417458  0.4896881375714699  1.0000
  C   C25       1.0  0.0437194706711068  0.7160812670797441  0.9920076822237859  1.0000
  C   C26       1.0  0.5437244250764266  0.7839253670826238  0.507984183957845  1.0000
  C   C27       1.0  0.9562799075564642  0.2839362824385958  0.007989558738131586  1.0000
  C   C28       1.0  0.45629250412291367  0.2160576242744412  0.49201746652259  1.0000
  C   C29       1.0  0.06188355638496291  0.8059340937440709  0.0717920228831943  1.0000
  C   C30       1.0  0.5618885107902827  0.694070129383789  0.4281985926421186  1.0000
  C   C31       1.0  0.9381403932030851  0.1940882778432851  0.9281993435442287  1.0000
  C   C32       1.0  0.438138948992119  0.305910450938768  0.5718033300632968  1.0000
  C   C33       1.0  0.1675450866802564  0.804350044072727  0.15263713526185538  1.0000
  C   C34       1.0  0.6675617417334152  0.6956525716987939  0.3473554384416174  1.0000
  C   C35       1.0  0.8324624820008069  0.195665898089274  0.8473567337936955  1.0000
  C   C36       1.0  0.3324505072067865  0.3043344380491178  0.6526409358730874  1.0000
  C   C37       1.0  0.253496875681428  0.7117060431270303  0.15286133362414486  1.0000
  C   C38       1.0  0.7535076804106708  0.7882933579318134  0.3471321106730727  1.0000
  C   C39       1.0  0.7465153732587737  0.2883090953568015  0.8471331338001705  1.0000
  C   C40       1.0  0.2465022283999687  0.2116936518161054  0.6528680708448604  1.0000
  C   C41       1.0  0.23775248394181858  0.6199372477075187  0.07316032278491488  1.0000
  C   C42       1.0  0.7377621186062768  0.8800645643858331  0.4268328492873222  1.0000
  C   C43       1.0  0.7622422140266139  0.3800738723854735  0.9268394208051304  1.0000
  C   C44       1.0  0.2622325793621556  0.119925660074756  0.5731664616368731  1.0000
  C   C45       1.0  0.3266879381433512  0.5211475198025397  0.07901255801240128  1.0000
  C   C46       1.0  0.8266905524191017  0.9788599180379975  0.420981755563048  1.0000
  C   C47       1.0  0.6732880387885345  0.4788627966122831  0.9209976826747948  1.0000
  C   C48       1.0  0.1732807442536455  0.0211351284916077  0.5790040664201968  1.0000
  C   C49       1.0  0.49195490868827824  0.4401721221943475  0.1850818965403676  1.0000
  C   C50       1.0  0.9919832643892833  0.0598217845186966  0.3149152299919606  1.0000
  C   C51       1.0  0.5080035172718382  0.5598349795077979  0.814935306265731  1.0000
  C   C52       1.0  0.0080114335791563  0.9401668325855539  0.6850807090258755  1.0000
  C   C53       1.0  0.8205301613289535  0.7490087653468933  0.7533984109262803  1.0000
  C   C54       1.0  0.3205404177658338  0.7509954577809664  0.7465899202771027  1.0000
  C   C55       1.0  0.1794657067042706  0.2509919069298974  0.2466045428137491  1.0000
  C   C56       1.0  0.6794601305265289  0.24899637403596128  0.253396010859241  1.0000
  N   N1        1.0  0.0498693311781935  0.5242272145466202  0.8277886715980997  1.0000
  N   N2        1.0  0.5498777957778671  0.9757641497305372  0.67220847206476  1.0000
  N   N3        1.0  0.9501300470493774  0.475770243017493  0.1722212442608253  1.0000
  N   N4        1.0  0.4501286028384186  0.0242228600173746  0.3277924708938187  1.0000
  N   N5        1.0  0.025915764910863  0.42873899656039777  0.7685535534178953  1.0000
  N   N6        1.0  0.5259183791866064  0.0712541064744769  0.7314388413986705  1.0000
  N   N7        1.0  0.9740941438997694  0.5712560499692074  0.23144902025956068  1.0000
  N   N8        1.0  0.4740891894944568  0.9287369216642815  0.2685560639535325  1.0000
  N   N9        1.0  0.1098971648150169  0.5277143741224464  0.9169063524503827  1.0000
  N   N10       1.0  0.6099079695442526  0.9722810085455577  0.5830938908938563  1.0000
  N   N11       1.0  0.8900858325055765  0.47228710183251366  0.08311047029314979  1.0000
  N   N12       1.0  0.3900867284241798  0.0277019828115144  0.4169047138239961  1.0000
  N   N13       1.0  0.9065158822088719  0.5271710876801166  0.6555922781934811  1.0000
  N   N14       1.0  0.4065214583866137  0.9728291170568965  0.8444058978195058  1.0000
  N   N15       1.0  0.0934940266017605  0.4728327993093515  0.3444174193592602  1.0000
  N   N16       1.0  0.5934790899057418  0.027166733150878  0.155591508845319  1.0000
  N   N17       1.0  0.6993465516030994  0.7893132255284314  0.7435090024506151  1.0000
  N   N18       1.0  0.1993486175864874  0.7106853718522501  0.7564842787747138  1.0000
  N   N19       1.0  0.30066803746667153  0.21067539157582618  0.256490743770442  1.0000
  N   N20       1.0  0.8006729918719913  0.2893088709991858  0.2435074716618146  1.0000
  O   O1        1.0  0.335292594568223  0.438842838502616  0.010964616055467497  1.0000
  O   O2        1.0  0.8352565967060812  0.0611743748773321  0.48900906625770796  1.0000
  O   O3        1.0  0.6646904027523703  0.5611666742340304  0.9890439386785487  1.0000
  O   O4        1.0  0.1646795980231275  0.9388327268248133  0.5109670187535258  1.0000
  O   O5        1.0  0.3989897513690863  0.531193496916579  0.1727824726363281  1.0000
  O   O6        1.0  0.8990274675883684  0.9687978673605713  0.32722000111105837  1.0000
  O   O7        1.0  0.600972184785384  0.4688136047855664  0.827233968729132  1.0000
  O   O8        1.0  0.10097893102791032  0.031189142387340496  0.6727771346442921  1.0000
