data_image0
_chemical_formula_structural       Zn4H58C51N20O
_chemical_formula_sum              "Zn4 H58 C51 N20 O1"
_cell_length_a       15.151649210355393
_cell_length_b       14.860322209881446
_cell_length_c       14.880520180877284
_cell_angle_alpha    69.14775232207747
_cell_angle_beta     67.03535702692278
_cell_angle_gamma    103.60741935880998

_space_group_name_H-M_alt    "P 1"
_space_group_IT_number       1

loop_
  _space_group_symop_operation_xyz
  'x, y, z'

loop_
  _atom_site_type_symbol
  _atom_site_label
  _atom_site_symmetry_multiplicity
  _atom_site_fract_x
  _atom_site_fract_y
  _atom_site_fract_z
  _atom_site_occupancy
  Zn  Zn1       1.0  0.13035014657150173  0.48826903394663657  0.8501974978482635  1.0000
  Zn  Zn2       1.0  0.858751237867054  0.4989024021075891  0.13029850053855796  1.0000
  Zn  Zn3       1.0  0.0023666101403776265  0.36645061944872026  0.12451291271305814  1.0000
  Zn  Zn4       1.0  0.008668258656826055  0.6398637295744435  0.8563943384664867  1.0000
  H   H1        1.0  0.20118732993883998  0.29925255940899836  0.8148866277165537  1.0000
  H   H2        1.0  0.7640331113085139  0.4486949613334872  0.39879778280616307  1.0000
  H   H3        1.0  0.15545924183810908  0.5151859557437034  0.16398075941157933  1.0000
  H   H4        1.0  0.20377624872499214  0.8238636274127129  0.8276735465878886  1.0000
  H   H5        1.0  0.34912491911239846  0.6458880737849809  0.8039475971451038  1.0000
  H   H6        1.0  0.19505332120927224  0.8607878907982708  0.6155172317491234  1.0000
  H   H7        1.0  0.7519051418767759  0.44644328959079616  0.7239705166935906  1.0000
  H   H8        1.0  0.6998270558047325  0.30678128925306664  0.7848562768130661  1.0000
  H   H9        1.0  0.6939517794461451  0.33418527147269106  0.622508428560053  1.0000
  H   H10       1.0  0.6309179737519628  0.5125861179095637  0.15096925134025707  1.0000
  H   H11       1.0  0.7792737380081931  0.4724716034031644  0.5488153867951411  1.0000
  H   H12       1.0  0.951423434906154  0.5558443620623023  0.5812415341783675  1.0000
  H   H13       1.0  0.9730226065971691  0.5404874041114026  0.4230535718739502  1.0000
  H   H14       1.0  0.9671172949712101  0.30142852859651  0.6695112482431255  1.0000
  H   H15       1.0  0.7699158161286094  0.20815315170975873  0.6652789405253969  1.0000
  H   H16       1.0  0.9010564806218824  0.2358288350841562  0.5743997061660194  1.0000
  H   H17       1.0  0.0396959668611033  0.49757571991413835  0.5820970040939386  1.0000
  H   H18       1.0  0.03548370434948122  0.4562443540044683  0.44572428134793535  1.0000
  H   H19       1.0  0.8348854195661417  0.1469964316268246  0.16989169366201637  1.0000
  H   H20       1.0  0.4261864243142386  0.6834326023646113  0.002233548833771642  1.0000
  H   H21       1.0  0.5131440056261455  0.4713161755750619  0.0693146515723058  1.0000
  H   H22       1.0  0.626690800655659  0.7085529784334168  0.8869707790179362  1.0000
  H   H23       1.0  0.5922990985627337  0.04633150146862862  0.22567945850774143  1.0000
  H   H24       1.0  0.3564315802729254  0.005003451661813965  0.4708920051920202  1.0000
  H   H25       1.0  0.48383154867086414  0.877072591926691  0.42448495548926235  1.0000
  H   H26       1.0  0.08171378149898363  0.8376141975627007  0.1767627880150825  1.0000
  H   H27       1.0  0.2132359280709721  0.9608548388412996  0.91762492976391  1.0000
  H   H28       1.0  0.12645413914622594  0.012410254587464897  0.16305818650394596  1.0000
  H   H29       1.0  0.8393274781817015  0.5337958427826308  0.7997207866794865  1.0000
  H   H30       1.0  0.1671004133617516  0.09035657200255537  0.9234205829417376  1.0000
  H   H31       1.0  0.6654951321858178  0.3432574889578817  0.1435163745679162  1.0000
  H   H32       1.0  0.9867803350396117  0.3164334639461615  0.8205121170286275  1.0000
  H   H33       1.0  0.852089703242008  0.7440239702464665  0.796764822529745  1.0000
  H   H34       1.0  0.06954996428741823  0.1614982992692191  0.1742679717907478  1.0000
  H   H35       1.0  0.3531199183995142  0.6559303491640377  0.5874344516457056  1.0000
  H   H36       1.0  0.8175429869919315  0.6565622864074712  0.321765805790882  1.0000
  H   H37       1.0  0.8040751636657149  0.5966427920536859  0.24061053725191783  1.0000
  H   H38       1.0  0.8946395542493307  0.8379920676839346  0.15387572928002385  1.0000
  H   H39       1.0  0.8855165984545083  0.777899832193519  0.07239180687033561  1.0000
  H   H40       1.0  0.6863267254864668  0.680458412876753  0.2001566608400226  1.0000
  H   H41       1.0  0.7298656319882967  0.8203399078778731  0.14274502443203813  1.0000
  H   H42       1.0  0.6924728305155625  0.7392207724541109  0.28430922299434513  1.0000
  H   H43       1.0  0.002321000088400575  0.25117414938976873  0.321789765000581  1.0000
  H   H44       1.0  0.12729294793045648  0.2764730111538824  0.3679942164998238  1.0000
  H   H45       1.0  0.06197428803858435  0.319396231485129  0.46035220469977384  1.0000
  H   H46       1.0  0.13708665403883916  0.4085129301475518  0.31191567792480157  1.0000
  H   H47       1.0  0.7445971520827613  0.17950141536552158  0.8536917763334698  1.0000
  H   H48       1.0  0.7813744520831705  0.02906139855193133  0.9061645872877263  1.0000
  H   H49       1.0  0.9122305165191023  0.10705458679529299  0.7856629967379688  1.0000
  H   H50       1.0  0.8017188358801947  0.06851561128266324  0.7688211786101461  1.0000
  H   H51       1.0  0.3103364979833359  0.4451030662554274  0.9987324601258649  1.0000
  H   H52       1.0  0.37762015195207993  0.34195982133125824  0.9451478267650374  1.0000
  H   H53       1.0  0.4456720236753641  0.339090251228484  0.018906054558037434  1.0000
  H   H54       1.0  0.5049590182765372  0.44861049282794596  0.8805374922837643  1.0000
  H   H55       1.0  0.6039245880122408  0.23286465578442514  0.3258496288570071  1.0000
  H   H56       1.0  0.517580799578937  0.20703571792957118  0.5055556132483545  1.0000
  H   H57       1.0  0.541289896482411  0.09112844405012768  0.5261369461078047  1.0000
  H   H58       1.0  0.41355286663949176  0.08418779052923489  0.5545299538415948  1.0000
  C   C1        1.0  0.16640316567646352  0.28090967122875543  0.9020558640414081  1.0000
  C   C2        1.0  0.7027921129977059  0.6319974462589356  0.9679859841254908  1.0000
  C   C3        1.0  0.7065514209783431  0.20303795992047916  0.18139258571007844  1.0000
  C   C4        1.0  0.8932555114983673  0.407220487708024  0.78554151286896  1.0000
  C   C5        1.0  0.2990072882256031  0.6914992928835983  0.6103313995629803  1.0000
  C   C6        1.0  0.8182966683026649  0.4136417337355878  0.37499687999502396  1.0000
  C   C7        1.0  0.1876964515386775  0.5401879001530502  0.07539347304330578  1.0000
  C   C8        1.0  0.13744098170308652  0.7737920914820292  0.9144417875447031  1.0000
  C   C9        1.0  0.01789454178510415  0.7000666356996844  0.09528565676443881  1.0000
  C   C10       1.0  0.2863005375747251  0.6064861374842394  0.8918976866299386  1.0000
  C   C11       1.0  0.21890938012029446  0.7961717019990857  0.6244998326198115  1.0000
  C   C12       1.0  0.6994129584454711  0.5663319112764  0.065912926209471  1.0000
  C   C13       1.0  0.9277526981892735  0.33697328135580296  0.3623538831558049  1.0000
  C   C14       1.0  0.31628984225852724  0.7987292279520374  0.5562342360890538  1.0000
  C   C15       1.0  0.8650163001842445  0.3691246459045913  0.43232533080830393  1.0000
  C   C16       1.0  0.2941555062111619  0.5987825844752378  0.9853414100730545  1.0000
  C   C17       1.0  0.1138482606126487  0.7920041429440657  0.006220364106873295  1.0000
  C   C18       1.0  0.7665396544889019  0.3820625145391644  0.7103230545275211  1.0000
  C   C19       1.0  0.7694493761284705  0.3922901302106608  0.6011600470080083  1.0000
  C   C20       1.0  0.963839036915452  0.48478525142564866  0.5852269580232914  1.0000
  C   C21       1.0  0.8825132483710476  0.2852991386801305  0.7013166367358608  1.0000
  C   C22       1.0  0.8726595691497537  0.38672559601607753  0.7018287545950769  1.0000
  C   C23       1.0  0.8083933515476432  0.20989881881583014  0.15673097135223193  1.0000
  C   C24       1.0  0.8626430604247234  0.37291880665614474  0.5327560599270953  1.0000
  C   C25       1.0  0.9661602988213432  0.4691741009038565  0.48813579933567997  1.0000
  C   C26       1.0  0.853262170273439  0.2686442636585936  0.6175893224436282  1.0000
  C   C27       1.0  0.42734735738442003  0.5408531044643466  0.0011695064454428537  1.0000
  C   C28       1.0  0.39036977851623794  0.6174468683515427  0.9926185352609164  1.0000
  C   C29       1.0  0.520345455986778  0.5471405248100608  0.011515515259581728  1.0000
  C   C30       1.0  0.6142214629601102  0.6343826659547602  0.9526963318479884  1.0000
  C   C31       1.0  0.5248673211499266  0.09080451655279376  0.3473340939026456  1.0000
  C   C32       1.0  0.6047611683543649  0.10744763779565143  0.24960217025901701  1.0000
  C   C33       1.0  0.42588460872311645  0.9927354623252641  0.4277805139349691  1.0000
  C   C34       1.0  0.8841136246050642  0.48794359299655105  0.8114321160574387  1.0000
  C   C35       1.0  0.41435145799862055  0.8912390552587438  0.4624827181518965  1.0000
  C   C36       1.0  0.12873067300111551  0.9075164541561591  0.09211693278373877  1.0000
  C   C37       1.0  0.15881836689622025  0.8911482692478784  0.0024648481147478796  1.0000
  C   C38       1.0  0.1410650792757977  0.009415315291263878  0.08630291066265978  1.0000
  C   C39       1.0  0.1556736351390383  0.09551266976852431  0.9983967494274424  1.0000
  C   C40       1.0  0.7217266262285662  0.3098167782367085  0.14516603776853998  1.0000
  C   C41       1.0  0.9603118589148778  0.37807198708425444  0.8213494605134882  1.0000
  C   C42       1.0  0.8120770657190022  0.6858142515438742  0.8858567462756498  1.0000
  C   C43       1.0  0.10048010771583904  0.2109380387857982  0.08499690971282793  1.0000
  C   C44       1.0  0.14560558240723503  0.1903857070381746  0.9961896432807861  1.0000
  C   C45       1.0  0.8512495377935921  0.6693669922366892  0.2356787486081302  1.0000
  C   C46       1.0  0.8474991624711948  0.7661751067516248  0.15815875153549527  1.0000
  C   C47       1.0  0.7326715868121384  0.7505701237521548  0.19884608786608018  1.0000
  C   C48       1.0  0.08312683137830142  0.3244391060867713  0.3786911015541249  1.0000
  C   C49       1.0  0.8288894567230187  0.09481495822831222  0.8182905759112558  1.0000
  C   C50       1.0  0.42884166349421093  0.39203109258190244  0.9608883205955507  1.0000
  C   C51       1.0  0.49947743076465667  0.13533474391630307  0.4974646975801491  1.0000
  N   N1        1.0  0.13650864207971142  0.3489032689731603  0.9322277025469531  1.0000
  N   N2        1.0  0.8484807024845651  0.4091155158270822  0.27920731987484243  1.0000
  N   N3        1.0  0.12274568848017971  0.512917877557001  0.03847270577831098  1.0000
  N   N4        1.0  0.06130582768533122  0.6812621295552505  0.9463399231374223  1.0000
  N   N5        1.0  0.9880169973395427  0.63490993709015  0.05856298056652761  1.0000
  N   N6        1.0  0.18371711103405636  0.5543601890537744  0.9254055328420276  1.0000
  N   N7        1.0  0.15084159362299238  0.6966683436100425  0.7112967017804195  1.0000
  N   N8        1.0  0.9176695397720921  0.3623389898723063  0.27117100171104597  1.0000
  N   N9        1.0  0.7980850931538586  0.5795622931308843  0.0432986397865702  1.0000
  N   N10       1.0  0.8762046805193079  0.3118601861332023  0.11331865230771848  1.0000
  N   N11       1.0  0.9434042476483242  0.5063676176709604  0.8568270439822427  1.0000
  N   N12       1.0  0.8232566432998285  0.37354695400473764  0.10621559163575969  1.0000
  N   N13       1.0  0.990641021769804  0.4390588531080866  0.8623844787245856  1.0000
  N   N14       1.0  0.8684980967888977  0.6533951464240031  0.9306638565582264  1.0000
  N   N15       1.0  0.09478157479381379  0.30501779926002837  0.04652285329137836  1.0000
  N   N16       1.0  0.20037175577109428  0.630932093782789  0.7027093968004152  1.0000
  N   N17       1.0  0.9874330802296782  0.2795203432460129  0.37647901065675166  1.0000
  N   N18       1.0  0.822305018699751  0.19216981135577527  0.8148358918997972  1.0000
  N   N19       1.0  0.37286309545856267  0.4458689911134712  0.009121242692870474  1.0000
  N   N20       1.0  0.530931544329036  0.16882838530832336  0.38015933264863117  1.0000
  O   O1        1.0  0.9584283467539693  0.6798938495335846  0.20222551499553984  1.0000
