data_image0
_chemical_formula_structural       Ba2ZnH14C6O16
_chemical_formula_sum              "Ba2 Zn1 H14 C6 O16"
_cell_length_a       6.888978669188283
_cell_length_b       7.191078124962411
_cell_length_c       8.959936626092716
_cell_angle_alpha    82.21129114097589
_cell_angle_beta     71.35206165518001
_cell_angle_gamma    79.93690108966987

_space_group_name_H-M_alt    "P 1"
_space_group_IT_number       1

loop_
  _space_group_symop_operation_xyz
  'x, y, z'

loop_
  _atom_site_type_symbol
  _atom_site_label
  _atom_site_symmetry_multiplicity
  _atom_site_fract_x
  _atom_site_fract_y
  _atom_site_fract_z
  _atom_site_occupancy
  Ba  Ba1       1.0  0.09268579514307619  0.7330167107485648  0.35824310392674624  1.0000
  Ba  Ba2       1.0  0.9073137689189037  0.266983284283448  0.6417582096237809  1.0000
  Zn  Zn1       1.0  0.9999986049424121  0.9999986040150047  5.805670751970378e-07  1.0000
  H   H1        1.0  0.592213864150011  0.8866670522956637  0.07277745135853314  1.0000
  H   H2        1.0  0.40778703320071935  0.1133343470060169  0.927224496550437  1.0000
  H   H3        1.0  0.03135403805713819  0.36652095909983723  0.0921317861903788  1.0000
  H   H4        1.0  0.968647265639582  0.6334776088680627  0.9078692480543467  1.0000
  H   H5        1.0  0.47335616512058454  0.384905669777062  0.1148781521210012  1.0000
  H   H6        1.0  0.5266464416771439  0.6150943205732559  0.8851179415910054  1.0000
  H   H7        1.0  0.3489944939746365  0.0513028917171923  0.424755496802085  1.0000
  H   H8        1.0  0.6510046516662413  0.9486999418937  0.575244500456229  1.0000
  H   H9        1.0  0.3024173484833951  0.9267370576322803  0.5901989461262502  1.0000
  H   H10       1.0  0.6975820033492609  0.07326435850044528  0.4098011517890542  1.0000
  H   H11       1.0  0.39128067532636374  0.34813975387273627  0.42027242856708114  1.0000
  H   H12       1.0  0.6087202099492685  0.6518616526740503  0.5797272893854312  1.0000
  H   H13       1.0  0.3569989919150131  0.4026579205080336  0.5926730373671206  1.0000
  H   H14       1.0  0.6430018933606121  0.5973434860387457  0.4073266805853919  1.0000
  C   C1        1.0  0.6498205339637052  0.7931232636562909  0.16323540831918848  1.0000
  C   C2        1.0  0.3501805695788036  0.20687671816722994  0.8367666402467719  1.0000
  C   C3        1.0  0.059482352831608375  0.2735940037575375  0.19494596121428032  1.0000
  C   C4        1.0  0.9405158779416067  0.7264045870047934  0.8050547179778037  1.0000
  C   C5        1.0  0.5916967569729363  0.26714856073557053  0.13615259212966893  1.0000
  C   C6        1.0  0.40830412226514295  0.7328528494337615  0.8638460108446112  1.0000
  O   O1        1.0  0.8328973653173788  0.8043242079172827  0.16357661305525534  1.0000
  O   O2        1.0  0.1671039383793484  0.19567436005061004  0.83642442118947  1.0000
  O   O3        1.0  0.5323358210286244  0.6838708050351201  0.25659007649710464  1.0000
  O   O4        1.0  0.4676606701098364  0.31612921279132417  0.743410882000788  1.0000
  O   O5        1.0  0.0716309022248183  0.3504741622342279  0.308791139987818  1.0000
  O   O6        1.0  0.9283642676999833  0.6495244440774426  0.6912114141080963  1.0000
  O   O7        1.0  0.0783520534975253  0.09466981287691567  0.1859361643877548  1.0000
  O   O8        1.0  0.921647710718666  0.9053287682994692  0.8140641348415373  1.0000
  O   O9        1.0  0.73925898020115  0.21807615576130954  0.014653141844874502  1.0000
  O   O10       1.0  0.26074189299937695  0.7819252580305756  0.9853443461511732  1.0000
  O   O11       1.0  0.564797185900282  0.19671064390867338  0.2779771410527658  1.0000
  O   O12       1.0  0.4352054269349991  0.8032893428190987  0.7220200676374732  1.0000
  O   O13       1.0  0.2439881114540582  0.983344212199469  0.5036119077165466  1.0000
  O   O14       1.0  0.7560145194938739  0.016655763660658397  0.49638864590838244  1.0000
  O   O15       1.0  0.29099685569352113  0.4199077546679958  0.506643358479181  1.0000
  O   O16       1.0  0.7090042357738751  0.5800922344006165  0.49335646013031453  1.0000
