data_image0
_chemical_formula_structural       Zn2H60C68I8N2O28
_chemical_formula_sum              "Zn2 H60 C68 I8 N2 O28"
_cell_length_a       16.139367746645316
_cell_length_b       18.471345656848808
_cell_length_c       19.438246702099498
_cell_angle_alpha    90.26344442526192
_cell_angle_beta     88.45398619492067
_cell_angle_gamma    89.80542806343622

_space_group_name_H-M_alt    "P 1"
_space_group_IT_number       1

loop_
  _space_group_symop_operation_xyz
  'x, y, z'

loop_
  _atom_site_type_symbol
  _atom_site_label
  _atom_site_symmetry_multiplicity
  _atom_site_fract_x
  _atom_site_fract_y
  _atom_site_fract_z
  _atom_site_occupancy
  Zn  Zn1       1.0  0.5050509104255952  0.5776404852978135  0.5062453649626946  1.0000
  Zn  Zn2       1.0  0.5028941283465896  0.4173584476802575  0.5002540497925028  1.0000
  H   H1        1.0  0.627178355450873  0.343001250979299  0.7318173136344015  1.0000
  H   H2        1.0  0.6028573338532227  0.37807049903833717  0.6481002924439496  1.0000
  H   H3        1.0  0.5756951008346718  0.2873210555333472  0.6704137369298593  1.0000
  H   H4        1.0  0.2896498072680274  0.5115237369819711  0.3399960000104301  1.0000
  H   H5        1.0  0.2508386449199308  0.42129638338390424  0.3490039555720443  1.0000
  H   H6        1.0  0.2559413695967337  0.46273079073916534  0.2651630985703051  1.0000
  H   H7        1.0  0.7031745560033401  0.5165803805833705  0.23501196240193425  1.0000
  H   H8        1.0  0.6681510226631036  0.48090227448044237  0.317068320084566  1.0000
  H   H9        1.0  0.7297269788433739  0.5613221295824221  0.3138452120845514  1.0000
  H   H10       1.0  0.6332710734983281  0.6154757042012949  0.679779435529241  1.0000
  H   H11       1.0  0.624896088792035  0.6554156277384283  0.7649953578364974  1.0000
  H   H12       1.0  0.5952631116965749  0.7061823419529959  0.6908604359533187  1.0000
  H   H13       1.0  0.38608938817155564  0.3159891274365735  0.7866790154232248  1.0000
  H   H14       1.0  0.33881460559594967  0.36491806764178153  0.8578877893962655  1.0000
  H   H15       1.0  0.39192325074887446  0.2811137853854504  0.8727137650897419  1.0000
  H   H16       1.0  0.32300455705628656  0.32261207617256116  0.1365290797772474  1.0000
  H   H17       1.0  0.38567123106073353  0.32733766622600785  0.2115483041743431  1.0000
  H   H18       1.0  0.4318332490619456  0.34109693677954317  0.12713232059719104  1.0000
  H   H19       1.0  0.6046819993678414  0.6745825841262346  0.20639927792066  1.0000
  H   H20       1.0  0.5281082307694761  0.6814348458680259  0.14098719183340347  1.0000
  H   H21       1.0  0.6362977180020835  0.6814261400323363  0.11717334238752394  1.0000
  H   H22       1.0  0.3597524951779434  0.649692179301738  0.86040996077611  1.0000
  H   H23       1.0  0.42030745353346805  0.6919982818801388  0.7920335740881086  1.0000
  H   H24       1.0  0.430537904580838  0.7213689148351394  0.8796401223546653  1.0000
  H   H25       1.0  0.2347425269966692  0.5064019628534668  0.0010755081044849003  1.0000
  H   H26       1.0  0.2625189684911433  0.4483038180950204  0.9295531585825788  1.0000
  H   H27       1.0  0.2068542244984357  0.5308363839669499  0.9151541946582783  1.0000
  H   H28       1.0  0.6677916780880224  0.3736075751303219  0.010596556350627402  1.0000
  H   H29       1.0  0.5808834303295284  0.3385936587045252  0.05881826554585961  1.0000
  H   H30       1.0  0.6735354367566019  0.3627059411892192  0.1024238777672366  1.0000
  H   H31       1.0  0.3185062915302482  0.6489389515267591  0.0193246877613475  1.0000
  H   H32       1.0  0.3806523117362631  0.6588784880376153  0.0942712783181037  1.0000
  H   H33       1.0  0.2705054544222777  0.6477839527959903  0.10393974261539539  1.0000
  H   H34       1.0  0.6909977614356962  0.5188838708974403  0.9757666869041018  1.0000
  H   H35       1.0  0.6438462517453801  0.5535537758702207  0.8997847638023659  1.0000
  H   H36       1.0  0.7191389670733843  0.48181922083147566  0.8924420526803161  1.0000
  H   H37       1.0  0.32876513759916304  0.6394336913581784  0.6557309468114738  1.0000
  H   H38       1.0  0.2985143755400586  0.6974783492226637  0.5875971462770195  1.0000
  H   H39       1.0  0.33760588971063754  0.7360264731297195  0.6660368723260534  1.0000
  H   H40       1.0  0.701384198058193  0.24194200991605186  0.40526885936328944  1.0000
  H   H41       1.0  0.7016180377510394  0.32287339084663114  0.45862191950983094  1.0000
  H   H42       1.0  0.7080995779123215  0.3303780617140222  0.36691700220909956  1.0000
  H   H43       1.0  0.6973915572123986  0.6738505952770455  0.3598837691459948  1.0000
  H   H44       1.0  0.6974213252525561  0.6685612465942656  0.45178169724349  1.0000
  H   H45       1.0  0.687819827665983  0.7557620491528639  0.4100377271069675  1.0000
  H   H46       1.0  0.29514227220755623  0.24938026990592024  0.5886162976626323  1.0000
  H   H47       1.0  0.29634612675496913  0.3305378490392386  0.5364347963396554  1.0000
  H   H48       1.0  0.29397698705305697  0.33773176569350494  0.6282692699032638  1.0000
  H   H49       1.0  0.35880233589514193  0.9328714732021627  0.5809734230794065  1.0000
  H   H50       1.0  0.2955765594369454  0.8537164825908266  0.5716737413073432  1.0000
  H   H51       1.0  0.3172913102341539  0.8882859201391184  0.6558001293222162  1.0000
  H   H52       1.0  0.5779170716212222  0.2236833629804949  0.3131249925659105  1.0000
  H   H53       1.0  0.5063392997034483  0.14921230109924724  0.31484874984978733  1.0000
  H   H54       1.0  0.6142916898678266  0.13309203092394745  0.2952027388712111  1.0000
  H   H55       1.0  0.4820421149802386  0.8124580666104465  0.3158074805519959  1.0000
  H   H56       1.0  0.5747740263407694  0.8597226209746937  0.2900401521482436  1.0000
  H   H57       1.0  0.5792137457706588  0.7649730917895072  0.3113952021117612  1.0000
  H   H58       1.0  0.376844947723967  0.13728530670310593  0.6941829368975547  1.0000
  H   H59       1.0  0.4169563481065666  0.2264152813040496  0.6767692426713127  1.0000
  H   H60       1.0  0.485166409996154  0.14918786233418765  0.6741151155564611  1.0000
  C   C1        1.0  0.49251869433489764  0.5039500848693664  0.3740893643723809  1.0000
  C   C2        1.0  0.5124722676283396  0.49786815801440565  0.633269746231413  1.0000
  C   C3        1.0  0.5061302122395546  0.4963437574449969  0.7107034282639263  1.0000
  C   C4        1.0  0.485302373322952  0.5050407117329742  0.29709503503686113  1.0000
  C   C5        1.0  0.39691821400159455  0.520801292738824  0.9694605475770288  1.0000
  C   C6        1.0  0.5369407465352581  0.47257053182117664  0.039009496428136003  1.0000
  C   C7        1.0  0.3994301159345781  0.5261673473731109  0.041615919698642805  1.0000
  C   C8        1.0  0.5363970419203808  0.47207838867046104  0.9669260549713884  1.0000
  C   C9        1.0  0.46883921877805795  0.5015900581717858  0.0768679452491128  1.0000
  C   C10       1.0  0.4662388952936568  0.49507368316260186  0.9317889452146844  1.0000
  C   C11       1.0  0.4546054348356139  0.7254672998051535  0.5522798828435924  1.0000
  C   C12       1.0  0.5465753261586743  0.26656089354361984  0.4496367094922959  1.0000
  C   C13       1.0  0.5384952635933686  0.7267006218918513  0.4520531187414464  1.0000
  C   C14       1.0  0.45008823883227234  0.26809005223343263  0.5415408819155232  1.0000
  C   C15       1.0  0.44738037811702475  0.8016333022831221  0.5522462396284027  1.0000
  C   C16       1.0  0.5426917198858091  0.19060068317512707  0.4447801725791507  1.0000
  C   C17       1.0  0.5281058020504051  0.8017392875021161  0.4448763127932338  1.0000
  C   C18       1.0  0.44972034032868186  0.19198947871884545  0.5447524414607869  1.0000
  C   C19       1.0  0.48452247670946497  0.8396971651119005  0.4973449369127892  1.0000
  C   C20       1.0  0.4951408380168872  0.15310753118085785  0.4943377074085761  1.0000
  C   C21       1.0  0.5480386330074367  0.9569791337581393  0.5320666019593787  1.0000
  C   C22       1.0  0.43158620290080313  0.03585398349994051  0.4575722990307085  1.0000
  C   C23       1.0  0.4289474733932367  0.9599165327666488  0.4579489692836987  1.0000
  C   C24       1.0  0.5514891237665793  0.032919380966866606  0.5306452284465807  1.0000
  C   C25       1.0  0.49291053381965383  0.0727349537163349  0.49395140924495  1.0000
  C   C26       1.0  0.48629810782259153  0.9201026002316512  0.49599679025367044  1.0000
  C   C27       1.0  0.664478142585054  0.4922335343776541  0.4944951438229737  1.0000
  C   C28       1.0  0.34400137535103437  0.4980404581280384  0.5085143312904989  1.0000
  C   C29       1.0  0.04561007756090871  0.5698175980138204  0.5007320045364808  1.0000
  C   C30       1.0  0.9643713450098518  0.43658726165969597  0.4808463545803647  1.0000
  C   C31       1.0  0.9591384407879817  0.5680874743526871  0.4987293600491968  1.0000
  C   C32       1.0  0.05084050124329311  0.4384618501328392  0.48192274224508946  1.0000
  C   C33       1.0  0.09281369043965532  0.5049018653982316  0.49356077499529516  1.0000
  C   C34       1.0  0.9170128858464892  0.5012498838270717  0.4898246027933554  1.0000
  C   C35       1.0  0.17960553436280702  0.5055285478652254  0.4988869359483131  1.0000
  C   C36       1.0  0.8297743925089949  0.4986994624825627  0.4903071852498968  1.0000
  C   C37       1.0  0.754382103459719  0.4946333684351033  0.4918696263447941  1.0000
  C   C38       1.0  0.2545381633377062  0.5025567965735648  0.504531394152707  1.0000
  C   C39       1.0  0.49571264137277654  0.4303117337454412  0.7470908511889577  1.0000
  C   C40       1.0  0.42134831147614465  0.4667681993398889  0.2661682488700308  1.0000
  C   C41       1.0  0.5432246463500547  0.5426183345067275  0.25617711800050813  1.0000
  C   C42       1.0  0.502228736535237  0.561670757370557  0.7493562861559512  1.0000
  C   C43       1.0  0.47739855606792503  0.43072553236245187  0.8182124426993127  1.0000
  C   C44       1.0  0.4158977422383715  0.4659624931580526  0.19417631436489563  1.0000
  C   C45       1.0  0.5351901796844133  0.5450366886255864  0.18447877326555334  1.0000
  C   C46       1.0  0.4842380853400173  0.5611720681727378  0.820542176784656  1.0000
  C   C47       1.0  0.4720266774119609  0.4957391889994797  0.8555359986818872  1.0000
  C   C48       1.0  0.47207068915896144  0.5055345770994393  0.1527872482021237  1.0000
  C   C49       1.0  0.5819344964570163  0.34266266397057893  0.6903281217260471  1.0000
  C   C50       1.0  0.2860050252034584  0.4579621704749429  0.3151198132443156  1.0000
  C   C51       1.0  0.6817502052061144  0.5305377015385844  0.2877253255136694  1.0000
  C   C52       1.0  0.5971352207750869  0.652088791012908  0.713857429002097  1.0000
  C   C53       1.0  0.39171110125737846  0.3303564347957605  0.8414090130070095  1.0000
  C   C54       1.0  0.3757594936237184  0.3495896891133938  0.1599370287207051  1.0000
  C   C55       1.0  0.5895954226321934  0.6595600343076884  0.15335499659767043  1.0000
  C   C56       1.0  0.41952692797223534  0.6746823201634343  0.8460863879020196  1.0000
  C   C57       1.0  0.2540189850001582  0.5049523450430871  0.9464106088610578  1.0000
  C   C58       1.0  0.6331722342203963  0.37668946646791573  0.059948668303299306  1.0000
  C   C59       1.0  0.3257412022005966  0.632290591778471  0.0731556700228566  1.0000
  C   C60       1.0  0.6684635578559722  0.504689803094536  0.9244441617260011  1.0000
  C   C61       1.0  0.34207805214047243  0.6906104004931707  0.6296171214716537  1.0000
  C   C62       1.0  0.6820796862253858  0.29895240751895363  0.40989381902829797  1.0000
  C   C63       1.0  0.6726742300790608  0.6978111772008192  0.4077591644846309  1.0000
  C   C64       1.0  0.3167742722959801  0.30556173991953284  0.5842351600024075  1.0000
  C   C65       1.0  0.34227024932927474  0.8801709520514442  0.6033382757575653  1.0000
  C   C66       1.0  0.5700490578637983  0.16610928780934847  0.3254735840887477  1.0000
  C   C67       1.0  0.5491299279244617  0.8171004222766884  0.32320854782069125  1.0000
  C   C68       1.0  0.42217927565305763  0.1685795751314174  0.6638982878116553  1.0000
  I   I1        1.0  0.8866910727416838  0.6620810078527699  0.510060055556906  1.0000
  I   I2        1.0  0.12307865934251788  0.3448105655763386  0.4668031758210419  1.0000
  I   I3        1.0  0.11112741887094303  0.6666948573045989  0.5133478083991251  1.0000
  I   I4        1.0  0.9001351508727071  0.339309276225329  0.46717384551921276  1.0000
  I   I5        1.0  0.6348430233163428  0.8956501250960547  0.5860457510272428  1.0000
  I   I6        1.0  0.34454090168643603  0.09767177237613825  0.4042603104989126  1.0000
  I   I7        1.0  0.33877212686528685  0.9024689396089018  0.4039509809550951  1.0000
  I   I8        1.0  0.6435552844595308  0.09039677265638352  0.5825054318589482  1.0000
  N   N1        1.0  0.5005498090482732  0.6904946946362573  0.5036698365446881  1.0000
  N   N2        1.0  0.4996619923549802  0.3034944656602293  0.4962061289380273  1.0000
  O   O1        1.0  0.4709699177906758  0.5610431494820818  0.4063983808423117  1.0000
  O   O2        1.0  0.4867814915255409  0.442039183065134  0.6018509012299091  1.0000
  O   O3        1.0  0.5399464952664842  0.5547217101727143  0.6038878526750653  1.0000
  O   O4        1.0  0.5195558878474599  0.44562737957200943  0.3996292725911204  1.0000
  O   O5        1.0  0.6285844647437745  0.5508734875821236  0.47892553279544364  1.0000
  O   O6        1.0  0.3759518220062932  0.4380773551662005  0.4892715064213747  1.0000
  O   O7        1.0  0.3799775031408927  0.5543117030691395  0.5302637106962679  1.0000
  O   O8        1.0  0.6319185747553963  0.43220301216516804  0.5119055645746258  1.0000
  O   O9        1.0  0.5014224636088686  0.36280651249732915  0.7172477179402109  1.0000
  O   O10       1.0  0.3674637509363308  0.42659566309395563  0.3067516631999965  1.0000
  O   O11       1.0  0.6095733338483743  0.5765371780885575  0.2864850516991453  1.0000
  O   O12       1.0  0.5125893462106961  0.6287643355082225  0.7201648371799011  1.0000
  O   O13       1.0  0.46864412569324554  0.3662854874810791  0.8534225147785506  1.0000
  O   O14       1.0  0.3550444917946933  0.4251964754020464  0.16376814824742075  1.0000
  O   O15       1.0  0.5916595366975984  0.5825022081416976  0.14378680051896003  1.0000
  O   O16       1.0  0.4861844658510963  0.6245985602371891  0.8583221667605301  1.0000
  O   O17       1.0  0.32901900718593435  0.5452991555882182  0.9341654324669407  1.0000
  O   O18       1.0  0.6042073793776411  0.4488662411352497  0.07468694371655722  1.0000
  O   O19       1.0  0.332818577433919  0.5550470185025845  0.07879359542801012  1.0000
  O   O20       1.0  0.6057859084268105  0.44954600808415557  0.9291938121045931  1.0000
  O   O21       1.0  0.42515626851798777  0.6822952341867111  0.6022258553662496  1.0000
  O   O22       1.0  0.593108514328776  0.30637471027461066  0.4051570559348789  1.0000
  O   O23       1.0  0.5839561269529128  0.6869503416174326  0.4063064880274823  1.0000
  O   O24       1.0  0.40611128697310056  0.30960500178462524  0.5865838142190541  1.0000
  O   O25       1.0  0.4138628557259453  0.834299729057925  0.6101611396433101  1.0000
  O   O26       1.0  0.5881150070295862  0.15173114339714291  0.3966871710454356  1.0000
  O   O27       1.0  0.5646918892026634  0.8408783798443696  0.3926900660979911  1.0000
  O   O28       1.0  0.4030774568104647  0.15467661726535914  0.592635212340781  1.0000
