data_image0
_chemical_formula_structural       Fe2H40C44N20O12
_chemical_formula_sum              "Fe2 H40 C44 N20 O12"
_cell_length_a       7.162007683027866
_cell_length_b       11.254673254074698
_cell_length_c       15.201415482062805
_cell_angle_alpha    90.00018868230899
_cell_angle_beta     103.52901829960605
_cell_angle_gamma    89.99959353703115

_space_group_name_H-M_alt    "P 1"
_space_group_IT_number       1

loop_
  _space_group_symop_operation_xyz
  'x, y, z'

loop_
  _atom_site_type_symbol
  _atom_site_label
  _atom_site_symmetry_multiplicity
  _atom_site_fract_x
  _atom_site_fract_y
  _atom_site_fract_z
  _atom_site_occupancy
  Fe  Fe1       1.0  0.5000003783521265  0.34618095152999473  0.249999538855846  1.0000
  Fe  Fe2       1.0  0.49999982077333976  0.6538169311294412  0.7500016218946541  1.0000
  H   H1        1.0  0.6817503370237928  0.5305069207035586  0.37785267444633064  1.0000
  H   H2        1.0  0.31823422714929717  0.5305054004426708  0.12215039136071941  1.0000
  H   H3        1.0  0.31824416848594683  0.4694900734534286  0.6221505131679024  1.0000
  H   H4        1.0  0.6817660225626696  0.469491593702678  0.8778534061961168  1.0000
  H   H5        1.0  0.5689790965831846  0.9241383694064921  0.39671052006201535  1.0000
  H   H6        1.0  0.43102412633297865  0.9241380330140457  0.10328560860315862  1.0000
  H   H7        1.0  0.4310210772746713  0.07585507065110161  0.6032893222821514  1.0000
  H   H8        1.0  0.5689746114743172  0.0758554070464612  0.896714081255354  1.0000
  H   H9        1.0  0.6883350377654124  0.7500281749945118  0.38416169286124097  1.0000
  H   H10       1.0  0.31166148342209954  0.7500275451107682  0.115837909227622  1.0000
  H   H11       1.0  0.3116680587567515  0.2499688191421684  0.615841091263448  1.0000
  H   H12       1.0  0.6883416257455223  0.24996944902733279  0.8841655340987843  1.0000
  H   H13       1.0  0.5689604361524941  0.14247994451887538  0.38992046479556564  1.0000
  H   H14       1.0  0.4310452531829441  0.14247963803455121  0.11007469818022031  1.0000
  H   H15       1.0  0.4310339934937985  0.85751527258995  0.6100787676071563  1.0000
  H   H16       1.0  0.5689506125232384  0.8575138020317753  0.8899246867069979  1.0000
  H   H17       1.0  0.3182620113233058  0.32554845237221736  0.3843487119449165  1.0000
  H   H18       1.0  0.681738936470957  0.3255505912908276  0.11564902057434523  1.0000
  H   H19       1.0  0.6817352524877334  0.6744467647265041  0.6156488478239269  1.0000
  H   H20       1.0  0.31826413477426735  0.6744437372835962  0.8843524451451615  1.0000
  H   H21       1.0  0.5492791751245676  0.3181635450058664  0.4309008683326781  1.0000
  H   H22       1.0  0.45072187541790487  0.31816474554705104  0.0690981730004552  1.0000
  H   H23       1.0  0.4507195247044108  0.6818378917285274  0.5690968439258555  1.0000
  H   H24       1.0  0.5492826571361817  0.6818358026659086  0.9309047636121904  1.0000
  H   H25       1.0  0.1233385843313854  0.518624066683458  0.30365576437648656  1.0000
  H   H26       1.0  0.8766532467868161  0.5186221269014553  0.19634607082401356  1.0000
  H   H27       1.0  0.8766601534013532  0.481383589693806  0.6963439254912629  1.0000
  H   H28       1.0  0.1233455415510605  0.4813810868825287  0.8036562558477556  1.0000
  H   H29       1.0  0.31678131595464987  0.527708202049773  0.46036785236829303  1.0000
  H   H30       1.0  0.6832146901088053  0.5277055558208162  0.039632474478857226  1.0000
  H   H31       1.0  0.6832188578426254  0.4722967887651849  0.5396319899833699  1.0000
  H   H32       1.0  0.3167869450579062  0.4722941038753062  0.9603688387584484  1.0000
  H   H33       1.0  0.024697904344549198  0.8973363473474906  0.3224318811555804  1.0000
  H   H34       1.0  0.9752913656247983  0.8973347672157957  0.17756927986832238  1.0000
  H   H35       1.0  0.9753022947389949  0.10266953199012359  0.6775692796001138  1.0000
  H   H36       1.0  0.02470451266626839  0.10267022360931577  0.8224307642281231  1.0000
  H   H37       1.0  0.2242165398571672  0.8908891377322661  0.4767951982196124  1.0000
  H   H38       1.0  0.7757827615738934  0.8908860004603196  0.02320240741933331  1.0000
  H   H39       1.0  0.7757864933911094  0.1091167415952441  0.5232042899022105  1.0000
  H   H40       1.0  0.22421309144489499  0.10911543628274958  0.9767963182713474  1.0000
  C   C1        1.0  0.6011262989295998  0.5829083221889421  0.3215752660511058  1.0000
  C   C2        1.0  0.3988648579691372  0.5829084631281561  0.1784266526209777  1.0000
  C   C3        1.0  0.3988739381369085  0.41708867195497856  0.6784278723040061  1.0000
  C   C4        1.0  0.6011353790927174  0.41708941953555717  0.8215764857347099  1.0000
  C   C5        1.0  0.49999957208789436  0.7713687728036192  0.24999930818346883  1.0000
  C   C6        1.0  0.5000035117934729  0.22862733281183273  0.7500028167389134  1.0000
  C   C7        1.0  0.5000060258805803  0.9026671202951844  0.2499981782490579  1.0000
  C   C8        1.0  0.49999986687459586  0.09732898530731403  0.7500009556359899  1.0000
  C   C9        1.0  0.5379885352540796  0.967457188375036  0.33094497545126705  1.0000
  C   C10       1.0  0.4620185288475652  0.9674561139263673  0.169051007716206  1.0000
  C   C11       1.0  0.4620130872997876  0.0325362516810728  0.6690556785802786  1.0000
  C   C12       1.0  0.5379787602683664  0.03253643761581771  0.8309478704543525  1.0000
  C   C13       1.0  0.6036867777325625  0.7060642741127481  0.32412217292466755  1.0000
  C   C14       1.0  0.39630590903486496  0.7060644153657523  0.17587757382430877  1.0000
  C   C15       1.0  0.39631630615346586  0.2939309429829109  0.6758799519971391  1.0000
  C   C16       1.0  0.6036957261504837  0.2939316902511777  0.8241237394106947  1.0000
  C   C17       1.0  0.5380346198117891  0.0908035661054143  0.32795226394755167  1.0000
  C   C18       1.0  0.46197738098950225  0.09080428211836993  0.17204476027548313  1.0000
  C   C19       1.0  0.4619655793230066  0.9091925395144287  0.6720488968017976  1.0000
  C   C20       1.0  0.5380213441630062  0.9091909349803018  0.8279542703824633  1.0000
  C   C21       1.0  0.915612796212464  0.3019212752283806  0.34563006594369483  1.0000
  C   C22       1.0  0.08439418153806601  0.301920065959763  0.1543702234423421  1.0000
  C   C23       1.0  0.08438451814313198  0.698081050034439  0.6543701306366715  1.0000
  C   C24       1.0  0.9156030696181929  0.6980769281771232  0.8456266771259282  1.0000
  C   C25       1.0  0.13771002477712097  0.6030361597936036  0.3395418583666938  1.0000
  C   C26       1.0  0.8622794596782768  0.6030367919871155  0.16045861555170404  1.0000
  C   C27       1.0  0.8622872642642605  0.39697060806534523  0.6604570198131015  1.0000
  C   C28       1.0  0.1377178673134622  0.3969673103167183  0.8395422402315447  1.0000
  C   C29       1.0  0.2476168999745312  0.607903417791789  0.427798847169548  1.0000
  C   C30       1.0  0.7523782523674711  0.6078997142764351  0.0722009246050987  1.0000
  C   C31       1.0  0.7523846845777271  0.3921024615372061  0.5721998292648891  1.0000
  C   C32       1.0  0.24762194673470356  0.39210261098199334  0.9278002361482933  1.0000
  C   C33       1.0  0.0871114583787147  0.8126514426951273  0.3488297383302594  1.0000
  C   C34       1.0  0.9128786871087086  0.8126509165945281  0.1511706535330362  1.0000
  C   C35       1.0  0.9128872920088112  0.1873544366439646  0.6511706107380633  1.0000
  C   C36       1.0  0.0871171911916733  0.1873522971909907  0.8488293905622514  1.0000
  C   C37       1.0  0.05629687891229909  0.7078611507538  0.2973523207103526  1.0000
  C   C38       1.0  0.9436915061565543  0.7078598242774206  0.20264828931733805  1.0000
  C   C39       1.0  0.943703269594053  0.2921438400583085  0.7026462032378616  1.0000
  C   C40       1.0  0.056304384784631595  0.29214427802932613  0.7973524139802564  1.0000
  C   C41       1.0  0.199285563469445  0.8093674144497669  0.4368616967749617  1.0000
  C   C42       1.0  0.8007117588043683  0.8093616753594471  0.06313747564385612  1.0000
  C   C43       1.0  0.800716021078152  0.19063935339902827  0.563136979660058  1.0000
  C   C44       1.0  0.19928554291043102  0.19063976138213687  0.9368620617342033  1.0000
  N   N1        1.0  0.4999952058600243  0.5206524760134528  0.25000183147754035  1.0000
  N   N2        1.0  0.5000021591100321  0.4793436296164871  0.7500010019056874  1.0000
  N   N3        1.0  0.5000056656276399  0.15223218456782212  0.2499978927907165  1.0000
  N   N4        1.0  0.4999945082208868  0.8477630325293647  0.7500019495546015  1.0000
  N   N5        1.0  0.7633189306823809  0.33309346761323155  0.30403004448650967  1.0000
  N   N6        1.0  0.2366776425129444  0.3330881996218764  0.19596789956957394  1.0000
  N   N7        1.0  0.236678396337318  0.6669053035718238  0.6959708112932717  1.0000
  N   N8        1.0  0.7633268394732795  0.6669096830259776  0.8040324002344335  1.0000
  N   N9        1.0  0.08849650190407489  0.2772499443509703  0.3935415030635383  1.0000
  N   N10       1.0  0.911503516419792  0.277246561375641  0.106456014253034  1.0000
  N   N11       1.0  0.9114993764242669  0.722747938315763  0.6064585410282889  1.0000
  N   N12       1.0  0.08849952954849269  0.7227451016365407  0.8935441330612833  1.0000
  N   N13       1.0  0.11328180176545288  0.158641432248217  0.4169358505970493  1.0000
  N   N14       1.0  0.886718062401563  0.15863805795947172  0.08306333783119871  1.0000
  N   N15       1.0  0.8867111285890131  0.8413564504157665  0.5830599333131161  1.0000
  N   N16       1.0  0.1132935872199425  0.8413544935536236  0.9169370651958673  1.0000
  N   N17       1.0  0.2805031044892061  0.708928151137421  0.4761023392842674  1.0000
  N   N18       1.0  0.7194924243637004  0.7089243828705065  0.023897716152085007  1.0000
  N   N19       1.0  0.719497056662611  0.29107683967611564  0.5238968438656713  1.0000
  N   N20       1.0  0.2805077621023315  0.2910761653468938  0.9761027853984248  1.0000
  O   O1        1.0  0.446824408177612  0.3564828589334468  0.38067464990784566  1.0000
  O   O2        1.0  0.553176240461994  0.35648648378905534  0.11932444118276923  1.0000
  O   O3        1.0  0.5531742790338612  0.6435132466807404  0.6193224031454888  1.0000
  O   O4        1.0  0.4468283047468731  0.6435122873857324  0.8806791546304495  1.0000
  O   O5        1.0  0.2744986607920339  0.13219082896063133  0.46535409079769613  1.0000
  O   O6        1.0  0.7255028788984532  0.13218796953864143  0.03464323816643144  1.0000
  O   O7        1.0  0.7254914101393908  0.8678008340720212  0.5346420473388562  1.0000
  O   O8        1.0  0.27450733470977434  0.867797473818989  0.9653570123703759  1.0000
  O   O9        1.0  0.9807671866629448  0.0856466218242034  0.3898836322875496  1.0000
  O   O10       1.0  0.019233455725178296  0.0856410689839109  0.11011612056051233  1.0000
  O   O11       1.0  0.019225655159324603  0.9143539263891826  0.6101075372122581  1.0000
  O   O12       1.0  0.9807852982577285  0.9143550365852633  0.8898810896867604  1.0000
