data_image0
_chemical_formula_structural       Cu4H8C12N28
_chemical_formula_sum              "Cu4 H8 C12 N28"
_cell_length_a       6.674270282022428
_cell_length_b       8.583111356277385
_cell_length_c       9.754089473009449
_cell_angle_alpha    90.00013684911646
_cell_angle_beta     90.00003759049413
_cell_angle_gamma    107.1325526282303

_space_group_name_H-M_alt    "P 1"
_space_group_IT_number       1

loop_
  _space_group_symop_operation_xyz
  'x, y, z'

loop_
  _atom_site_type_symbol
  _atom_site_label
  _atom_site_symmetry_multiplicity
  _atom_site_fract_x
  _atom_site_fract_y
  _atom_site_fract_z
  _atom_site_occupancy
  Cu  Cu1       1.0  0.5674662218960266  0.5920221791405992  0.1671634563444471  1.0000
  Cu  Cu2       1.0  0.9325388919240256  0.4079777528316341  0.6671618368095195  1.0000
  Cu  Cu3       1.0  0.43253785171229  0.40797507653638826  0.8328368478337254  1.0000
  Cu  Cu4       1.0  0.06746464054922538  0.5920219528608043  0.3328374421600769  1.0000
  H   H1        1.0  0.251784030234866  0.02277774802875139  0.8808388337685358  1.0000
  H   H2        1.0  0.24820966787148524  0.977215837513071  0.380845442860867  1.0000
  H   H3        1.0  0.7482106044896426  0.9772183591611419  0.1191583947732155  1.0000
  H   H4        1.0  0.7517893833238533  0.022783903507516398  0.6191589621628282  1.0000
  H   H5        1.0  0.10091657742474057  0.825981190867466  0.6752715023522952  1.0000
  H   H6        1.0  0.3990889090285067  0.17402386481713705  0.17528265178262353  1.0000
  H   H7        1.0  0.8990818678052296  0.17402466929273425  0.3247226505674803  1.0000
  H   H8        1.0  0.6009174165104056  0.8259868247523696  0.824720728043168  1.0000
  C   C1        1.0  0.5252616988704872  0.2980726828068327  0.49840471834199457  1.0000
  C   C2        1.0  0.9747327207868609  0.7019259603953997  0.9984006574326897  1.0000
  C   C3        1.0  0.4747344296206961  0.701923412618022  0.5015976362551767  1.0000
  C   C4        1.0  0.025263342877337898  0.2980738041585695  0.0015955459021980995  1.0000
  C   C5        1.0  0.40180403970453676  0.17704565757672694  0.5933032213284902  1.0000
  C   C6        1.0  0.09819624743871459  0.822961619375043  0.09330431283584768  1.0000
  C   C7        1.0  0.5981984105008068  0.8229589481499388  0.40669605764598055  1.0000
  C   C8        1.0  0.9018051205009385  0.17704788638913974  0.9066970165655377  1.0000
  C   C9        1.0  0.20271135919237793  0.9499660284278874  0.6660457814340004  1.0000
  C   C10       1.0  0.29726392769662624  0.050000103355081586  0.1660484230599906  1.0000
  C   C11       1.0  0.7972751133806144  0.050013022828601095  0.3339514470880403  1.0000
  C   C12       1.0  0.7027131708162314  0.949974130280253  0.8339488054548596  1.0000
  N   N1        1.0  0.6076892972328878  0.4456218541200768  0.3203718722175779  1.0000
  N   N2        1.0  0.8923136359916698  0.5543798140685964  0.8203705404723606  1.0000
  N   N3        1.0  0.39231674645238  0.5543766089088249  0.679630482384347  1.0000
  N   N4        1.0  0.10768690896260581  0.445619915175392  0.1796318141296283  1.0000
  N   N5        1.0  0.7775997867686402  0.4761240547697482  0.3996832926822549  1.0000
  N   N6        1.0  0.7224028412917036  0.5238766497932231  0.8996828443719523  1.0000
  N   N7        1.0  0.2224052394657647  0.523875639149402  0.6003159862876757  1.0000
  N   N8        1.0  0.2775972273478686  0.47612186032720405  0.10031848501763108  1.0000
  N   N9        1.0  0.7293210707095811  0.38423998082884464  0.5138445332196966  1.0000
  N   N10       1.0  0.7706826948129901  0.6157606881372714  0.013844245242182798  1.0000
  N   N11       1.0  0.2706809680003133  0.6157597366335921  0.4861526953275329  1.0000
  N   N12       1.0  0.22932280773390096  0.3842402249021362  0.9861540085181062  1.0000
  N   N13       1.0  0.448071000122205  0.3331720981524171  0.3791491160750268  1.0000
  N   N14       1.0  0.05193098612270562  0.666831199590497  0.8791488885733967  1.0000
  N   N15       1.0  0.5519310385932172  0.6668276193182762  0.620853238527296  1.0000
  N   N16       1.0  0.9480739752946621  0.33317216347262496  0.1208534660334024  1.0000
  N   N17       1.0  0.39835265660018143  0.19504935936186021  0.7300315320171791  1.0000
  N   N18       1.0  0.10163915748721306  0.8049474212708316  0.2300325874345219  1.0000
  N   N19       1.0  0.6016459182793455  0.8049491625335105  0.2699708225830975  1.0000
  N   N20       1.0  0.8983588762605808  0.19505355064495689  0.7699718175902248  1.0000
  N   N21       1.0  0.2734970744897255  0.047836818917886596  0.7739329356178146  1.0000
  N   N22       1.0  0.22650319093348503  0.9521661516364613  0.2739220537508018  1.0000
  N   N23       1.0  0.726504423095058  0.9521653485748728  0.22607249461999857  1.0000
  N   N24       1.0  0.7735021819594224  0.04784209966116039  0.7260638974849201  1.0000
  N   N25       1.0  0.2794986915362756  0.02795410470486809  0.5502451997762066  1.0000
  N   N26       1.0  0.22050496653595536  0.9720542291283819  0.0502548609733608  1.0000
  N   N27       1.0  0.7205012474548412  0.9720517436820371  0.44974895314390306  1.0000
  N   N28       1.0  0.7794993889304183  0.0279552530958185  0.9497505692727515  1.0000
