data_image0
_chemical_formula_structural       Mn2H48C44S4N6O12
_chemical_formula_sum              "Mn2 H48 C44 S4 N6 O12"
_cell_length_a       10.098933766441242
_cell_length_b       10.81311505861577
_cell_length_c       11.373843762499018
_cell_angle_alpha    84.59488329324242
_cell_angle_beta     79.74758589672129
_cell_angle_gamma    71.39384524178811

_space_group_name_H-M_alt    "P 1"
_space_group_IT_number       1

loop_
  _space_group_symop_operation_xyz
  'x, y, z'

loop_
  _atom_site_type_symbol
  _atom_site_label
  _atom_site_symmetry_multiplicity
  _atom_site_fract_x
  _atom_site_fract_y
  _atom_site_fract_z
  _atom_site_occupancy
  Mn  Mn1       1.0  0.8944716905347719  0.11709363962211938  0.23689044863132833  1.0000
  Mn  Mn2       1.0  0.10552438649100537  0.8829054027831942  0.7631183620897912  1.0000
  H   H1        1.0  0.10842434797023509  0.31488932869122976  0.9254975806532428  1.0000
  H   H2        1.0  0.891573383243255  0.685104924414837  0.07450691901173907  1.0000
  H   H3        1.0  0.1738524666301799  0.5214480817074473  0.8806474566008403  1.0000
  H   H4        1.0  0.8261475669470785  0.4785482170958844  0.11935388700850065  1.0000
  H   H5        1.0  0.31010940058479974  0.5554232020556213  0.6840091289176441  1.0000
  H   H6        1.0  0.6898963455029515  0.4445682467346116  0.31599253513714126  1.0000
  H   H7        1.0  0.37892601451356717  0.3875866847631855  0.5301623829833486  1.0000
  H   H8        1.0  0.6210784552823156  0.6123997708500468  0.46984336801099846  1.0000
  H   H9        1.0  0.17899906495942727  0.2813225439505089  0.39627011690660635  1.0000
  H   H10       1.0  0.8209917737328425  0.7186943806178263  0.6037241535233447  1.0000
  H   H11       1.0  0.036620400615888116  0.41957799492300285  0.25020430686262063  1.0000
  H   H12       1.0  0.9633933625106293  0.5804511134103478  0.7497792496635041  1.0000
  H   H13       1.0  0.15497640131438556  0.510163740455198  0.0658747912327087  1.0000
  H   H14       1.0  0.8450498172791043  0.4898643387270311  0.9341165213105425  1.0000
  H   H15       1.0  0.41804150925450745  0.4454255657420702  0.02432237332419618  1.0000
  H   H16       1.0  0.5819842738304927  0.5545806751488909  0.975682917780041  1.0000
  H   H17       1.0  0.1358234527262567  0.05290746598197418  0.41716591171466166  1.0000
  H   H18       1.0  0.8641748544355178  0.9471025021621388  0.5828364667179569  1.0000
  H   H19       1.0  0.42265324744539595  0.92829134628775  0.34098239701472716  1.0000
  H   H20       1.0  0.5773462594063972  0.07172087672009297  0.6590064340031673  1.0000
  H   H21       1.0  0.19089284038843593  0.9391397809667267  0.06233181739571589  1.0000
  H   H22       1.0  0.8090941924106262  0.0608562994680497  0.9376742598699507  1.0000
  H   H23       1.0  0.4507148481849299  0.7957512602167112  0.0381789984241792  1.0000
  H   H24       1.0  0.5492727740614638  0.2042517845399061  0.9618220781861807  1.0000
  H   H25       1.0  0.5462948339829478  0.7800855241299657  0.1578967004788865  1.0000
  H   H26       1.0  0.45369243006940957  0.2199127247342431  0.8420995080833504  1.0000
  H   H27       1.0  0.5702334239046679  0.0026778582856437027  0.10901169482776399  1.0000
  H   H28       1.0  0.42977520962007537  0.9973109821688834  0.8909756282737502  1.0000
  H   H29       1.0  0.6471553150739028  0.8959930033797646  0.9900278011885886  1.0000
  H   H30       1.0  0.3528423457405053  0.10399268376057341  0.009965025259468508  1.0000
  H   H31       1.0  0.6969990924073243  0.34543964140475225  0.7465058250957951  1.0000
  H   H32       1.0  0.3029695024924661  0.6545689559061713  0.2535022856954754  1.0000
  H   H33       1.0  0.5878299979122799  0.33626275455086574  0.6422568587696488  1.0000
  H   H34       1.0  0.4121549648698488  0.6637363532047897  0.357744051908817  1.0000
  H   H35       1.0  0.6379918917710156  0.4799985139525588  0.6457744025563129  1.0000
  H   H36       1.0  0.3619817277012202  0.5200042999014016  0.35423156890408336  1.0000
  H   H37       1.0  0.9240892352047323  0.3685011497155911  0.6694955684766839  1.0000
  H   H38       1.0  0.07589706587852865  0.6315115356578359  0.33051204909974524  1.0000
  H   H39       1.0  0.9538446046147868  0.41143852989177526  0.5138622550090375  1.0000
  H   H40       1.0  0.046140411786801394  0.5885691807796929  0.486148570127554  1.0000
  H   H41       1.0  0.0177415255121147  0.24461953155634567  0.5644806770589382  1.0000
  H   H42       1.0  0.9822441883108649  0.7553919986726425  0.4355350332939524  1.0000
  H   H43       1.0  0.6866459609773088  0.24292309711775317  0.47348910254088844  1.0000
  H   H44       1.0  0.3133528320543844  0.7570739437857908  0.5265229376467602  1.0000
  H   H45       1.0  0.831325812184886  0.25964236437294363  0.04866621111702334  1.0000
  H   H46       1.0  0.16868360047234182  0.7403443017112108  0.9513316988736162  1.0000
  H   H47       1.0  0.9956355975795076  0.17436204897236957  0.00042852308452979824  1.0000
  H   H48       1.0  0.00436413434535878  0.8256235154358077  0.9995710160113161  1.0000
  C   C1        1.0  0.15844510258393288  0.11764993920690608  0.7818420418835287  1.0000
  C   C2        1.0  0.8415549047303513  0.8823435104328676  0.21815511752703287  1.0000
  C   C3        1.0  0.20338620188937281  0.23722060755339663  0.7529285534414569  1.0000
  C   C4        1.0  0.7966134997568158  0.7627737445210767  0.2470721063185338  1.0000
  C   C5        1.0  0.1668664567312348  0.33269389502463287  0.8387038555527438  1.0000
  C   C6        1.0  0.8331385941221682  0.6672995433854891  0.16129601540690428  1.0000
  C   C7        1.0  0.20417264919689873  0.446833024343796  0.8145518740053104  1.0000
  C   C8        1.0  0.7958229941265105  0.5531613884445362  0.1854441542530978  1.0000
  C   C9        1.0  0.28025080445330275  0.4663540725176246  0.7029759218390977  1.0000
  C   C10       1.0  0.7197606709245646  0.5336324893094115  0.297027821419931  1.0000
  C   C11       1.0  0.3182811209184848  0.3727164594408733  0.6167429106029019  1.0000
  C   C12       1.0  0.6817246072961182  0.6272721217107531  0.38325544863251076  1.0000
  C   C13       1.0  0.28185571431799156  0.25699164925247686  0.6398640156799899  1.0000
  C   C14       1.0  0.7181476863634086  0.7429949416270318  0.36013486147286494  1.0000
  C   C15       1.0  0.3791945712156704  0.285911026258816  0.29534192485640887  1.0000
  C   C16       1.0  0.6208237328229557  0.7140963803540002  0.7046512867445925  1.0000
  C   C17       1.0  0.231449874505337  0.318502028301033  0.3152317529404697  1.0000
  C   C18       1.0  0.7685667552853628  0.6815014907950142  0.6847593727761278  1.0000
  C   C19       1.0  0.15144477559751832  0.3963370431451877  0.23247360128863898  1.0000
  C   C20       1.0  0.8485704356328586  0.6036850520343434  0.7675181510229834  1.0000
  C   C21       1.0  0.2176959490941073  0.44496098628865594  0.1284305386367137  1.0000
  C   C22       1.0  0.7823299415840307  0.5550535093348544  0.87155478519427  1.0000
  C   C23       1.0  0.36465494071751425  0.4094807114343907  0.10560475917112906  1.0000
  C   C24       1.0  0.6353697094150589  0.5905345262893391  0.8943912612381695  1.0000
  C   C25       1.0  0.44771523951332876  0.32938001856991406  0.18699703676675475  1.0000
  C   C26       1.0  0.5522983842894574  0.6706234629238139  0.8129945725309538  1.0000
  C   C27       1.0  0.6053480664105918  0.2927212667025286  0.15698018929503377  1.0000
  C   C28       1.0  0.3946609997229869  0.7072692987802752  0.843018370208618  1.0000
  C   C29       1.0  0.18938745108243182  0.010274559091776296  0.3325245171416285  1.0000
  C   C30       1.0  0.8106098508027982  0.9897266827521278  0.6674733843029654  1.0000
  C   C31       1.0  0.3307958147270681  0.9481485921165956  0.2967974065719332  1.0000
  C   C32       1.0  0.6692014306165176  0.051858588230047103  0.703197431338026  1.0000
  C   C33       1.0  0.2118797698590098  0.9528884113165789  0.1497109400965257  1.0000
  C   C34       1.0  0.7881132099844237  0.04711370130063838  0.8502902270928984  1.0000
  C   C35       1.0  0.4754373227990596  0.850709818433657  0.10308049449420047  1.0000
  C   C36       1.0  0.5245523096420469  0.14928742373873397  0.8969180469869966  1.0000
  C   C37       1.0  0.5452197484382778  0.9508761153601243  0.04110337065917237  1.0000
  C   C38       1.0  0.45478264915362127  0.04910755839657098  0.9588941216268123  1.0000
  C   C39       1.0  0.6732471509646559  0.372900981563852  0.6554187378695815  1.0000
  C   C40       1.0  0.3267344844753524  0.6271019325629793  0.3445859440411921  1.0000
  C   C41       1.0  0.9314675836723366  0.33647692545515884  0.579585478995206  1.0000
  C   C42       1.0  0.06851542983083186  0.6635336647367963  0.42042721458936677  1.0000
  C   C43       1.0  0.7911539160395762  0.2531701468077614  0.47635889540320864  1.0000
  C   C44       1.0  0.208826207839543  0.7468372425424973  0.5236650470134734  1.0000
  S   S1        1.0  0.335682191197172  0.13394518189134888  0.5320859393029876  1.0000
  S   S2        1.0  0.6643130574507549  0.8660590503233224  0.46790855431319756  1.0000
  S   S3        1.0  0.48163040474431534  0.1885061815577487  0.4022387860438456  1.0000
  S   S4        1.0  0.5183612882303804  0.8114851471801143  0.597762496584579  1.0000
  N   N1        1.0  0.1162167178600555  0.013255323947120699  0.2399029362571027  1.0000
  N   N2        1.0  0.8837799883750747  0.9867447812273863  0.760102178584546  1.0000
  N   N3        1.0  0.3430499873178332  0.9117869371414001  0.18106370211474138  1.0000
  N   N4        1.0  0.6569432657279676  0.08821725153001127  0.8189319932682436  1.0000
  N   N5        1.0  0.7980443015365423  0.3172401780817323  0.5682558163188105  1.0000
  N   N6        1.0  0.2019430580843462  0.682766581323058  0.4317547035985498  1.0000
  O   O1        1.0  0.10434087758472542  0.09028248685148547  0.8865384583184479  1.0000
  O   O2        1.0  0.895660485545477  0.9097041528599946  0.11345722370422338  1.0000
  O   O3        1.0  0.17839364977447048  0.04320790882317739  0.6942917770717258  1.0000
  O   O4        1.0  0.8216046854789382  0.9567874624772301  0.3057063885755936  1.0000
  O   O5        1.0  0.6754976025557013  0.23900698842977164  0.24246433393066266  1.0000
  O   O6        1.0  0.32450941544981754  0.7609778351826505  0.7575270589422444  1.0000
  O   O7        1.0  0.6615636916433374  0.31410607945201  0.05127309349278868  1.0000
  O   O8        1.0  0.3384457556666689  0.6858834173206529  0.9487298800760297  1.0000
  O   O9        1.0  0.8956755043072208  0.2082338418581173  0.3966406067659489  1.0000
  O   O10       1.0  0.10431693752128274  0.791764100175676  0.6033723834157455  1.0000
  O   O11       1.0  0.9299880464162483  0.22115649721720124  0.07031037239536893  1.0000
  O   O12       1.0  0.07001807027106112  0.7788280921605376  0.9296917342240218  1.0000
