data_image0
_chemical_formula_structural       Co6H12C24O18
_chemical_formula_sum              "Co6 H12 C24 O18"
_cell_length_a       6.6678402129926075
_cell_length_b       15.1151069887889
_cell_length_c       15.11516206259251
_cell_angle_alpha    117.89403888193276
_cell_angle_beta     98.43422360283401
_cell_angle_gamma    98.43534034108882

_space_group_name_H-M_alt    "P 1"
_space_group_IT_number       1

loop_
  _space_group_symop_operation_xyz
  'x, y, z'

loop_
  _atom_site_type_symbol
  _atom_site_label
  _atom_site_symmetry_multiplicity
  _atom_site_fract_x
  _atom_site_fract_y
  _atom_site_fract_z
  _atom_site_occupancy
  Co  Co1       1.0  0.812076660874368  0.41880656394721427  0.6976039791898501  1.0000
  Co  Co2       1.0  0.39341244401951053  0.27891276313595625  0.5812831315601626  1.0000
  Co  Co3       1.0  0.1148914454714856  0.3023067158447077  0.7212448895027419  1.0000
  Co  Co4       1.0  0.11490219972650106  0.7212396240130731  0.30230619136345643  1.0000
  Co  Co5       1.0  0.3934005793186727  0.5812804256749117  0.27890843866859427  1.0000
  Co  Co6       1.0  0.8120719030338818  0.6976086484148851  0.4188149736505976  1.0000
  H   H1        1.0  0.7738585863533133  0.5172690711700694  0.7677457460128778  1.0000
  H   H2        1.0  0.2568428036555942  0.25060727444982683  0.48287273009161413  1.0000
  H   H3        1.0  0.00704923325488237  0.23227546663037654  0.7497410534335955  1.0000
  H   H4        1.0  0.007040866762544249  0.7497374441859673  0.23227063781655477  1.0000
  H   H5        1.0  0.2568419974831357  0.4828674324307868  0.25060474475453276  1.0000
  H   H6        1.0  0.7738546813520131  0.7677453502848409  0.517269206446521  1.0000
  H   H7        1.0  0.7339608163985006  0.4797185726310643  0.47971237431304553  1.0000
  H   H8        1.0  0.2542997817423043  0.999831716784776  0.5201355392675281  1.0000
  H   H9        1.0  0.2543075030040002  0.5201310395546414  0.9998278841304327  1.0000
  H   H10       1.0  0.08839939603604557  0.5766194076154746  0.5766245680002339  1.0000
  H   H11       1.0  0.5121568400213478  6.626642467469994e-05  0.4235172792672585  1.0000
  H   H12       1.0  0.5121578002593664  0.4235192277299759  6.736975928576473e-05  1.0000
  C   C1        1.0  0.5009348770158367  0.4647755980827313  0.5597047262318852  1.0000
  C   C2        1.0  0.03629186928498029  0.09484898824758398  0.5352571157509445  1.0000
  C   C3        1.0  0.9414237654737007  0.4402095086326908  0.9049718244595296  1.0000
  C   C4        1.0  0.9414109618868521  0.9049700019965599  0.44021121290834475  1.0000
  C   C5        1.0  0.03630278261047692  0.5352577357194263  0.09485136196276753  1.0000
  C   C6        1.0  0.5009232833881258  0.5597090142969775  0.4647734860079352  1.0000
  C   C7        1.0  0.5934024158644462  0.5021291379512718  0.5021226091261325  1.0000
  C   C8        1.0  0.09139699875981915  0.9998754808406571  0.4978082113178457  1.0000
  C   C9        1.0  0.09140154258225403  0.49780314141707277  0.9998688512684877  1.0000
  C   C10       1.0  0.31423666190271143  0.49325751378706406  0.5878509123662354  1.0000
  C   C11       1.0  0.8212464945575063  0.09458335738965219  0.5068459190694341  1.0000
  C   C12       1.0  0.7266894234455918  0.4121113019626036  0.9053753948093117  1.0000
  C   C13       1.0  0.7266821890920807  0.9053736730577594  0.4121084388180234  1.0000
  C   C14       1.0  0.8212444827125295  0.50684778502589  0.09458376538069756  1.0000
  C   C15       1.0  0.3142361492672163  0.5878434084351267  0.4932536091287573  1.0000
  C   C16       1.0  0.19896580256135366  0.4577265863764806  0.6452002300068429  1.0000
  C   C17       1.0  0.741473178125382  0.1875241557655229  0.5423821224760558  1.0000
  C   C18       1.0  0.554110434588054  0.35476614438587717  0.8125213429929801  1.0000
  C   C19       1.0  0.5540984028834045  0.812521447287473  0.3547631932779892  1.0000
  C   C20       1.0  0.7414723610583921  0.5423801580202791  0.18751805126655088  1.0000
  C   C21       1.0  0.19895090501879048  0.6451955414213586  0.4577200585789213  1.0000
  C   C22       1.0  0.2298891576815051  0.5550437249789367  0.5550475049388195  1.0000
  C   C23       1.0  0.6751670209556551  1.697125743049993e-05  0.44503138583166896  1.0000
  C   C24       1.0  0.675163385423069  0.445031491793074  1.3889049775184424e-05  1.0000
  O   O1        1.0  0.5848820545864938  0.3994821732139328  0.5809580324771488  1.0000
  O   O2        1.0  0.18544829653336592  0.18139124003159418  0.6005349090317224  1.0000
  O   O3        1.0  0.0038921389610351103  0.4188216702189891  0.8183056254067083  1.0000
  O   O4        1.0  0.0038928578486546375  0.8183043860571998  0.4188215296112359  1.0000
  O   O5        1.0  0.1854515219209105  0.6005326607012407  0.1813914239066178  1.0000
  O   O6        1.0  0.5848653885488702  0.5809560582999111  0.39947927703244085  1.0000
  O   O7        1.0  0.25840449986304753  0.3901725246773254  0.6659118141550167  1.0000
  O   O8        1.0  0.8683230572392516  0.27575256137594545  0.6099419609570447  1.0000
  O   O9        1.0  0.5927274600234967  0.3340913495787348  0.7242568347006325  1.0000
  O   O10       1.0  0.5927110481989714  0.7242567249943405  0.33408732320633305  1.0000
  O   O11       1.0  0.8683290830810861  0.6099443727545761  0.27574887810462206  1.0000
  O   O12       1.0  0.2583971992209655  0.6659125884433976  0.39017201546709396  1.0000
  O   O13       1.0  0.04393056782031828  0.4939895735136658  0.6736990558288412  1.0000
  O   O14       1.0  0.5503684140780931  0.17979452300376406  0.5060195817578403  1.0000
  O   O15       1.0  0.37072548115876447  0.326221997356157  0.8203316282049896  1.0000
  O   O16       1.0  0.37072138291048157  0.8203269058298586  0.32622124995869933  1.0000
  O   O17       1.0  0.5503679211212572  0.5060173622125888  0.1797947672186311  1.0000
  O   O18       1.0  0.04390716250274096  0.6736880278183435  0.4939866418771715  1.0000
