data_image0
_chemical_formula_structural       Zn8H96C136S8N16O40
_chemical_formula_sum              "Zn8 H96 C136 S8 N16 O40"
_cell_length_a       14.10579189990166
_cell_length_b       14.105741711049484
_cell_length_c       23.64960921082592
_cell_angle_alpha    105.69584335967016
_cell_angle_beta     105.69584800932266
_cell_angle_gamma    95.39095222303837

_space_group_name_H-M_alt    "P 1"
_space_group_IT_number       1

loop_
  _space_group_symop_operation_xyz
  'x, y, z'

loop_
  _atom_site_type_symbol
  _atom_site_label
  _atom_site_symmetry_multiplicity
  _atom_site_fract_x
  _atom_site_fract_y
  _atom_site_fract_z
  _atom_site_occupancy
  Zn  Zn1       1.0  4.534491895407207e-07  3.994091314477482e-07  0.9999992639632751  1.0000
  Zn  Zn2       1.0  2.43277108318282e-06  0.4999990253092507  1.4738495721892973e-06  1.0000
  Zn  Zn3       1.0  0.49999993488248873  0.9999988242517547  0.49999851141596713  1.0000
  Zn  Zn4       1.0  6.831055614801385e-07  0.9999996692060478  0.5000007921428917  1.0000
  Zn  Zn5       1.0  0.07476775012603555  0.324317708656217  0.14925070608956054  1.0000
  Zn  Zn6       1.0  0.6756845443223369  0.925237185825445  0.3507503660284854  1.0000
  Zn  Zn7       1.0  0.9252346378949385  0.67568254588398  0.8507514699253705  1.0000
  Zn  Zn8       1.0  0.3243151254579076  0.07476402210717475  0.6492490971299176  1.0000
  H   H1        1.0  0.6377586042642703  0.9212415306575468  0.014323089296134123  1.0000
  H   H2        1.0  0.3760696251940132  0.5933418103309549  0.014307044784416703  1.0000
  H   H3        1.0  0.4066604737702664  0.6239289842545334  0.4856942507309086  1.0000
  H   H4        1.0  0.07875871860274243  0.362245992475522  0.48568048468521857  1.0000
  H   H5        1.0  0.3622448653514283  0.07875722279622721  0.9856779321127149  1.0000
  H   H6        1.0  0.6239262890451445  0.4066579883165603  0.9856924144650137  1.0000
  H   H7        1.0  0.5933372027685169  0.3760726949062276  0.514306209664703  1.0000
  H   H8        1.0  0.9212439764229786  0.6377553033981231  0.5143219925357274  1.0000
  H   H9        1.0  0.5268287872099651  0.016332091203452095  0.9577953027630031  1.0000
  H   H10       1.0  0.43045738203644396  0.441810797815947  0.9577265373855965  1.0000
  H   H11       1.0  0.5581900031402115  0.569540109944505  0.5422739325733588  1.0000
  H   H12       1.0  0.9836635426476122  0.4731760508837724  0.5422045097803831  1.0000
  H   H13       1.0  0.4731748617212689  0.9836662254476778  0.042205152920061634  1.0000
  H   H14       1.0  0.5695393218617824  0.5581896722832128  0.042274452049589746  1.0000
  H   H15       1.0  0.4418037385419639  0.43046059673378784  0.45772708963907865  1.0000
  H   H16       1.0  0.016336728108647974  0.5268241711610813  0.4577963030404248  1.0000
  H   H17       1.0  0.5994492574052614  0.1849665017431334  0.956362242089277  1.0000
  H   H18       1.0  0.3567480820974043  0.2716496349594877  0.9563954855670005  1.0000
  H   H19       1.0  0.7283503819659886  0.6432499753645332  0.5436042692745602  1.0000
  H   H20       1.0  0.8150288835738666  0.40055205288651063  0.5436367409992614  1.0000
  H   H21       1.0  0.4005533005637147  0.8150312218523653  0.043638621950705704  1.0000
  H   H22       1.0  0.6432505540484499  0.7283501847082121  0.04360519303941864  1.0000
  H   H23       1.0  0.2716461905770516  0.35674804218592737  0.45639734672835897  1.0000
  H   H24       1.0  0.18496980419828904  0.5994458518424536  0.4563625049495599  1.0000
  H   H25       1.0  0.7768589662244098  0.25670496293638934  0.012630730671993768  1.0000
  H   H26       1.0  0.23602918458536948  0.2561646696456563  0.012869027490516808  1.0000
  H   H27       1.0  0.7438343602657869  0.7639673097534755  0.4871282586738063  1.0000
  H   H28       1.0  0.743293651266839  0.22314123967677094  0.48736748498154725  1.0000
  H   H29       1.0  0.22314322741195294  0.74329251453495  0.9873690250708904  1.0000
  H   H30       1.0  0.7639698101915401  0.7438342764167486  0.9871305196643121  1.0000
  H   H31       1.0  0.25616503743655983  0.2360268989396985  0.5128717113709129  1.0000
  H   H32       1.0  0.25670576313495996  0.7768570119836724  0.5126302443132502  1.0000
  H   H33       1.0  0.19394190489901322  0.13518780198817376  0.08394661300189199  1.0000
  H   H34       1.0  0.8901789811889458  0.44850929636160697  0.0836572385478861  1.0000
  H   H35       1.0  0.5514897326915218  0.10982149642313033  0.41634280899186393  1.0000
  H   H36       1.0  0.8648133976154142  0.8060579229749579  0.41605550585296686  1.0000
  H   H37       1.0  0.8060591628482431  0.8648150403335254  0.9160527430055938  1.0000
  H   H38       1.0  0.10982359184911433  0.5514916411053932  0.9163466114899421  1.0000
  H   H39       1.0  0.4485118599688249  0.8901769669359754  0.5836555970886153  1.0000
  H   H40       1.0  0.13518692680273867  0.1939405294479997  0.5839476075584642  1.0000
  H   H41       1.0  0.34611229408670147  0.12267528110039194  0.16310572109135535  1.0000
  H   H42       1.0  0.8173723212118986  0.5401200754869678  0.16293222561628087  1.0000
  H   H43       1.0  0.45987777999301477  0.1826289490678477  0.3370668965327113  1.0000
  H   H44       1.0  0.877325657113296  0.6538883745705631  0.3368966464768164  1.0000
  H   H45       1.0  0.6538895576180579  0.8773271129435047  0.8368929253531974  1.0000
  H   H46       1.0  0.18262831387697542  0.4598803926820454  0.8370696955016258  1.0000
  H   H47       1.0  0.5401220691027577  0.8173718220621284  0.6629320008999002  1.0000
  H   H48       1.0  0.12267255004015018  0.3461100453570441  0.6631051037404917  1.0000
  H   H49       1.0  0.1989414033614807  0.8263909530523535  0.14272959381118258  1.0000
  H   H50       1.0  0.9440633304307724  0.8161987345560606  0.14273945582676362  1.0000
  H   H51       1.0  0.18380108680769072  0.05593795219046173  0.35726128787246847  1.0000
  H   H52       1.0  0.17360802880019585  0.8010589300309193  0.3572695387787874  1.0000
  H   H53       1.0  0.8010604540448372  0.1736125607209901  0.857271292382059  1.0000
  H   H54       1.0  0.05593046654367853  0.18380103159610442  0.8572586402285368  1.0000
  H   H55       1.0  0.8161985350122124  0.9440661450935008  0.6427381144439934  1.0000
  H   H56       1.0  0.8263884327530706  0.19894165235071168  0.6427289695424108  1.0000
  H   H57       1.0  0.050710298445622484  0.8556175920855795  0.06682386604500577  1.0000
  H   H58       1.0  0.016295178315211004  0.7111224853293407  0.0667651133502289  1.0000
  H   H59       1.0  0.28887736458278124  0.9837061527886278  0.43323617722782615  1.0000
  H   H60       1.0  0.14438363792902467  0.9492925372549905  0.4331768847494502  1.0000
  H   H61       1.0  0.949290349676744  0.14438594463809545  0.9331773078225112  1.0000
  H   H62       1.0  0.9837007265564213  0.288875219176113  0.9332335996500447  1.0000
  H   H63       1.0  0.7111227915177453  0.01629565967479608  0.5667630214107859  1.0000
  H   H64       1.0  0.8556148835610957  0.05070887283127946  0.5668221796747801  1.0000
  H   H65       1.0  0.48153668335307037  0.055282110541000434  0.18217469688400464  1.0000
  H   H66       1.0  0.7011447357565288  0.626503563129596  0.18215334993703897  1.0000
  H   H67       1.0  0.3734995625660248  0.2988589703643073  0.31784985102930113  1.0000
  H   H68       1.0  0.9447174729138937  0.5184613944684103  0.31782519234490547  1.0000
  H   H69       1.0  0.5184646210375733  0.9447194997687732  0.8178249004887804  1.0000
  H   H70       1.0  0.29885529469036254  0.3734969165145755  0.8178487150180089  1.0000
  H   H71       1.0  0.6265031397916303  0.7011442743345456  0.6821496391925663  1.0000
  H   H72       1.0  0.055280440268284096  0.4815390526804182  0.6821755094160126  1.0000
  H   H73       1.0  0.6294220439592523  0.03403581793212139  0.26052638509697357  1.0000
  H   H74       1.0  0.631594487572194  0.7261830233322046  0.2604114584549322  1.0000
  H   H75       1.0  0.27382117845263565  0.3684081596861831  0.2395888430676081  1.0000
  H   H76       1.0  0.9659659775082756  0.3705760766305843  0.23947334013053737  1.0000
  H   H77       1.0  0.3705776831488594  0.9659645947912172  0.7394738851525205  1.0000
  H   H78       1.0  0.36840723481297055  0.27381706347983964  0.7395915478055884  1.0000
  H   H79       1.0  0.7261806065567314  0.6315929354249477  0.76040825003669  1.0000
  H   H80       1.0  0.034032421994183576  0.6294249750490409  0.7605270971105824  1.0000
  H   H81       1.0  0.4517807385009007  0.8431736735651327  0.3131098969449511  1.0000
  H   H82       1.0  0.8614782301678544  0.9699974166836185  0.3127931374141184  1.0000
  H   H83       1.0  0.030005696915296236  0.13852495233232534  0.1872066902427534  1.0000
  H   H84       1.0  0.15682871855428715  0.54822248094969  0.18689176347825762  1.0000
  H   H85       1.0  0.548219833558541  0.15682647008371484  0.6868889773331688  1.0000
  H   H86       1.0  0.13851938334150313  0.030003937956969748  0.6872042761417063  1.0000
  H   H87       1.0  0.9699957351645737  0.8614781361135402  0.812793774061838  1.0000
  H   H88       1.0  0.8431713728864382  0.4517781778978078  0.813109615068342  1.0000
  H   H89       1.0  0.29791020949176783  0.8573800211598128  0.23815661885674902  1.0000
  H   H90       1.0  0.9404518835431406  0.8807046580822587  0.23790243542960363  1.0000
  H   H91       1.0  0.11929640296894922  0.059549591710691595  0.2620986879475424  1.0000
  H   H92       1.0  0.14261874920396173  0.7020933132192441  0.2618442056581998  1.0000
  H   H93       1.0  0.7020898705458408  0.14261839822878383  0.7618402801924588  1.0000
  H   H94       1.0  0.059544578010132826  0.11929592429937229  0.7620960728915875  1.0000
  H   H95       1.0  0.8807055117652355  0.9404531268533631  0.737903005336797  1.0000
  H   H96       1.0  0.8573832228580899  0.29790861013552933  0.7381582947172376  1.0000
  C   C1        1.0  0.9163991022406889  0.17874989346813658  0.07416441379280066  1.0000
  C   C2        1.0  0.15788473406382048  0.39532749079180013  0.07432435567913842  1.0000
  C   C3        1.0  0.6046708123733782  0.8421134951082082  0.42567488583792124  1.0000
  C   C4        1.0  0.8212557411136246  0.08360180074132018  0.4258366401754614  1.0000
  C   C5        1.0  0.08360316745858418  0.8212509770780301  0.9258376415394878  1.0000
  C   C6        1.0  0.8421180772480029  0.6046730437590354  0.9256745089762219  1.0000
  C   C7        1.0  0.3953235038126054  0.1578807723519162  0.5743200205416841  1.0000
  C   C8        1.0  0.17874378794390822  0.9163948605005459  0.5741627033015249  1.0000
  C   C9        1.0  0.8087091452093986  0.12961754344608784  0.04380847392169337  1.0000
  C   C10       1.0  0.2351583935161869  0.41439109721422795  0.04402108298483403  1.0000
  C   C11       1.0  0.5856090414730561  0.7648379612167063  0.45597745534078643  1.0000
  C   C12       1.0  0.8703839629875603  0.19129432928288986  0.45619241432316926  1.0000
  C   C13       1.0  0.19129342212710324  0.8703822742914655  0.9561931363674462  1.0000
  C   C14       1.0  0.7648354034582641  0.5856086689379368  0.9559770130704665  1.0000
  C   C15       1.0  0.41438705208162935  0.235161400628165  0.5440214381828454  1.0000
  C   C16       1.0  0.1296169770704694  0.8087070349027243  0.54380607475251  1.0000
  C   C17       1.0  0.7688317275218779  0.03401476605973391  0.04312331456966951  1.0000
  C   C18       1.0  0.2741332043199307  0.5093587080800219  0.04328949923294801  1.0000
  C   C19       1.0  0.4906429026625362  0.7258649681652828  0.4567089507577933  1.0000
  C   C20       1.0  0.9659857291908339  0.23117075124022085  0.4568798639630743  1.0000
  C   C21       1.0  0.23116932352591862  0.965984033294703  0.9568782821877377  1.0000
  C   C22       1.0  0.7258610029118842  0.4906382695281195  0.9567060327131572  1.0000
  C   C23       1.0  0.5093597293337596  0.2741360031881968  0.5432904796233586  1.0000
  C   C24       1.0  0.034015811843204305  0.7688296270576203  0.54311997477501  1.0000
  C   C25       1.0  0.6672149074601706  0.9946034527813126  0.013014750484416015  1.0000
  C   C26       1.0  0.34544485844934775  0.5186748305067469  0.013056781439083058  1.0000
  C   C27       1.0  0.48132899871851015  0.6545528302185701  0.4869455550992825  1.0000
  C   C28       1.0  0.005395881106650779  0.33278939226605786  0.48698855303171473  1.0000
  C   C29       1.0  0.3327863802310278  0.005394114561191642  0.9869870876382906  1.0000
  C   C30       1.0  0.6545473706100893  0.48132583220104413  0.9869427337420831  1.0000
  C   C31       1.0  0.5186714794558471  0.34545323744980294  0.5130569307431898  1.0000
  C   C32       1.0  0.9946059059383074  0.6672118481619053  0.5130122733208183  1.0000
  C   C33       1.0  0.6056971683124462  0.048352407510130126  0.981876353015899  1.0000
  C   C34       1.0  0.3758136366685606  0.43382171075766973  0.9818801461781064  1.0000
  C   C35       1.0  0.5661793400407761  0.6241871073862414  0.518121426790735  1.0000
  C   C36       1.0  0.9516449082815869  0.3943037435689334  0.5181245639225907  1.0000
  C   C37       1.0  0.3943055173457566  0.9516467942214606  0.018125377955890067  1.0000
  C   C38       1.0  0.6241821592489032  0.5661787038958082  0.018119192388674397  1.0000
  C   C39       1.0  0.43381744928788635  0.375818849929793  0.4818826084830121  1.0000
  C   C40       1.0  0.04835723372846715  0.6056956488411417  0.4818766244778915  1.0000
  C   C41       1.0  0.6452401971998399  0.14267775736405497  0.9816369862730098  1.0000
  C   C42       1.0  0.3362597586809812  0.3392212614309075  0.9816919751042691  1.0000
  C   C43       1.0  0.660777624294532  0.6637384096530072  0.5183075267681901  1.0000
  C   C44       1.0  0.8573207711052646  0.3547611168625195  0.5183623622410565  1.0000
  C   C45       1.0  0.35476243113048866  0.857322239576817  0.01836393760768837  1.0000
  C   C46       1.0  0.6637356025425093  0.6607766337530306  0.018306195324697756  1.0000
  C   C47       1.0  0.3392169774080644  0.3362652418223036  0.4816950854707116  1.0000
  C   C48       1.0  0.14267822367164482  0.6452378291998854  0.4816371849137724  1.0000
  C   C49       1.0  0.7457454594275958  0.18355503387939365  0.013374285275794867  1.0000
  C   C50       1.0  0.26771068758921496  0.33006018850869623  0.013541929186310106  1.0000
  C   C51       1.0  0.6699380791557773  0.7322860115333327  0.48645492524671147  1.0000
  C   C52       1.0  0.8164444983785586  0.2542568982194383  0.4866243813163039  1.0000
  C   C53       1.0  0.2542574665399615  0.816443910252872  0.9866261935617544  1.0000
  C   C54       1.0  0.732285032265338  0.6699368330699613  0.9864551097910665  1.0000
  C   C55       1.0  0.33005958434952026  0.2677125990727589  0.5135462823992825  1.0000
  C   C56       1.0  0.18355479770153962  0.7457419694469678  0.513373227295844  1.0000
  C   C57       1.0  0.19841311226701924  0.06908202733600183  0.09928112687941143  1.0000
  C   C58       1.0  0.9010413478455916  0.5299702262853359  0.09905388467561954  1.0000
  C   C59       1.0  0.47002749673804806  0.09896207620281673  0.400945867524051  1.0000
  C   C60       1.0  0.9309197883930409  0.8015861865294839  0.40072212478612107  1.0000
  C   C61       1.0  0.8015895197292765  0.9309189440174778  0.9007183035017478  1.0000
  C   C62       1.0  0.09896310011222911  0.470030855959493  0.9009488474423506  1.0000
  C   C63       1.0  0.5299708209999352  0.9010344626725343  0.599050030378983  1.0000
  C   C64       1.0  0.06908059335298597  0.19841147068418516  0.5992817957164078  1.0000
  C   C65       1.0  0.2829797599892744  0.06055738783447141  0.14279239163339952  1.0000
  C   C66       1.0  0.8600786977630362  0.5819530443198672  0.14261826234773886  1.0000
  C   C67       1.0  0.41804624723103256  0.13992202645484036  0.3573825272044786  1.0000
  C   C68       1.0  0.9394461349213046  0.7170202730213546  0.35721201747112025  1.0000
  C   C69       1.0  0.7170196064521834  0.939443753177308  0.8572052768194568  1.0000
  C   C70       1.0  0.13992212234292392  0.41804810677594173  0.857385332793065  1.0000
  C   C71       1.0  0.5819569800397135  0.860076839281419  0.6426160130903896  1.0000
  C   C72       1.0  0.060555219465279  0.2829785932539154  0.642791373991834  1.0000
  C   C73       1.0  0.2856434717871609  0.9728588319278728  0.1599272143615097  1.0000
  C   C74       1.0  0.8746180306014538  0.6868225824364346  0.15982351391253516  1.0000
  C   C75       1.0  0.3131768253334144  0.12538399500386535  0.3401770629545666  1.0000
  C   C76       1.0  0.027143230413102622  0.7143565236191948  0.34007573706074373  1.0000
  C   C77       1.0  0.7143591602091349  0.02714213942560656  0.8400722160196495  1.0000
  C   C78       1.0  0.1253826654812473  0.3131780649358973  0.8401777207969232  1.0000
  C   C79       1.0  0.6868213318240919  0.8746171689582384  0.6598208931725651  1.0000
  C   C80       1.0  0.9728567296724364  0.28564168267960344  0.6599262680535887  1.0000
  C   C81       1.0  0.20006555618110866  0.8975842115544381  0.133038566606821  1.0000
  C   C82       1.0  0.9332402509276677  0.7352886141708838  0.1329869859321847  1.0000
  C   C83       1.0  0.2647110275030542  0.06676167681868604  0.36701479953511296  1.0000
  C   C84       1.0  0.10241423659690702  0.7999347005068317  0.3669633283233082  1.0000
  C   C85       1.0  0.7999373697864557  0.10241473257782736  0.8669619122307213  1.0000
  C   C86       1.0  0.06675583896105769  0.26470977326138023  0.8670134010909863  1.0000
  C   C87       1.0  0.7352885239554966  0.9332401471199037  0.6329845429406405  1.0000
  C   C88       1.0  0.8975871824494704  0.20006531938436478  0.6330378832316583  1.0000
  C   C89       1.0  0.11842493914358702  0.9119778940060358  0.0900667979547478  1.0000
  C   C90       1.0  0.9718450662162612  0.6779776832854978  0.08997601873235798  1.0000
  C   C91       1.0  0.3220199519085796  0.028159595115226844  0.410026079413079  1.0000
  C   C92       1.0  0.08802287210954073  0.881576211007392  0.40993508574560883  1.0000
  C   C93       1.0  0.8815758825927419  0.08802408618554848  0.9099315704382818  1.0000
  C   C94       1.0  0.02815554647160215  0.32201762218679164  0.9100259033867742  1.0000
  C   C95       1.0  0.6779777095611196  0.9718388701740255  0.589971394984687  1.0000
  C   C96       1.0  0.9119765536953752  0.1184242801119454  0.5900671230465734  1.0000
  C   C97       1.0  0.3756141106779368  0.9595911556828655  0.20408350257678626  1.0000
  C   C98       1.0  0.8288295580099927  0.7442572133732029  0.20397482296744576  1.0000
  C   C99       1.0  0.2557448627548952  0.1711714288024809  0.29602550852069254  1.0000
  C   C100      1.0  0.04041025949878471  0.6243876915876853  0.2959190178340521  1.0000
  C   C101      1.0  0.6243843534843165  0.04041104961269335  0.7959147547563603  1.0000
  C   C102      1.0  0.17116841250005188  0.255742438566344  0.7960266858845629  1.0000
  C   C103      1.0  0.7442563843078815  0.8288309767165741  0.7039732817609945  1.0000
  C   C104      1.0  0.9595900873203788  0.37561592353198847  0.7040840945761532  1.0000
  C   C105      1.0  0.471261259276993  0.008902584079876895  0.21088454126736883  1.0000
  C   C106      1.0  0.7400787942936873  0.7016843109526506  0.21080160139707252  1.0000
  C   C107      1.0  0.29831864763985294  0.2599244481473378  0.2891992924679699  1.0000
  C   C108      1.0  0.9910995802930388  0.5287358124031202  0.28911617003188905  1.0000
  C   C109      1.0  0.5287413210929943  0.9911003022123385  0.7891163217713882  1.0000
  C   C110      1.0  0.25992244543716236  0.2983161457411967  0.7892001758836997  1.0000
  C   C111      1.0  0.70168307637568  0.7400764677604669  0.7107984870447764  1.0000
  C   C112      1.0  0.008897964890557943  0.47126341420893436  0.7108849169314624  1.0000
  C   C113      1.0  0.5541765583524382  0.9963514398101909  0.25372721012243465  1.0000
  C   C114      1.0  0.6999721927019353  0.7571269677349975  0.25360460997465856  1.0000
  C   C115      1.0  0.24287802290012192  0.30002713734401715  0.2463956221666095  1.0000
  C   C116      1.0  0.00365247653140706  0.44582492503040794  0.2462745753530413  1.0000
  C   C117      1.0  0.4458240230745362  0.0036507979807111827  0.7462724104048348  1.0000
  C   C118      1.0  0.300026689454839  0.24287371406282435  0.7463970562462166  1.0000
  C   C119      1.0  0.7571242963898613  0.6999716729465676  0.7536012672598461  1.0000
  C   C120      1.0  0.9963471895828777  0.5541753084896044  0.753726381304901  1.0000
  C   C121      1.0  0.4557373456943025  0.8888671939685865  0.2829672584433068  1.0000
  C   C122      1.0  0.8274747906626416  0.8940501976207643  0.2827104815717192  1.0000
  C   C123      1.0  0.10595499708646375  0.1725257438396568  0.21729005084953462  1.0000
  C   C124      1.0  0.11113718716016052  0.5442664615587703  0.2170350940157562  1.0000
  C   C125      1.0  0.5442631080434456  0.11113356568622394  0.7170314951521635  1.0000
  C   C126      1.0  0.1725214915751041  0.10595082156351777  0.7172885924752778  1.0000
  C   C127      1.0  0.8940482395518077  0.827475216038657  0.7827092356944833  1.0000
  C   C128      1.0  0.8888638732551615  0.45573443193772084  0.7829672489908078  1.0000
  C   C129      1.0  0.36941836810125755  0.8979657265146131  0.240986145280182  1.0000
  C   C130      1.0  0.8718142101951686  0.8429138361116415  0.24076720981302904  1.0000
  C   C131      1.0  0.15708763602869882  0.1281870347870822  0.2592326581494007  1.0000
  C   C132      1.0  0.10203700410669113  0.630583362701259  0.2590153648870483  1.0000
  C   C133      1.0  0.6305824406015859  0.10203318512230194  0.7590129703632371  1.0000
  C   C134      1.0  0.12818527090202284  0.1570857144815675  0.7592320728220158  1.0000
  C   C135      1.0  0.8429148260195944  0.8718164675111028  0.7407680842067067  1.0000
  C   C136      1.0  0.8979653839142756  0.36941689183894516  0.7409868111278826  1.0000
  S   S1        1.0  0.8448489455540482  0.957339687994434  0.07795659736087411  1.0000
  S   S2        1.0  0.232919044904591  0.6209511891463536  0.07802383653850602  1.0000
  S   S3        1.0  0.3790541162497619  0.7670828517668085  0.4219793178160601  1.0000
  S   S4        1.0  0.04266289799146264  0.15515627534365  0.42204852318057823  1.0000
  S   S5        1.0  0.15514878261104315  0.04266007622758395  0.9220424303771466  1.0000
  S   S6        1.0  0.7670785576068797  0.37904724225641917  0.9219780575159362  1.0000
  S   S7        1.0  0.62094815141392  0.23291787346251164  0.5780190042679934  1.0000
  S   S8        1.0  0.957341425943099  0.8448443031776947  0.5779518485060536  1.0000
  N   N1        1.0  0.11784923940899014  0.9953488330572426  0.07293660104757292  1.0000
  N   N2        1.0  0.9551988087843524  0.5774588870075306  0.0727706592337754  1.0000
  N   N3        1.0  0.42254163557961993  0.04480714679088752  0.4272321876988983  1.0000
  N   N4        1.0  0.004653623278223111  0.8821515599102625  0.4270650796699158  1.0000
  N   N5        1.0  0.8821524236127162  0.004651903647243222  0.9270618648736217  1.0000
  N   N6        1.0  0.04480685049301783  0.42254231760381344  0.9272355184581471  1.0000
  N   N7        1.0  0.5774609719800737  0.9551885165490361  0.5727635104352515  1.0000
  N   N8        1.0  0.9953463941351829  0.11784585117925422  0.5729377325355146  1.0000
  N   N9        1.0  0.5466791787052685  0.937694533964681  0.28939333728654765  1.0000
  N   N10       1.0  0.7430756953387603  0.851569853375729  0.28921337478433884  1.0000
  N   N11       1.0  0.14843659360973052  0.25692453851886654  0.21078573137204873  1.0000
  N   N12       1.0  0.062311128998395346  0.4533210459110962  0.2106088838181392  1.0000
  N   N13       1.0  0.45331988643300053  0.06230668544310461  0.7106062697089968  1.0000
  N   N14       1.0  0.25692307216228016  0.14843241884066313  0.7107866772543474  1.0000
  N   N15       1.0  0.8515682015760292  0.7430734306617736  0.7892113897969536  1.0000
  N   N16       1.0  0.9376898130952328  0.5466804635913577  0.789393338505775  1.0000
  O   O1        1.0  0.9869066081006751  0.14224172179312694  0.05801190923469343  1.0000
  O   O2        1.0  0.0712841332015088  0.41584901576947436  0.05829462535977829  1.0000
  O   O3        1.0  0.5841487535925651  0.9287207386916594  0.441706431064226  1.0000
  O   O4        1.0  0.8577631519235639  0.013097914161520022  0.441987668158852  1.0000
  O   O5        1.0  0.013095300931951541  0.857759877041481  0.9419875443009503  1.0000
  O   O6        1.0  0.9287171748551019  0.5841535689528995  0.9417034785134675  1.0000
  O   O7        1.0  0.41584069419671016  0.07128055288838202  0.5582873244206183  1.0000
  O   O8        1.0  0.14223863512140164  0.98690332626645  0.558013158193681  1.0000
  O   O9        1.0  0.9318205088394365  0.26432167418824554  0.11554953526477625  1.0000
  O   O10       1.0  0.18383640081239608  0.3507050655363814  0.11547305603620123  1.0000
  O   O11       1.0  0.6492929090081179  0.8161668216508245  0.38452495194874814  1.0000
  O   O12       1.0  0.7356823273706823  0.0681827107497598  0.38445019840563804  1.0000
  O   O13       1.0  0.06818319375369712  0.7356748728409956  0.8844532210089185  1.0000
  O   O14       1.0  0.8161635113128016  0.6492960301137601  0.8845288882361971  1.0000
  O   O15       1.0  0.3506975500145374  0.1838306954974271  0.615467589089306  1.0000
  O   O16       1.0  0.26432005128276603  0.931815449648383  0.6155512313601434  1.0000
  O   O17       1.0  0.9160410798928993  0.02264156969364702  0.13597091669669945  1.0000
  O   O18       1.0  0.21961206789090681  0.6139899659889139  0.13603353684354152  1.0000
  O   O19       1.0  0.38601350574517584  0.7803873136362114  0.3639669122782721  1.0000
  O   O20       1.0  0.9773530068309454  0.08396167194512577  0.3640327725854534  1.0000
  O   O21       1.0  0.08395584191367801  0.9773534801094642  0.8640288216054799  1.0000
  O   O22       1.0  0.7803847486274622  0.3860087683748291  0.8639653335256058  1.0000
  O   O23       1.0  0.6139909251079702  0.2196104094202695  0.6360291005936247  1.0000
  O   O24       1.0  0.022652724438145803  0.9160426351073596  0.6359682381994105  1.0000
  O   O25       1.0  0.8951937751682594  0.9134062316456523  0.031172199663267088  1.0000
  O   O26       1.0  0.135831290216835  0.6179183605050583  0.031114232116735287  1.0000
  O   O27       1.0  0.382088426054672  0.8641694719371175  0.4688877183245451  1.0000
  O   O28       1.0  0.08659657755745101  0.10480811465082959  0.46883102504891383  1.0000
  O   O29       1.0  0.10480298768820275  0.08659427233997985  0.9688243701152431  1.0000
  O   O30       1.0  0.8641664118812786  0.38207526660763613  0.9688862901220504  1.0000
  O   O31       1.0  0.617917460093338  0.13582909029916831  0.5311089944875249  1.0000
  O   O32       1.0  0.9134050838338793  0.8951917929578883  0.5311726676200479  1.0000
  O   O33       1.0  0.7760451253481051  0.8806731235123878  0.08483424819728926  1.0000
  O   O34       1.0  0.3086292259358885  0.704465280527245  0.0848643891416145  1.0000
  O   O35       1.0  0.29553564163467183  0.6913742971228204  0.41514132953678035  1.0000
  O   O36       1.0  0.11932893224594217  0.2239561312427157  0.41517006632027187  1.0000
  O   O37       1.0  0.22394921323889613  0.11932630664445303  0.9151606571810831  1.0000
  O   O38       1.0  0.6913723557265642  0.29553025959403817  0.9151384974374822  1.0000
  O   O39       1.0  0.7044631201648103  0.3086268553641248  0.5848564827532172  1.0000
  O   O40       1.0  0.8806801417636266  0.7760380391646748  0.5848313355784711  1.0000
