data_image0
_chemical_formula_structural       Mg4H32C48O20
_chemical_formula_sum              "Mg4 H32 C48 O20"
_cell_length_a       6.957066862206959
_cell_length_b       12.880229617
_cell_length_c       17.3162
_cell_angle_alpha    90.0
_cell_angle_beta     90.96185063910595
_cell_angle_gamma    90.0

_space_group_name_H-M_alt    "P 1"
_space_group_IT_number       1

loop_
  _space_group_symop_operation_xyz
  'x, y, z'

loop_
  _atom_site_type_symbol
  _atom_site_label
  _atom_site_symmetry_multiplicity
  _atom_site_fract_x
  _atom_site_fract_y
  _atom_site_fract_z
  _atom_site_occupancy
  Mg  Mg1       1.0  0.5000024030034496  0.5000004030595875  1.92193652280083e-06  1.0000
  Mg  Mg2       1.0  0.49999952782359  7.76383672e-07  0.4999984375819437  1.0000
  Mg  Mg3       1.0  0.0  0.4999988502922364  5.774939068999999e-07  1.0000
  Mg  Mg4       1.0  0.9999990556471727  3.8819183743e-06  0.49999976263342205  1.0000
  H   H1        1.0  0.7308879712132281  0.359976501807111  0.9480756449224471  1.0000
  H   H2        1.0  0.2690995837145138  0.8599776812503706  0.5519234626525246  1.0000
  H   H3        1.0  0.2691067716641555  0.6400235279283848  0.05192524361208229  1.0000
  H   H4        1.0  0.7308994719326662  0.1400239012524764  0.44807514499307627  1.0000
  H   H5        1.0  0.8042956257809024  0.3529673099926356  0.035506662486717695  1.0000
  H   H6        1.0  0.1957063050461301  0.8529661602848722  0.46449196455002095  1.0000
  H   H7        1.0  0.19570342986627046  0.6470334961265324  0.9644936776406111  1.0000
  H   H8        1.0  0.8042927506010428  0.1470323166832728  0.535507220589487  1.0000
  H   H9        1.0  0.9768955478909334  0.3508307021200849  0.2114359803799886  1.0000
  H   H10       1.0  0.0231092581159658  0.8508287760286422  0.28856151106006667  1.0000
  H   H11       1.0  0.0231121332958182  0.6491685512317389  0.7885626854390182  1.0000
  H   H12       1.0  0.9768984230707929  0.1491689245558234  0.7114388872406606  1.0000
  H   H13       1.0  0.9801157493329027  0.2416447604235259  0.3305340546945388  1.0000
  H   H14       1.0  0.0198890566739891  0.7416373996463649  0.1694651692272373  1.0000
  H   H15       1.0  0.0198861814941296  0.758356822079314  0.6694645723421998  1.0000
  H   H16       1.0  0.980121499692622  0.2583556426360545  0.8305387134280693  1.0000
  H   H17       1.0  0.5372690467446688  0.2488954075608092  0.0745068492448198  1.0000
  H   H18       1.0  0.4627328840823708  0.7489027980734664  0.42549466526145346  1.0000
  H   H19       1.0  0.4627285713125815  0.7510945291869149  0.9254900162234989  1.0000
  H   H20       1.0  0.5372704843345915  0.2511042191150992  0.5745057039525674  1.0000
  H   H21       1.0  0.7959719800893694  0.11909492653573753  0.0955791907962933  1.0000
  H   H22       1.0  0.20402851314773324  0.619097658746341  0.4044228915083251  1.0000
  H   H23       1.0  0.2040256379678738  0.880897339363017  0.904418829659839  1.0000
  H   H24       1.0  0.795980605628948  0.3809023709891548  0.5955832914270472  1.0000
  H   H25       1.0  0.7983871311708484  0.0092156742177423  0.21451533474439793  1.0000
  H   H26       1.0  0.2016191124259734  0.5092137481263066  0.2854879413303024  1.0000
  H   H27       1.0  0.2016133620662544  0.9907835791340746  0.7854855925724066  1.0000
  H   H28       1.0  0.7983914439406374  0.49078705799286854  0.714517096312818  1.0000
  H   H29       1.0  0.5463776165376828  0.029313918402643004  0.3109625238981408  1.0000
  H   H30       1.0  0.45362143910949015  0.5293073340091539  0.1890360837474674  1.0000
  H   H31       1.0  0.45362143910949015  0.970686887716532  0.689038971217002  1.0000
  H   H32       1.0  0.5463776165376828  0.470693472110014  0.8109631013920477  1.0000
  C   C1        1.0  0.23789094393600857  0.3646868215610298  0.10394730551613658  1.0000
  C   C2        1.0  0.7621037989413821  0.8646887773879685  0.3960512730427652  1.0000
  C   C3        1.0  0.7621109868910237  0.6353116554071151  0.896051899014509  1.0000
  C   C4        1.0  0.2378895063460789  0.1353159106495738  0.6039472958205678  1.0000
  C   C5        1.0  0.2442264027551104  0.109591990358382  0.38040749267577206  1.0000
  C   C6        1.0  0.7557798408417113  0.6095892878832672  0.11959289592939368  1.0000
  C   C7        1.0  0.7557827160215709  0.8904080393771139  0.619592337826617  1.0000
  C   C8        1.0  0.24423071552489967  0.3904107418522287  0.8804086767502851  1.0000
  C   C9        1.0  0.2429900754157828  0.290561590226659  0.1704298771640111  1.0000
  C   C10       1.0  0.7570089802313973  0.7905612169025673  0.3295704629633107  1.0000
  C   C11       1.0  0.757010417821327  0.7094353339741417  0.8295681626832516  1.0000
  C   C12       1.0  0.2429814498762042  0.2094419183676237  0.6704292414967057  1.0000
  C   C13       1.0  0.09428433552319859  0.2964799629782888  0.22245937852463976  1.0000
  C   C14       1.0  0.9057147201239815  0.796477260503174  0.27754269408440985  1.0000
  C   C15       1.0  0.9057204704836934  0.703519290373535  0.7775410003849501  1.0000
  C   C16       1.0  0.0942785851634795  0.2035274275343681  0.722457607260651  1.0000
  C   C17       1.0  0.09663910782764157  0.23534363052031185  0.28955406468201517  1.0000
  C   C18       1.0  0.9033685733591099  0.735340928045197  0.21044575612480537  1.0000
  C   C19       1.0  0.9033685733591099  0.7646540700641611  0.7104446011369914  1.0000
  C   C20       1.0  0.0966347950578523  0.2646591016902988  0.7895569230648505  1.0000
  C   C21       1.0  0.24692619664262586  0.16767247667305446  0.30542310222803337  1.0000
  C   C22       1.0  0.7530699838246944  0.6676705505816116  0.19457779600206485  1.0000
  C   C23       1.0  0.7530714214146244  0.8323252239114183  0.6945760732159059  1.0000
  C   C24       1.0  0.2469305094124081  0.3323310319212283  0.8054254412903674  1.0000
  C   C25       1.0  0.398514304343756  0.1550872973074604  0.25112789708752803  1.0000
  C   C26       1.0  0.6014833137134871  0.6550869239833688  0.24887185585032506  1.0000
  C   C27       1.0  0.6014818761235574  0.8449088505096611  0.7488701136730354  1.0000
  C   C28       1.0  0.3985114291639036  0.3449185404378525  0.7511278776963976  1.0000
  C   C29       1.0  0.3964743642338675  0.21816614171933682  0.1824570434103023  1.0000
  C   C30       1.0  0.6035189410535935  0.7181665447789173  0.3175438354286655  1.0000
  C   C31       1.0  0.6035232538233828  0.7818292297141127  0.817542132033644  1.0000
  C   C32       1.0  0.3964729266439377  0.2818358141076018  0.6824564562208264  1.0000
  C   C33       1.0  0.5423883044834454  0.2026128475656677  0.1270580936075731  1.0000
  C   C34       1.0  0.4576035632140787  0.7026155797762713  0.3729421980419189  1.0000
  C   C35       1.0  0.4576035632140787  0.7973809711004307  0.8729381555845706  1.0000
  C   C36       1.0  0.5423926172532347  0.2973867791102407  0.6270598551759929  1.0000
  C   C37       1.0  0.6851467348378861  0.1298144559312178  0.1386976095549102  1.0000
  C   C38       1.0  0.3148551959891535  0.6298164117581493  0.3613050599391769  1.0000
  C   C39       1.0  0.3148465704495749  0.8701793627348806  0.8613015368023297  1.0000
  C   C40       1.0  0.6851467348378861  0.3701867235120417  0.6386976095549101  1.0000
  C   C41       1.0  0.6868445285445687  0.067733264541225  0.205922420918597  1.0000
  C   C42       1.0  0.3131660278220422  0.567728232915087  0.2940791517610818  1.0000
  C   C43       1.0  0.3131602774623232  0.9322675415779429  0.7940779579909999  1.0000
  C   C44       1.0  0.686843090954639  0.4322710204367297  0.7059218337291212  1.0000
  C   C45       1.0  0.5462252320051562  0.0793681502890848  0.2604076795108056  1.0000
  C   C46       1.0  0.45378101159166556  0.5793631186629469  0.23959328658826706  1.0000
  C   C47       1.0  0.453772386052087  0.9206303266790601  0.7395926509209545  1.0000
  C   C48       1.0  0.546220919235374  0.4206392402235721  0.7604059179423783  1.0000
  O   O1        1.0  0.0754260308286305  0.38044119908642676  0.0706545722754583  1.0000
  O   O2        1.0  0.92457014963869  0.8804439312970374  0.42934401597900507  1.0000
  O   O3        1.0  0.9245744624084791  0.6195596070327412  0.9293475100291531  1.0000
  O   O4        1.0  0.0754188428789817  0.11956075674050483  0.5706562562793493  1.0000
  O   O5        1.0  0.3917331926465266  0.4112799350260232  0.0862394146889258  1.0000
  O   O6        1.0  0.6082629878207868  0.9112865491550013  0.4137528211325616  1.0000
  O   O7        1.0  0.6082701757704356  0.5887154364074263  0.91375633457384  1.0000
  O   O8        1.0  0.3917274422868076  0.08872202080091543  0.5862393759066575  1.0000
  O   O9        1.0  0.0824256561951344  0.0772066981389443  0.4035698457331519  1.0000
  O   O10       1.0  0.9175633363225302  0.5772001137454552  0.09643158151302338  1.0000
  O   O11       1.0  0.9175762746318981  0.9227964371312467  0.5964316687731213  1.0000
  O   O12       1.0  0.0824414696843618  0.4228006923737126  0.9035705298782941  1.0000
  O   O13       1.0  0.4027293180169166  0.0972769925115529  0.4171315384515068  1.0000
  O   O14       1.0  0.5972625496806144  0.5972773955711403  0.0828670207162645  1.0000
  O   O15       1.0  0.5972740504000456  0.902724589991287  0.5828665207868937  1.0000
  O   O16       1.0  0.4027408187363548  0.4027226341643555  0.9171339259916707  1.0000
  O   O17       1.0  0.7481361751868079  0.3993500234818087  0.9959432110598954  1.0000
  O   O18       1.0  0.2518556925107163  0.8993519793087401  0.5040565030956898  1.0000
  O   O19       1.0  0.2518628804603651  0.6006492298700152  0.0040571290674336  1.0000
  O   O20       1.0  0.7481361751868079  0.1006496031941069  0.49594321105989536  1.0000
