data_image0
_chemical_formula_structural       Cd4H32C40N32O4
_chemical_formula_sum              "Cd4 H32 C40 N32 O4"
_cell_length_a       7.441153356199452
_cell_length_b       10.463318949572066
_cell_length_c       16.60901821501433
_cell_angle_alpha    89.99997934909611
_cell_angle_beta     90.00014665421996
_cell_angle_gamma    110.351578986803

_space_group_name_H-M_alt    "P 1"
_space_group_IT_number       1

loop_
  _space_group_symop_operation_xyz
  'x, y, z'

loop_
  _atom_site_type_symbol
  _atom_site_label
  _atom_site_symmetry_multiplicity
  _atom_site_fract_x
  _atom_site_fract_y
  _atom_site_fract_z
  _atom_site_occupancy
  Cd  Cd1       1.0  0.9096858187041478  0.10267656845029191  0.2077135688205374  1.0000
  Cd  Cd2       1.0  0.5903132438464882  0.8973241233183632  0.7077145563204397  1.0000
  Cd  Cd3       1.0  0.09031673389959859  0.8973245725785903  0.7922863976447942  1.0000
  Cd  Cd4       1.0  0.409683924753331  0.1026770002457766  0.2922848080592715  1.0000
  H   H1        1.0  0.7958578783243055  0.08937071227879302  0.0277335713542683  1.0000
  H   H2        1.0  0.7041409229654718  0.9106287945396331  0.5277328797968011  1.0000
  H   H3        1.0  0.20414234281972204  0.9106283857000649  0.9722669971925059  1.0000
  H   H4        1.0  0.2958597909090912  0.0893713227813251  0.4722676887501436  1.0000
  H   H5        1.0  0.6348162976369736  0.43270062619026833  0.9582225166165586  1.0000
  H   H6        1.0  0.8651834629074743  0.567301317133655  0.4582195692707031  1.0000
  H   H7        1.0  0.3651854016986604  0.5673015298148912  0.041778051930720005  1.0000
  H   H8        1.0  0.13481958242121547  0.43270084323647495  0.5417785909471604  1.0000
  H   H9        1.0  0.06682918004941744  0.403396088024465  0.2268159288571781  1.0000
  H   H10       1.0  0.4331722869873219  0.5966023736754099  0.7268143643959348  1.0000
  H   H11       1.0  0.9331715338251456  0.5966040292964934  0.7731846396897666  1.0000
  H   H12       1.0  0.5668242566834183  0.40339467688531283  0.27318259165367925  1.0000
  H   H13       1.0  0.06179486866618331  0.6320077761576002  0.2624790562501147  1.0000
  H   H14       1.0  0.438210989401597  0.3679937859803033  0.7624757418413423  1.0000
  H   H15       1.0  0.938203513748661  0.3679902981133197  0.7375221143782653  1.0000
  H   H16       1.0  0.5617892317349773  0.6320053119974177  0.2375224183752422  1.0000
  H   H17       1.0  0.889562515516488  0.7452035161344952  0.1763317397453292  1.0000
  H   H18       1.0  0.6104425899636324  0.2547961484839548  0.6763292798120516  1.0000
  H   H19       1.0  0.1104368523631507  0.2547965968212011  0.8236706350484866  1.0000
  H   H20       1.0  0.38956032317583594  0.7452029582262798  0.32366948248861865  1.0000
  H   H21       1.0  0.7299585882914671  0.6341923484920075  0.0495342804252346  1.0000
  H   H22       1.0  0.7700430399914567  0.3658071876459418  0.5495307742467049  1.0000
  H   H23       1.0  0.27004261831549314  0.36580878817132867  0.9504668902044245  1.0000
  H   H24       1.0  0.22995718114697886  0.6341919103320562  0.4504679880524236  1.0000
  H   H25       1.0  0.8731190744523686  0.8962107946507276  0.08730598191769451  1.0000
  H   H26       1.0  0.6268810812026117  0.10379080711251729  0.5873059824956712  1.0000
  H   H27       1.0  0.12687845469435644  0.10378829459646254  0.9126957907926397  1.0000
  H   H28       1.0  0.3731187794019706  0.8962103251844201  0.41269458605067644  1.0000
  H   H29       1.0  0.09694831002092028  0.9434536344675308  0.1121185589744584  1.0000
  H   H30       1.0  0.40305307168200244  0.05654879191538951  0.6121194878081653  1.0000
  H   H31       1.0  0.9030515505836547  0.056547497829413415  0.8878820095718823  1.0000
  H   H32       1.0  0.5969467889225725  0.9434523403815547  0.3878810807381825  1.0000
  C   C1        1.0  0.797007609298632  0.19265610472928077  0.0382001636015232  1.0000
  C   C2        1.0  0.7029930955366125  0.8073444356820332  0.5381994935654362  1.0000
  C   C3        1.0  0.20299126584487945  0.8073429888834556  0.9618004049444835  1.0000
  C   C4        1.0  0.2970081110647556  0.19265670098045012  0.4617998708165842  1.0000
  C   C5        1.0  0.7044141253919635  0.2525313091223965  0.9829808127560186  1.0000
  C   C6        1.0  0.795588480478159  0.7474706663169072  0.4829807564252135  1.0000
  C   C7        1.0  0.29558474974968624  0.7474677844900628  0.0170191537074373  1.0000
  C   C8        1.0  0.20441272612321634  0.25253047034558324  0.5170186079567998  1.0000
  C   C9        1.0  0.7048870393685078  0.3824519168846551  0.9985976157842273  1.0000
  C   C10       1.0  0.795114317206327  0.6175500689368009  0.49859698555297177  1.0000
  C   C11       1.0  0.2951141672347219  0.6175492197781197  0.0014023506803369  1.0000
  C   C12       1.0  0.20488823539555773  0.38245107209179713  0.5014023788298161  1.0000
  C   C13       1.0  0.800314390098592  0.4521854063825401  0.067905685536175  1.0000
  C   C14       1.0  0.6996811146786543  0.547815144617154  0.5679026607644602  1.0000
  C   C15       1.0  0.19968412450546677  0.5478157215482824  0.9320948830093982  1.0000
  C   C16       1.0  0.30031506845450917  0.45218394026193215  0.4320948973672714  1.0000
  C   C17       1.0  0.8924324225180841  0.3847900292703272  0.1199714360286137  1.0000
  C   C18       1.0  0.607566949952414  0.6152095646574056  0.6199700972942708  1.0000
  C   C19       1.0  0.10756963735513381  0.6152100924164615  0.8800285304365545  1.0000
  C   C20       1.0  0.3924292331844726  0.38478952022224894  0.3800286650025555  1.0000
  C   C21       1.0  0.9908302618134145  0.45311182834380775  0.1891080215802603  1.0000
  C   C22       1.0  0.5091708847854195  0.5468878352427211  0.6891065854600456  1.0000
  C   C23       1.0  0.009169959328751618  0.5468872696347662  0.8108919448839629  1.0000
  C   C24       1.0  0.49082933635301634  0.45311126273527697  0.31089217683909  1.0000
  C   C25       1.0  0.9887087872676403  0.5807290099497494  0.2084071602412152  1.0000
  C   C26       1.0  0.5112965168408367  0.41927068496099923  0.7084051526803705  1.0000
  C   C27       1.0  0.011289102418530223  0.4192680449793614  0.7915946124695523  1.0000
  C   C28       1.0  0.48870321156520213  0.5807273936746217  0.29159300753604367  1.0000
  C   C29       1.0  0.8914585394569061  0.6453944355244232  0.15882138513045158  1.0000
  C   C30       1.0  0.6085414341258398  0.3546031607743673  0.6588182988780602  1.0000
  C   C31       1.0  0.10853800422875538  0.3546026150385657  0.8411803875795414  1.0000
  C   C32       1.0  0.391458787010734  0.6453959372033539  0.3411798613385244  1.0000
  C   C33       1.0  0.8020462969245588  0.5840794348321624  0.0890610464212642  1.0000
  C   C34       1.0  0.6979510453991155  0.4159191061950268  0.5890586509131452  1.0000
  C   C35       1.0  0.19795123222030503  0.4159196544147506  0.910940124206526  1.0000
  C   C36       1.0  0.3020464837364186  0.5840799830504579  0.4109395093019046  1.0000
  C   C37       1.0  0.6079293512677567  0.17012098190872393  0.9141615273578765  1.0000
  C   C38       1.0  0.8920741744399264  0.8298809329036771  0.4141615631126498  1.0000
  C   C39       1.0  0.39207270860546134  0.829879139778065  0.0858384391072917  1.0000
  C   C40       1.0  0.10793156289539503  0.17012123619954175  0.5858384033543941  1.0000
  N   N1        1.0  0.8841467096983208  0.2540838239326533  0.1042655204042688  1.0000
  N   N2        1.0  0.615853058241946  0.7459167745041954  0.6042635601628631  1.0000
  N   N3        1.0  0.11585131217707104  0.7459162846563603  0.8957356502236848  1.0000
  N   N4        1.0  0.38414581689410454  0.2540823191074112  0.395734600052954  1.0000
  N   N5        1.0  0.4294703005086119  0.15285923327468962  0.8875397453311464  1.0000
  N   N6        1.0  0.07053130854001209  0.8471403951890651  0.3875382055070205  1.0000
  N   N7        1.0  0.5705307739109885  0.8471388497290351  0.1124626294638702  1.0000
  N   N8        1.0  0.9294739360610436  0.1528607545714848  0.6124605567947583  1.0000
  N   N9        1.0  0.40064640133104495  0.06377927827279001  0.8266890618638669  1.0000
  N   N10       1.0  0.0993526316331669  0.936221303333902  0.3266887394615097  1.0000
  N   N11       1.0  0.5993538198148514  0.9362198197063522  0.1733121087654581  1.0000
  N   N12       1.0  0.9006504137029837  0.06378085703736501  0.6733118290865434  1.0000
  N   N13       1.0  0.5539738607090072  0.028630156406983104  0.8172701740193064  1.0000
  N   N14       1.0  0.9460258802696232  0.9713706388269973  0.3172708422568959  1.0000
  N   N15       1.0  0.44602501443264225  0.9713689372054686  0.18272979244415669  1.0000
  N   N16       1.0  0.0539771650665273  0.02863152154427691  0.68272972629115  1.0000
  N   N17       1.0  0.6867887728557918  0.09322669541177224  0.8712391161170387  1.0000
  N   N18       1.0  0.8132126483273155  0.9067741551569171  0.3712402488808735  1.0000
  N   N19       1.0  0.3132127942868906  0.9067724069329163  0.12876085034795887  1.0000
  N   N20       1.0  0.18678990428016112  0.09322698587254052  0.62876092174956  1.0000
  N   N21       1.0  0.24038381354493776  0.20335462555397046  0.21097164585443554  1.0000
  N   N22       1.0  0.25961670211097515  0.7966448361592529  0.7109716450004554  1.0000
  N   N23       1.0  0.7596164075972284  0.7966444724245962  0.7890283206097949  1.0000
  N   N24       1.0  0.7403849972265207  0.203357319846191  0.289029525629374  1.0000
  N   N25       1.0  0.3023746540711302  0.2759732426366953  0.1531717486925572  1.0000
  N   N26       1.0  0.19762563585559442  0.724029218151202  0.653173499270565  1.0000
  N   N27       1.0  0.6976285234449195  0.7240319713930533  0.8468252073599488  1.0000
  N   N28       1.0  0.8023709078170144  0.2759678324097977  0.3468240588615927  1.0000
  N   N29       1.0  0.35733739940047843  0.3477253539287163  0.0982648542502957  1.0000
  N   N30       1.0  0.14265887304760838  0.6522750075877042  0.5982647516065995  1.0000
  N   N31       1.0  0.6426592764762661  0.6522747502944669  0.9017369184594344  1.0000
  N   N32       1.0  0.8573414802930941  0.3477271440521861  0.40173762318755724  1.0000
  O   O1        1.0  0.9861134416620275  0.9745955329642371  0.10185596468765108  1.0000
  O   O2        1.0  0.5138881500975856  0.0254060869066777  0.6018570575821656  1.0000
  O   O3        1.0  0.013885433481483704  0.02540356064850611  0.8981446038583556  1.0000
  O   O4        1.0  0.48611171050886554  0.9745950453905511  0.398144113046726  1.0000
