data_image0
_chemical_formula_structural       Ag4H44C32I4N4
_chemical_formula_sum              "Ag4 H44 C32 I4 N4"
_cell_length_a       4.484078051369051
_cell_length_b       13.448076598532593
_cell_length_c       15.906087446150805
_cell_angle_alpha    89.99967188913209
_cell_angle_beta     90.0003949966543
_cell_angle_gamma    91.49247324840843

_space_group_name_H-M_alt    "P 1"
_space_group_IT_number       1

loop_
  _space_group_symop_operation_xyz
  'x, y, z'

loop_
  _atom_site_type_symbol
  _atom_site_label
  _atom_site_symmetry_multiplicity
  _atom_site_fract_x
  _atom_site_fract_y
  _atom_site_fract_z
  _atom_site_occupancy
  Ag  Ag1       1.0  0.8283572928209111  0.5737365258299647  0.5596348476081161  1.0000
  Ag  Ag2       1.0  0.1716528601916494  0.926269586596611  0.0596360846286004  1.0000
  Ag  Ag3       1.0  0.17165381479208006  0.4262627522511833  0.4403657529294733  1.0000
  Ag  Ag4       1.0  0.8283495848911144  0.07373267513862199  0.9403682880338167  1.0000
  H   H1        1.0  0.1688897585989295  0.6686340503739814  0.4584777213677143  1.0000
  H   H2        1.0  0.8311027167311379  0.8313665112620113  0.9584815200155106  1.0000
  H   H3        1.0  0.8311187332464698  0.33136076668027675  0.5415203644176857  1.0000
  H   H4        1.0  0.16889979263612526  0.1686364943275578  0.04152159526492479  1.0000
  H   H5        1.0  0.16296213832306713  0.7832427491951038  0.4035638688754445  1.0000
  H   H6        1.0  0.8370445322734523  0.7167566682597625  0.903572639188738  1.0000
  H   H7        1.0  0.8370553375633845  0.2167528034521737  0.5964317021566075  1.0000
  H   H8        1.0  0.16295778422558982  0.28324410577089765  0.09643299085742289  1.0000
  H   H9        1.0  0.4803576646452327  0.752148343841604  0.463708528700451  1.0000
  H   H10       1.0  0.5196349974668877  0.7478529275420557  0.9637127449418299  1.0000
  H   H11       1.0  0.51964891879026  0.24785019451996962  0.5362927005245692  1.0000
  H   H12       1.0  0.4803653462714976  0.25215082396001515  0.036291627714874194  1.0000
  H   H13       1.0  0.33234333280258  0.9364640193155721  0.5136328432065369  1.0000
  H   H14       1.0  0.6676299355004217  0.5635409383458028  0.013642492658327399  1.0000
  H   H15       1.0  0.6676365555079115  0.0635352877232478  0.4863589556383302  1.0000
  H   H16       1.0  0.332363911329267  0.4364650508999047  0.9863637660568257  1.0000
  H   H17       1.0  0.2737431269157753  0.08482461566710951  0.5987657910594706  1.0000
  H   H18       1.0  0.726267948237961  0.4151737680902628  0.0987719555991333  1.0000
  H   H19       1.0  0.7262656220897057  0.9151731767983547  0.40122915126833186  1.0000
  H   H20       1.0  0.273732202543883  0.5848277518774766  0.9012273875418728  1.0000
  H   H21       1.0  0.31797098342617847  0.0441769695912839  0.7049919312757424  1.0000
  H   H22       1.0  0.6820467174069405  0.45581699825248023  0.2050009531877137  1.0000
  H   H23       1.0  0.68203725116345  0.9558148720784132  0.2950011249957072  1.0000
  H   H24       1.0  0.3179533048058971  0.5441830340065863  0.79500090471727  1.0000
  H   H25       1.0  0.9717882290704122  0.08800495778339718  0.671704589119571  1.0000
  H   H26       1.0  0.028236282316633804  0.41199963478869966  0.17170938309410388  1.0000
  H   H27       1.0  0.02822740269063221  0.9119950600255252  0.3282928679701129  1.0000
  H   H28       1.0  0.9717617028363321  0.5880026310915413  0.8282912174231711  1.0000
  H   H29       1.0  0.7877275535488196  0.9153821985558963  0.7363512220223568  1.0000
  H   H30       1.0  0.2122600422578813  0.584623530437753  0.23635609227527246  1.0000
  H   H31       1.0  0.2122659073677653  0.0846193276211622  0.2636449776614072  1.0000
  H   H32       1.0  0.7877466697466103  0.41537649563249346  0.7636426221857703  1.0000
  H   H33       1.0  0.4051448942440174  0.698253385575363  0.6764240009702718  1.0000
  H   H34       1.0  0.5948387469773448  0.8017490169078911  0.17643171522660583  1.0000
  H   H35       1.0  0.5948551279761815  0.30174664668165707  0.3235784856248287  1.0000
  H   H36       1.0  0.4051545854879989  0.1982510215277031  0.8235770582630264  1.0000
  H   H37       1.0  0.7167915623258663  0.6556835638012187  0.7314165675550723  1.0000
  H   H38       1.0  0.28320929761039787  0.8443221849602834  0.23142282665697417  1.0000
  H   H39       1.0  0.28321094698251403  0.3443194418047497  0.2685815182044138  1.0000
  H   H40       1.0  0.7167907889679055  0.15567859113058094  0.7685846894573203  1.0000
  H   H41       1.0  0.532763345102147  0.7646195419665816  0.7674689826892729  1.0000
  H   H42       1.0  0.46724071756553087  0.7353874573833536  0.2674780246549133  1.0000
  H   H43       1.0  0.46724585405677027  0.23538345743417474  0.23253098914722867  1.0000
  H   H44       1.0  0.5327592404216902  0.26461183100497726  0.732530120153001  1.0000
  C   C1        1.0  0.10571330061145548  0.7964662867627866  0.5374383109820685  1.0000
  C   C2        1.0  0.8942668290616637  0.703534046420174  0.0374426980477693  1.0000
  C   C3        1.0  0.8942821329995425  0.20353226196129978  0.46255348788007916  1.0000
  C   C4        1.0  0.105731220419969  0.2964689633021109  0.9625604172282322  1.0000
  C   C5        1.0  0.23559725315621446  0.7475032892993954  0.46188006616024774  1.0000
  C   C6        1.0  0.7643995045599822  0.7524942706129922  0.9618866318367835  1.0000
  C   C7        1.0  0.7644068431027691  0.252492275737815  0.5381180196189631  1.0000
  C   C8        1.0  0.23560274761039318  0.24750575957562398  0.03811648345065779  1.0000
  C   C9        1.0  0.18185291905682988  0.8955967915957075  0.555841790638638  1.0000
  C   C10       1.0  0.8181456740612205  0.6044056366035948  0.0558540543587682  1.0000
  C   C11       1.0  0.8181290063061724  0.10440028182398459  0.44415063690382084  1.0000
  C   C12       1.0  0.1818501454702357  0.39559737518709437  0.9441484322248925  1.0000
  C   C13       1.0  0.07212643761686621  0.9411994791976852  0.627770635615306  1.0000
  C   C14       1.0  0.9278625612926062  0.5588010027321886  0.12777516668252528  1.0000
  C   C15       1.0  0.9278623061951163  0.058799075717274704  0.3722236780006583  1.0000
  C   C16       1.0  0.0721350380797503  0.44119680004251904  0.872226691225485  1.0000
  C   C17       1.0  0.16406034778734116  0.04538504345129721  0.6510809691781247  1.0000
  C   C18       1.0  0.8359590922649146  0.4546181999919199  0.15108967388532335  1.0000
  C   C19       1.0  0.8359438127340582  0.9546112654464024  0.3489139731487469  1.0000
  C   C20       1.0  0.16404112283822767  0.5453840638199167  0.8489115553242924  1.0000
  C   C21       1.0  0.8798932285019133  0.8840349141748975  0.6789632985916538  1.0000
  C   C22       1.0  0.12010353038095899  0.6159637400923968  0.1789747485446824  1.0000
  C   C23       1.0  0.12009984657517946  0.11596214891302033  0.3210291289618964  1.0000
  C   C24       1.0  0.8799077701664971  0.38403776952922897  0.8210289954382475  1.0000
  C   C25       1.0  0.8069481472421031  0.7858968103367019  0.657530790695759  1.0000
  C   C26       1.0  0.1930442286004705  0.7141086824436088  0.15754127807542062  1.0000
  C   C27       1.0  0.19304983785934132  0.21410545555788474  0.3424654089906838  1.0000
  C   C28       1.0  0.8069535637137121  0.2858913518695161  0.8424643519680544  1.0000
  C   C29       1.0  0.6037373366247464  0.7234559136455019  0.711726972890382  1.0000
  C   C30       1.0  0.39625643675488215  0.776550713527982  0.21173315836511358  1.0000
  C   C31       1.0  0.3962670168164024  0.2765426267967684  0.2882698555015892  1.0000
  C   C32       1.0  0.6037329501450016  0.2234552798627334  0.7882693282048904  1.0000
  I   I1        1.0  0.3197068225682854  0.46454643127250267  0.6199819446909842  1.0000
  I   I2        1.0  0.6803030337465759  0.0354577670554193  0.11998295459370208  1.0000
  I   I3        1.0  0.6803038992272903  0.5354483837133586  0.38001676978675647  1.0000
  I   I4        1.0  0.3196908772940076  0.9645489660651165  0.8800157598382725  1.0000
  N   N1        1.0  0.9197913916213379  0.7425274207576609  0.5876898232498817  1.0000
  N   N2        1.0  0.08020387307151111  0.7574792670621734  0.08769798894068259  1.0000
  N   N3        1.0  0.08020384915823088  0.2574688963972633  0.4123076338285826  1.0000
  N   N4        1.0  0.9197965349808186  0.2425252282860413  0.9123076410945075  1.0000
