data_image0
_chemical_formula_structural       Cu2H28C32N4O10
_chemical_formula_sum              "Cu2 H28 C32 N4 O10"
_cell_length_a       7.462513993135212
_cell_length_b       9.790376108847557
_cell_length_c       11.99246684724501
_cell_angle_alpha    74.1566723350457
_cell_angle_beta     81.52104076404189
_cell_angle_gamma    73.93681615274082

_space_group_name_H-M_alt    "P 1"
_space_group_IT_number       1

loop_
  _space_group_symop_operation_xyz
  'x, y, z'

loop_
  _atom_site_type_symbol
  _atom_site_label
  _atom_site_symmetry_multiplicity
  _atom_site_fract_x
  _atom_site_fract_y
  _atom_site_fract_z
  _atom_site_occupancy
  Cu  Cu1       1.0  0.7410393983402912  0.6924910176864075  0.6879022569903697  1.0000
  Cu  Cu2       1.0  0.25895835604002565  0.30750821500205916  0.3120986435065732  1.0000
  H   H1        1.0  0.9965992414918927  0.6710015604125064  0.45575630946979817  1.0000
  H   H2        1.0  0.00340360201798969  0.3289943682732073  0.544245701044801  1.0000
  H   H3        1.0  0.07233896342216183  0.8584657689812829  0.2791676636580291  1.0000
  H   H4        1.0  0.9276662475732849  0.14153124985492843  0.720833906676262  1.0000
  H   H5        1.0  0.9263757039485797  0.12684172582553546  0.2675820406285467  1.0000
  H   H6        1.0  0.07362816125496613  0.8731553027544265  0.7324188097839154  1.0000
  H   H7        1.0  0.7005430425194205  0.3198499645000581  0.36599466618018534  1.0000
  H   H8        1.0  0.2994746739651077  0.6801502993482345  0.6340067908455824  1.0000
  H   H9        1.0  0.4894564075262622  0.3744193187155887  0.5360901575659227  1.0000
  H   H10       1.0  0.5105609451304502  0.6255820276994442  0.4639127643457358  1.0000
  H   H11       1.0  0.3390948038646115  0.2830374988409333  0.7386962054211141  1.0000
  H   H12       1.0  0.6609137659868481  0.7169704796749272  0.2613010352397396  1.0000
  H   H13       1.0  0.3108499498023036  0.0666285634081376  0.9045656671777564  1.0000
  H   H14       1.0  0.6891451025357965  0.9333794719383876  0.09542939162958676  1.0000
  H   H15       1.0  0.4814344412603474  0.8129248990326376  0.884796034242413  1.0000
  H   H16       1.0  0.518553792726692  0.1870831241223314  0.1152029510029706  1.0000
  H   H17       1.0  0.25316602178529013  0.6397893758774132  0.9174689667385892  1.0000
  H   H18       1.0  0.7468226160221648  0.360213196812886  0.08252782774773944  1.0000
  H   H19       1.0  0.14190362377304666  0.5039213779955035  0.9996571365619361  1.0000
  H   H20       1.0  0.858089454967498  0.49608010996804824  0.000337007894131583  1.0000
  H   H21       1.0  0.4686516252780137  0.3909587652036565  0.0002108840822927869  1.0000
  H   H22       1.0  0.5313372571685163  0.6090426437061255  0.9997944802477151  1.0000
  H   H23       1.0  0.3830741753139931  0.31491112733252186  0.9078396134432581  1.0000
  H   H24       1.0  0.6169323911427324  0.6850902834969262  0.09215922154870532  1.0000
  H   H25       1.0  8.40247433017993e-05  0.4945138093146752  0.6746217481119815  1.0000
  H   H26       1.0  0.9999151798015834  0.5054857050138253  0.3253750743249384  1.0000
  H   H27       1.0  0.8047903482265967  0.44041107081949343  0.6907163344092168  1.0000
  H   H28       1.0  0.19520873208083592  0.5595881385895896  0.3092869584644832  1.0000
  C   C1        1.0  0.9357760633661557  0.7878492051084579  0.4481636677992001  1.0000
  C   C2        1.0  0.06422475662118642  0.2121445373243915  0.551838990464745  1.0000
  C   C3        1.0  0.9754432499250782  0.8945547310181112  0.3489240464786292  1.0000
  C   C4        1.0  0.024557570062263792  0.1054390114147381  0.6510786117853089  1.0000
  C   C5        1.0  0.8938242844465236  0.0418039489325963  0.3422956959254649  1.0000
  C   C6        1.0  0.10617482592110138  0.9581908858107514  0.6577077073025349  1.0000
  C   C7        1.0  0.7698646682916674  0.08276456798238742  0.43564788571461593  1.0000
  C   C8        1.0  0.23013142639392473  0.917231395886475  0.5643521976457677  1.0000
  C   C9        1.0  0.6764646105239791  0.23095761929688055  0.4394741088401163  1.0000
  C   C10       1.0  0.3235429977542165  0.7690405099932606  0.5605245126314813  1.0000
  C   C11       1.0  0.5604735815032242  0.2616172388392713  0.5340123710215892  1.0000
  C   C12       1.0  0.43953739608941317  0.7383830669599832  0.4659863226224986  1.0000
  C   C13       1.0  0.5295447674241701  0.14749141682229097  0.6331444125725199  1.0000
  C   C14       1.0  0.4704601592026235  0.8525067387231788  0.36685193282795586  1.0000
  C   C15       1.0  0.4144416752293126  0.1714814573996932  0.7340580810698043  1.0000
  C   C16       1.0  0.5855611478897487  0.8285232476887503  0.2659403638263314  1.0000
  C   C17       1.0  0.3983349366275418  0.05207450993940911  0.8253476058473979  1.0000
  C   C18       1.0  0.6016604298763895  0.9479324090012967  0.17465016921137538  1.0000
  C   C19       1.0  0.4928343212591742  0.9096629654514602  0.8157756372171008  1.0000
  C   C20       1.0  0.5071563301384288  0.09034178672389  0.18422134574735338  1.0000
  C   C21       1.0  0.6199480943312421  0.0007289511583011024  0.6310090915707961  1.0000
  C   C22       1.0  0.38004969977865943  0.9992703086014321  0.36898846401629015  1.0000
  C   C23       1.0  0.7393976945617523  0.9681780359614013  0.5320713597470359  1.0000
  C   C24       1.0  0.2605936847544825  0.03182015611128719  0.467925312482329  1.0000
  C   C25       1.0  0.10632751751915491  0.5626432881817607  0.8176796365980368  1.0000
  C   C26       1.0  0.8936723500382726  0.4373537967007265  0.18231570913908973  1.0000
  C   C27       1.0  0.22628270108620543  0.5346624571366476  0.9180232057511689  1.0000
  C   C28       1.0  0.7737177746750916  0.46533677636775667  0.08197662590703199  1.0000
  C   C29       1.0  0.40824977767051246  0.41655524710948555  0.9162653856592444  1.0000
  C   C30       1.0  0.5917482310182577  0.5834472235354585  0.08374062941720692  1.0000
  C   C31       1.0  0.5581348013636501  0.4585857328636821  0.8230439595206036  1.0000
  C   C32       1.0  0.44186862028990953  0.5414167191096837  0.17696242656077033  1.0000
  N   N1        1.0  0.8212294795738231  0.8243940207600033  0.5374292077009246  1.0000
  N   N2        1.0  0.17876423743079778  0.17560524115972953  0.46256953303052495  1.0000
  N   N3        1.0  0.5994558840424559  0.8850052403014672  0.7205222480432596  1.0000
  N   N4        1.0  0.4005354453487939  0.11499731290132331  0.2794759862867267  1.0000
  O   O1        1.0  0.9555665912907897  0.6634905600552016  0.8137188231729554  1.0000
  O   O2        1.0  0.04442853136311696  0.3365043377584911  0.18627823915224445  1.0000
  O   O3        1.0  0.16355614828769663  0.4839519124505288  0.743781653727666  1.0000
  O   O4        1.0  0.836449132234513  0.5160451537603876  0.2562140630143759  1.0000
  O   O5        1.0  0.5620329707454985  0.5947320285138957  0.7986347033482917  1.0000
  O   O6        1.0  0.43797518614219655  0.4052682087912702  0.20137342140917266  1.0000
  O   O7        1.0  0.6704107349522558  0.361352627026136  0.7785996280015723  1.0000
  O   O8        1.0  0.3295923626030728  0.638650934585229  0.2214048780558429  1.0000
  O   O9        1.0  0.8769468246934977  0.5121869167025892  0.6368663141740782  1.0000
  O   O10       1.0  0.12305094955161176  0.4878123295215104  0.3631329138679363  1.0000
