data_image0
_chemical_formula_structural       Cu4H44C44N4O16
_chemical_formula_sum              "Cu4 H44 C44 N4 O16"
_cell_length_a       8.529578394046181
_cell_length_b       13.223001173802565
_cell_length_c       13.976930069160563
_cell_angle_alpha    118.25011276326036
_cell_angle_beta     90.663564801288
_cell_angle_gamma    89.97904186441944

_space_group_name_H-M_alt    "P 1"
_space_group_IT_number       1

loop_
  _space_group_symop_operation_xyz
  'x, y, z'

loop_
  _atom_site_type_symbol
  _atom_site_label
  _atom_site_symmetry_multiplicity
  _atom_site_fract_x
  _atom_site_fract_y
  _atom_site_fract_z
  _atom_site_occupancy
  Cu  Cu1       1.0  0.44684926764337973  0.91248042458718  0.41396040447740023  1.0000
  Cu  Cu2       1.0  0.0535959959076706  0.49843841526710253  0.5867464512807175  1.0000
  Cu  Cu3       1.0  0.5531544856927936  0.08752068578205316  0.5860422488292515  1.0000
  Cu  Cu4       1.0  0.9463995054384995  0.5015623905037997  0.41324987899192667  1.0000
  H   H1        1.0  0.3531939543083524  0.6636043885845311  0.35154705485042115  1.0000
  H   H2        1.0  0.146860181387531  0.3116650987685006  0.6482641438636918  1.0000
  H   H3        1.0  0.6468086411772945  0.33639551890695424  0.6484552511172978  1.0000
  H   H4        1.0  0.8531400287774744  0.6883329017875254  0.3517293571030606  1.0000
  H   H5        1.0  0.18201841925917248  0.5070398887843125  0.2186366849605221  1.0000
  H   H6        1.0  0.31766414239969976  0.28811657799661117  0.7814730600136244  1.0000
  H   H7        1.0  0.8179853436094788  0.4929597952007184  0.7813645331940435  1.0000
  H   H8        1.0  0.6823349102039913  0.7118811682685973  0.21852190925297066  1.0000
  H   H9        1.0  0.10309754185079359  0.7162701798181458  0.06009116890917455  1.0000
  H   H10       1.0  0.396732518796675  0.6559402232779732  0.9397085604425683  1.0000
  H   H11       1.0  0.8969097332777949  0.28372930443719474  0.9399089819313815  1.0000
  H   H12       1.0  0.6032712289055837  0.34405875452254964  0.06028936352381461  1.0000
  H   H13       1.0  0.27845113954488443  0.8633974146326864  0.20094878790470727  1.0000
  H   H14       1.0  0.2215680042731805  0.6620747364218572  0.7987015341284049  1.0000
  H   H15       1.0  0.7215514559407551  0.136602492858799  0.7990535180630118  1.0000
  H   H16       1.0  0.7784345951110225  0.337921612116709  0.20129460734695206  1.0000
  H   H17       1.0  0.018298869251402998  0.42999122148173524  0.061695524500137794  1.0000
  H   H18       1.0  0.48161630772312247  0.36827556133859224  0.93851433737143  1.0000
  H   H19       1.0  0.9817060612894721  0.5700091875837784  0.9383064214800427  1.0000
  H   H20       1.0  0.5183781134784552  0.6317173734156114  0.06147924253943417  1.0000
  H   H21       1.0  0.9033395802986277  0.916157440328142  0.264159521771191  1.0000
  H   H22       1.0  0.5965098628454442  0.6517831555054696  0.7355907122400395  1.0000
  H   H23       1.0  0.0966536797323059  0.08383974767511398  0.7358435065706459  1.0000
  H   H24       1.0  0.40349043629331766  0.3482124420490393  0.2644098443844101  1.0000
  H   H25       1.0  0.006478699281373696  0.9127076547204426  0.3734653456561218  1.0000
  H   H26       1.0  0.4936033597488816  0.5389275766709715  0.6262086821151412  1.0000
  H   H27       1.0  0.9935262211485779  0.08729228355539927  0.6265344041986012  1.0000
  H   H28       1.0  0.5063863142147369  0.4610729202480002  0.37379165207119774  1.0000
  H   H29       1.0  0.105279192220074  0.07322509201532766  0.3485487461135505  1.0000
  H   H30       1.0  0.3947651371645193  0.7245685533695579  0.6514062223004374  1.0000
  H   H31       1.0  0.8947198413186755  0.9267755070182914  0.6514490934572166  1.0000
  H   H32       1.0  0.6052386548800043  0.2754287486367417  0.34859432167540655  1.0000
  H   H33       1.0  0.0174908322463168  0.12393582023263856  0.47668857734134207  1.0000
  H   H34       1.0  0.482437275358663  0.6471076503028995  0.52322691676261  1.0000
  H   H35       1.0  0.9825117236633006  0.8760650498609691  0.523310391040873  1.0000
  H   H36       1.0  0.517558211688801  0.3528952950443128  0.47677156623816336  1.0000
  H   H37       1.0  0.8619597994631719  0.1255041135820179  0.2776690104688484  1.0000
  H   H38       1.0  0.6379371434859563  0.8478252453031629  0.7222812264728091  1.0000
  H   H39       1.0  0.13804159888513814  0.8744965022207793  0.7223314262132021  1.0000
  H   H40       1.0  0.3620607720675082  0.1521741368375231  0.2777214189833046  1.0000
  H   H41       1.0  0.7668279232010136  0.16077616579820386  0.40155534006026267  1.0000
  H   H42       1.0  0.7332364257742154  0.7590389056131172  0.5984443054451276  1.0000
  H   H43       1.0  0.23317231700753638  0.8392222985399015  0.5984429336440797  1.0000
  H   H44       1.0  0.26675793346627324  0.2409633006384269  0.4015586029543101  1.0000
  C   C1        1.0  0.29681349402546436  0.6707469161377444  0.2845897117107937  1.0000
  C   C2        1.0  0.20314189522243  0.3857645738569816  0.7152822573927082  1.0000
  C   C3        1.0  0.7031890964047136  0.3292527559588976  0.7154114961941999  1.0000
  C   C4        1.0  0.7968594834824785  0.6142369975403454  0.28471741831597797  1.0000
  C   C5        1.0  0.20119541440207203  0.5835400106418546  0.20956978499378195  1.0000
  C   C6        1.0  0.29849509472460767  0.37365984986781337  0.7904771155651105  1.0000
  C   C7        1.0  0.7988083386448748  0.4164601511404344  0.7904310526741015  1.0000
  C   C8        1.0  0.7015051157296168  0.6263390992751495  0.2095182010404102  1.0000
  C   C9        1.0  0.1297424863197563  0.5956042465893104  0.12447093191024537  1.0000
  C   C10       1.0  0.36995588192644385  0.47091461467463347  0.8755427953984452  1.0000
  C   C11       1.0  0.8702647888088394  0.40439523766602997  0.8755292189303105  1.0000
  C   C12       1.0  0.6300443678145912  0.52908242327927  0.1244540431538113  1.0000
  C   C13       1.0  0.1572278998525363  0.6993864071514934  0.1220409330776704  1.0000
  C   C14       1.0  0.3426156361555144  0.5770684354466055  0.8778044779634371  1.0000
  C   C15       1.0  0.8427793705098239  0.30061379029595514  0.8779599353389287  1.0000
  C   C16       1.0  0.657386934631262  0.42293219224457346  0.12219596896819239  1.0000
  C   C17       1.0  0.2549605905571539  0.7817798715528922  0.19999084163721648  1.0000
  C   C18       1.0  0.2450173882556541  0.5814631347572288  0.7997809330321957  1.0000
  C   C19       1.0  0.7450431919548991  0.218218856837602  0.8000111374907135  1.0000
  C   C20       1.0  0.7549840241021427  0.4185343928823215  0.20021553528295036  1.0000
  C   C21       1.0  0.03382145246504109  0.5020667254890582  0.044839751507794255  1.0000
  C   C22       1.0  0.4660357459124214  0.457167720660422  0.9552369758293792  1.0000
  C   C23       1.0  0.966183477786615  0.49793273498951857  0.955160378833618  1.0000
  C   C24       1.0  0.5339633462672991  0.5428290630026638  0.04476133102271964  1.0000
  C   C25       1.0  0.7688368326423997  0.967860077111659  0.4074673426009454  1.0000
  C   C26       1.0  0.731762715627532  0.5601544218694768  0.5923551113879739  1.0000
  C   C27       1.0  0.2311633792579499  0.03214361496600296  0.5925370521984447  1.0000
  C   C28       1.0  0.2682316424560511  0.43984399003430497  0.40764053445636955  1.0000
  C   C29       1.0  0.9231979564791785  0.963097236354386  0.3525002496188989  1.0000
  C   C30       1.0  0.5768618501602489  0.6102506557525584  0.6472411529517855  1.0000
  C   C31       1.0  0.0768046294739904  0.036904097521308195  0.647503491500906  1.0000
  C   C32       1.0  0.4231360993353377  0.38974563121728784  0.3527601007495633  1.0000
  C   C33       1.0  0.9926371749266067  0.0827260447997204  0.389124106748362  1.0000
  C   C34       1.0  0.5074215181138726  0.6934106001313936  0.6107738581890274  1.0000
  C   C35       1.0  0.007360715638775202  0.917273108953722  0.6108748640328798  1.0000
  C   C36       1.0  0.4925810571499196  0.3065883657807404  0.3892240555277766  1.0000
  C   C37       1.0  0.8816356746443645  0.1590525769253546  0.3653369577756109  1.0000
  C   C38       1.0  0.6183740825206101  0.7935978038970359  0.6345792471030335  1.0000
  C   C39       1.0  0.11836571893771011  0.8409487520695434  0.6346641964824897  1.0000
  C   C40       1.0  0.38162265106191035  0.20640299273947701  0.3654248232556014  1.0000
  C   C41       1.0  0.9307267157679532  0.2843446096774612  0.4139636323973335  1.0000
  C   C42       1.0  0.569303545436782  0.8702703168440351  0.5861800260676517  1.0000
  C   C43       1.0  0.06926881504332268  0.7156547627016393  0.5860338393353572  1.0000
  C   C44       1.0  0.4306931542036239  0.12973357496331767  0.4138254360457481  1.0000
  N   N1        1.0  0.32571351784493174  0.7682519905951677  0.27990876882543597  1.0000
  N   N2        1.0  0.17434102961978937  0.4879502091726876  0.7199016644330597  1.0000
  N   N3        1.0  0.6742902402574842  0.23174840658196408  0.7200931669051798  1.0000
  N   N4        1.0  0.8256615504102455  0.5120480435473452  0.2800955317077083  1.0000
  O   O1        1.0  0.6622679402689897  0.8954345254098328  0.35170449658766495  1.0000
  O   O2        1.0  0.837903485083622  0.5440053374115763  0.6485803895082897  1.0000
  O   O3        1.0  0.33773346371323504  0.1045682229616816  0.6483006694346614  1.0000
  O   O4        1.0  0.1620979656933059  0.4559874332780821  0.3514121538372733  1.0000
  O   O5        1.0  0.7563477002652944  0.04580152902533291  0.5056368212547682  1.0000
  O   O6        1.0  0.744067607209182  0.5404741289995485  0.4944224552841164  1.0000
  O   O7        1.0  0.24364658574626932  0.9542056835861101  0.4943659569527056  1.0000
  O   O8        1.0  0.2559255400168041  0.4595290279657362  0.5055771052802456  1.0000
  O   O9        1.0  0.9012074813049933  0.33367786918085324  0.35643246409179596  1.0000
  O   O10       1.0  0.598542699119541  0.9773363470126382  0.6434819035109527  1.0000
  O   O11       1.0  0.09878924158815043  0.6663205594921067  0.643565778863838  1.0000
  O   O12       1.0  0.4014586899855174  0.02266664376130473  0.35652178396196627  1.0000
  O   O13       1.0  0.9924569768085052  0.331076458104441  0.508721458788564  1.0000
  O   O14       1.0  0.5072654974200714  0.8226654614219625  0.4913857065681028  1.0000
  O   O15       1.0  0.007540908990634401  0.6689234088411027  0.49127822956872785  1.0000
  O   O16       1.0  0.49272416787874107  0.17733930764203615  0.508621509686634  1.0000
