data_image0
_chemical_formula_structural       Cd2H28C16S4N12O2
_chemical_formula_sum              "Cd2 H28 C16 S4 N12 O2"
_cell_length_a       6.029459572799544
_cell_length_b       9.849566104627746
_cell_length_c       12.45589190132055
_cell_angle_alpha    104.90433841440061
_cell_angle_beta     100.9767684384939
_cell_angle_gamma    108.40465628452597

_space_group_name_H-M_alt    "P 1"
_space_group_IT_number       1

loop_
  _space_group_symop_operation_xyz
  'x, y, z'

loop_
  _atom_site_type_symbol
  _atom_site_label
  _atom_site_symmetry_multiplicity
  _atom_site_fract_x
  _atom_site_fract_y
  _atom_site_fract_z
  _atom_site_occupancy
  Cd  Cd1       1.0  0.426445267085107  0.3100336113690147  0.20103034392400326  1.0000
  Cd  Cd2       1.0  0.5735591614519463  0.6899589824014568  0.7989734930167529  1.0000
  H   H1        1.0  0.3514192367455848  0.056720240982095  0.00033243649827599954  1.0000
  H   H2        1.0  0.6484146301794663  0.9433072869097497  0.9996427647593009  1.0000
  H   H3        1.0  0.19038538707889052  0.9598104192249222  0.059552292464537956  1.0000
  H   H4        1.0  0.8095465793587453  0.0401673264424076  0.9404309656047404  1.0000
  H   H5        1.0  0.7789767095337367  0.6109597644632101  0.16708028000889635  1.0000
  H   H6        1.0  0.22101481508914125  0.3890337414466315  0.8329184745293786  1.0000
  H   H7        1.0  0.4732413298491165  0.5882646308538567  0.10146582822398638  1.0000
  H   H8        1.0  0.5267542919162763  0.4117300957104461  0.8985327758687801  1.0000
  H   H9        1.0  0.18785275521791775  0.5753401701323141  0.21494264165284696  1.0000
  H   H10       1.0  0.8121533602191207  0.42466710388055867  0.7850619976724146  1.0000
  H   H11       1.0  0.2817271290392965  0.5852410247854676  0.3630527839694722  1.0000
  H   H12       1.0  0.71827602781471  0.4147639625705465  0.6369494866955066  1.0000
  H   H13       1.0  0.6947931495219564  0.6161251356249835  0.4504796341165118  1.0000
  H   H14       1.0  0.3052253561235929  0.3838825788549514  0.5495134568475065  1.0000
  H   H15       1.0  0.9065658722801401  0.6251247397987993  0.3674776295237621  1.0000
  H   H16       1.0  0.09340897979699034  0.3748784086889784  0.6325303342621496  1.0000
  H   H17       1.0  0.341681042619605  0.7936555500836062  0.16199822795532265  1.0000
  H   H18       1.0  0.6583218952271039  0.2063428032103757  0.8379946152399143  1.0000
  H   H19       1.0  0.5518177986413447  0.9707523885843868  0.2695807527532707  1.0000
  H   H20       1.0  0.4481987192222547  0.029246201968213394  0.7304166743365244  1.0000
  H   H21       1.0  0.6850615189287125  0.9872633111152493  0.4665427532486816  1.0000
  H   H22       1.0  0.3149569751718957  0.0127387037476154  0.5334547741398055  1.0000
  H   H23       1.0  0.5687568753465866  0.8248390215437096  0.5092931063788484  1.0000
  H   H24       1.0  0.4312549956817193  0.17516948486819928  0.49071315235455876  1.0000
  H   H25       1.0  0.06172911120489725  0.8467791388091823  0.31272936578028515  1.0000
  H   H26       1.0  0.9382795446525519  0.15321473532492993  0.6872703311588069  1.0000
  H   H27       1.0  0.9624243831555644  0.0004895701855147997  0.3566390174146932  1.0000
  H   H28       1.0  0.03758025366609257  0.9995031191196374  0.6433584362362267  1.0000
  C   C1        1.0  0.6261937614873858  0.642767908167805  0.18233980523440613  1.0000
  C   C2        1.0  0.3738367950819422  0.35724093044562005  0.8176723573984076  1.0000
  C   C3        1.0  0.34075309487536015  0.6280921491692053  0.29570500514610387  1.0000
  C   C4        1.0  0.6592717061027001  0.37191545704517637  0.7043055380785503  1.0000
  C   C5        1.0  0.7543430684282199  0.6577989345290829  0.38271935001986884  1.0000
  C   C6        1.0  0.2456834782345964  0.3421997623164612  0.6172863024582256  1.0000
  C   C7        1.0  0.49626187863955085  0.8467200559984673  0.24188674954297074  1.0000
  C   C8        1.0  0.5037635554993543  0.15327971879130328  0.7581206241296811  1.0000
  C   C9        1.0  0.625546320527391  0.8630038346911489  0.4397399243681903  1.0000
  C   C10       1.0  0.3744721735732099  0.13699818017171586  0.5602576030202968  1.0000
  C   C11       1.0  0.9061087753025346  0.8763887693745926  0.32738116552649643  1.0000
  C   C12       1.0  0.09391376145377708  0.1235997857030711  0.6726179767968786  1.0000
  C   C13       1.0  0.9612679287181078  0.27147838553740655  0.32222947922199546  1.0000
  C   C14       1.0  0.03874387333275547  0.7285211281100883  0.6777749063785592  1.0000
  C   C15       1.0  0.8658932111521054  0.3186455391049918  0.06146424350203718  1.0000
  C   C16       1.0  0.1341087343970314  0.6813637476915771  0.9385508453822099  1.0000
  S   S1        1.0  0.7418415858545443  0.28952965931332386  0.3763564111220817  1.0000
  S   S2        1.0  0.25816254798414917  0.7104709211256051  0.623640222524692  1.0000
  S   S3        1.0  0.07492705551386074  0.28614881581380996  0.00444634406590439  1.0000
  S   S4        1.0  0.9250933329490819  0.7138688137364042  0.9955658496013058  1.0000
  N   N1        1.0  0.5445639865510898  0.5806321340006876  0.27257872733063243  1.0000
  N   N2        1.0  0.45543211457736266  0.41936934604400017  0.7274213251195718  1.0000
  N   N3        1.0  0.7025100680365384  0.8076112458672711  0.2181754565623208  1.0000
  N   N4        1.0  0.2974869319698783  0.19238579143483037  0.7818213526033658  1.0000
  N   N5        1.0  0.4151281626940315  0.7929735562783902  0.3335088776641157  1.0000
  N   N6        1.0  0.5848746763717186  0.20702801851192723  0.6664950625558319  1.0000
  N   N7        1.0  0.8332531572200563  0.8226393730276836  0.4206000165419254  1.0000
  N   N8        1.0  0.166748358091489  0.1773745714645045  0.5794039532246984  1.0000
  N   N9        1.0  0.12347135038968549  0.2556867020170016  0.2867469557022773  1.0000
  N   N10       1.0  0.8765558632465653  0.7443221011654372  0.7132624651344345  1.0000
  N   N11       1.0  0.7089530567859865  0.34138773545135587  0.09789707065472437  1.0000
  N   N12       1.0  0.2910281290264223  0.6586201774195075  0.9021028638720737  1.0000
  O   O1        1.0  0.3396932055137611  0.05078744648992029  0.0762801958307975  1.0000
  O   O2        1.0  0.6603091915283199  0.9491707081540993  0.9236849813814842  1.0000
