data_image0
_chemical_formula_structural       Cu24H48C126N48
_chemical_formula_sum              "Cu24 H48 C126 N48"
_cell_length_a       28.123518064353316
_cell_length_b       28.136276232139735
_cell_length_c       28.133043781334226
_cell_angle_alpha    70.4682180156424
_cell_angle_beta     70.70343445704573
_cell_angle_gamma    109.5762576519527

_space_group_name_H-M_alt    "P 1"
_space_group_IT_number       1

loop_
  _space_group_symop_operation_xyz
  'x, y, z'

loop_
  _atom_site_type_symbol
  _atom_site_label
  _atom_site_symmetry_multiplicity
  _atom_site_fract_x
  _atom_site_fract_y
  _atom_site_fract_z
  _atom_site_occupancy
  Cu  Cu1       1.0  0.051532226795508326  0.974928655811496  0.5696932876256469  1.0000
  Cu  Cu2       1.0  0.02695903922939639  0.0804794746338757  0.5431062510714001  1.0000
  Cu  Cu3       1.0  0.9210588092643803  0.9489981387733266  0.6222448534917079  1.0000
  Cu  Cu4       1.0  0.4553757108214995  0.5253989510178484  0.42333013973687644  1.0000
  Cu  Cu5       1.0  0.37690631933799074  0.4197580704559485  0.5532989113172918  1.0000
  Cu  Cu6       1.0  0.4288474762372515  0.5509358656020921  0.5280772238389988  1.0000
  Cu  Cu7       1.0  0.4482231744258483  0.878068911281133  0.07685234337049011  1.0000
  Cu  Cu8       1.0  0.4727044100608635  0.9300724695016453  0.9466803708669149  1.0000
  Cu  Cu9       1.0  0.5784552492502613  0.9567732123278887  0.9723699639054646  1.0000
  Cu  Cu10      1.0  0.04429815005084245  0.6208414314119254  0.9303531428579819  1.0000
  Cu  Cu11      1.0  0.12324661319607338  0.5696560795512227  0.9570263277925335  1.0000
  Cu  Cu12      1.0  0.07104479577738215  0.5429924174924493  0.8779408807536414  1.0000
  Cu  Cu13      1.0  0.07639513548053858  0.025152538037282592  0.045971462338279416  1.0000
  Cu  Cu14      1.0  0.9462859612024346  0.9191809811105501  0.12379434576069302  1.0000
  Cu  Cu15      1.0  0.9716244711151562  0.050543165791950326  0.07191995594738634  1.0000
  Cu  Cu16      1.0  0.9288290864513726  0.47446695020525453  0.4488821829695342  1.0000
  Cu  Cu17      1.0  0.9572159911154685  0.5805070161798298  0.47294522020478513  1.0000
  Cu  Cu18      1.0  0.8777971530859431  0.4491717794106617  0.5789319582899355  1.0000
  Cu  Cu19      1.0  0.5717611794141746  0.12275497228122119  0.453736188273105  1.0000
  Cu  Cu20      1.0  0.5432814056901307  0.07012213932581791  0.3762729228770497  1.0000
  Cu  Cu21      1.0  0.6225776249559232  0.043361518924747454  0.42848860822765994  1.0000
  Cu  Cu22      1.0  0.4237569527567259  0.37904355784101545  0.050801787108007104  1.0000
  Cu  Cu23      1.0  0.5538746320313166  0.4305301212300137  0.026596823649960407  1.0000
  Cu  Cu24      1.0  0.5284162696739045  0.45679903234672997  0.9205756181252197  1.0000
  H   H1        1.0  0.18974773923036276  0.04344246819963616  0.5009221083581963  1.0000
  H   H2        1.0  0.1571660212567423  0.18808612387235263  0.46431540927529374  1.0000
  H   H3        1.0  0.852354607463525  0.8096841191108127  0.6924522674098768  1.0000
  H   H4        1.0  0.030812231761728898  0.8462159561152944  0.620199740684761  1.0000
  H   H5        1.0  0.9572499428417272  0.14911729685692865  0.5441494508099255  1.0000
  H   H6        1.0  0.8139260630362767  0.9710134474163041  0.6511201223683545  1.0000
  H   H7        1.0  0.45580198379087716  0.4572995661549797  0.35336492787001117  1.0000
  H   H8        1.0  0.34846255023001027  0.3123822229962057  0.5304493420934336  1.0000
  H   H9        1.0  0.497818086288717  0.6901908010287909  0.45775688063176306  1.0000
  H   H10       1.0  0.5333105266987773  0.6540446853602049  0.3155981444719914  1.0000
  H   H11       1.0  0.307331908091612  0.3507210218932427  0.6916459350500193  1.0000
  H   H12       1.0  0.37798791881574795  0.5286840697594002  0.6572889740502817  1.0000
  H   H13       1.0  0.31016256746283205  0.8082142550316219  0.14646128177542317  1.0000
  H   H14       1.0  0.3426039394089883  0.8788725310425392  0.9692726370846999  1.0000
  H   H15       1.0  0.6473232169979327  0.9555468458770164  0.042948733795555125  1.0000
  H   H16       1.0  0.46890083112661063  0.8478719805768973  0.18488279082291123  1.0000
  H   H17       1.0  0.5422030325651263  0.9990916177101778  0.8084076486313028  1.0000
  H   H18       1.0  0.6855875814025864  0.03542489606455471  0.843221932820093  1.0000
  H   H19       1.0  0.04401868541874166  0.6902964459434173  0.9989184103634728  1.0000
  H   H20       1.0  0.152368742713861  0.6214364090960842  0.03539674243830156  1.0000
  H   H21       1.0  0.002399061144366361  0.5447977455025778  0.8073119003493476  1.0000
  H   H22       1.0  0.9661238654566161  0.650591944280137  0.8798520840505406  1.0000
  H   H23       1.0  0.1926685245144808  0.500701418076204  0.9564657005642376  1.0000
  H   H24       1.0  0.12168200011392825  0.4645154530274596  0.8492892918740225  1.0000
  H   H25       1.0  0.14638440918962192  0.9569893785615237  0.04561326890100782  1.0000
  H   H26       1.0  0.9692466290713996  0.8119652673328376  0.15143931950741787  1.0000
  H   H27       1.0  0.04192381956450927  0.1899484118223853  0.002278002009369134  1.0000
  H   H28       1.0  0.18425716960699384  0.15404373174248323  0.9680061420932874  1.0000
  H   H29       1.0  0.8078855956881837  0.8501086177548913  0.19302526404578668  1.0000
  H   H30       1.0  0.8422878718905552  0.02803603760206362  0.12258962018798775  1.0000
  H   H31       1.0  0.9970588406597612  0.5425223619381396  0.310821863560072  1.0000
  H   H32       1.0  0.036618225351794695  0.6876677504090124  0.34270403159762003  1.0000
  H   H33       1.0  0.8079569783471711  0.3098272269513628  0.6481394696086084  1.0000
  H   H34       1.0  0.8777783970479403  0.3455048682438145  0.47002855027643897  1.0000
  H   H35       1.0  0.9573773416314991  0.6495480306295389  0.5423381398589131  1.0000
  H   H36       1.0  0.8498922075523936  0.47156167898927487  0.6857458670896436  1.0000
  H   H37       1.0  0.5038059848492863  0.1929206826122822  0.453500574562561  1.0000
  H   H38       1.0  0.4639666348384067  0.12109842504501238  0.3482409534946883  1.0000
  H   H39       1.0  0.6920710806460021  0.04380949879681845  0.49842782423925075  1.0000
  H   H40       1.0  0.6225514143969377  0.15253540912733132  0.5318732438457233  1.0000
  H   H41       1.0  0.5430521689562866  0.00037250004666586947  0.3075932554084773  1.0000
  H   H42       1.0  0.6503920043896371  0.9643186531726328  0.378349929328394  1.0000
  H   H43       1.0  0.3538980866725084  0.30981688601075064  0.18896805262298952  1.0000
  H   H44       1.0  0.5311293665632704  0.3796363269075442  0.15671456931867322  1.0000
  H   H45       1.0  0.45795208183036334  0.45536579783972525  0.8516064172014951  1.0000
  H   H46       1.0  0.31578201415509005  0.3492779581304646  0.02984030070827267  1.0000
  H   H47       1.0  0.6922363112588171  0.4993684412241917  0.9572447180706548  1.0000
  H   H48       1.0  0.6577284341516573  0.535031548914041  0.8137512411936855  1.0000
  C   C1        1.0  0.17138791085390173  0.07192153346477424  0.49764488531518947  1.0000
  C   C2        1.0  0.2001213299117595  0.13320878104757838  0.46804816604998933  1.0000
  C   C3        1.0  0.15461173014994498  0.14596282903620048  0.4789435714151224  1.0000
  C   C4        1.0  0.8993127640307178  0.8290424253597307  0.670078233767399  1.0000
  C   C5        1.0  0.9327834196520112  0.8013435862684514  0.6683827684683126  1.0000
  C   C6        1.0  0.9907206054404866  0.8476967538968054  0.6330936562951024  1.0000
  C   C7        1.0  0.9291738407347341  0.10215481510179093  0.5690318862057141  1.0000
  C   C8        1.0  0.8679593029510642  0.06906733121169836  0.6006341074723525  1.0000
  C   C9        1.0  0.8557838933228227  0.010919916436925926  0.6238121395564915  1.0000
  C   C10       1.0  0.43074142432505624  0.4287111077397441  0.4001810622976834  1.0000
  C   C11       1.0  0.39930568742839506  0.3674338418387606  0.4326560482499887  1.0000
  C   C12       1.0  0.3757670125520247  0.35454931539758405  0.49093450689819934  1.0000
  C   C13       1.0  0.5008042863130697  0.6709484974640602  0.43006692952290165  1.0000
  C   C14       1.0  0.530122141652434  0.6987242575518947  0.36891191471871587  1.0000
  C   C15       1.0  0.5190196020877521  0.6524856865362949  0.35721085688182813  1.0000
  C   C16       1.0  0.3292856983601596  0.3976707525582413  0.6728730025265081  1.0000
  C   C17       1.0  0.33062702705886693  0.4306384474304252  0.7011122238812393  1.0000
  C   C18       1.0  0.365493413022392  0.48883080642852417  0.6552489709115079  1.0000
  C   C19       1.0  0.3284921462612118  0.8302109798711328  0.09963184534634457  1.0000
  C   C20       1.0  0.29976564923619975  0.8314684180300276  0.06706778205969509  1.0000
  C   C21       1.0  0.3451974980004379  0.8664456606281306  0.00882679368444888  1.0000
  C   C22       1.0  0.6003700503651359  0.9305867038510414  0.07055363115225802  1.0000
  C   C23       1.0  0.5669482543565464  0.8984736336661995  0.13170376301782488  1.0000
  C   C24       1.0  0.5089892289515633  0.8754416561318551  0.14331715090153835  1.0000
  C   C25       1.0  0.5703139100006992  0.002267961187648282  0.8272828727397581  1.0000
  C   C26       1.0  0.6315298920980225  0.03191255345034691  0.799187080637168  1.0000
  C   C27       1.0  0.6437258146691107  0.020858532689629748  0.8451562464312515  1.0000
  C   C28       1.0  0.06927781246575648  0.6687201046607427  0.0021906714880089886  1.0000
  C   C29       1.0  0.10107226509790482  0.6679596632366797  0.031685795523003504  1.0000
  C   C30       1.0  0.12477639637681646  0.6333985828872671  0.02083032573433746  1.0000
  C   C31       1.0  0.9992063772133408  0.5692644379568679  0.8297748958913403  1.0000
  C   C32       1.0  0.9697529971972543  0.6009763646242163  0.831466847654852  1.0000
  C   C33       1.0  0.9806107381613957  0.6234852943489172  0.8668898531121771  1.0000
  C   C34       1.0  0.17064953235599487  0.4975552053375552  0.9315060050948248  1.0000
  C   C35       1.0  0.1691540646103533  0.46795041140288157  0.8999162236887488  1.0000
  C   C36       1.0  0.13427181038715452  0.47903374526457293  0.8766221244323875  1.0000
  C   C37       1.0  0.09953872022333593  0.9283960310130511  0.07035949120924577  1.0000
  C   C38       1.0  0.06706116423148231  0.8671135125547879  0.10125613527066693  1.0000
  C   C39       1.0  0.008750897926454133  0.8541737487134214  0.12455286146833112  1.0000
  C   C40       1.0  0.0696659848759537  0.17076193235262577  0.9996376008085336  1.0000
  C   C41       1.0  0.13088587728213946  0.1986576381929765  0.9704246116127992  1.0000
  C   C42       1.0  0.1425977210436569  0.152413531713371  0.9820546449832153  1.0000
  C   C43       1.0  0.8266903665071011  0.8970633168431162  0.1711351183759859  1.0000
  C   C44       1.0  0.7984694031595295  0.9300321572693804  0.16972930389005822  1.0000
  C   C45       1.0  0.8443804135065348  0.9882224026827799  0.13502617345841397  1.0000
  C   C46       1.0  0.0010024307066202206  0.5711491475067092  0.3290211267885185  1.0000
  C   C47       1.0  0.03140584665365509  0.632433495704575  0.30015494179179575  1.0000
  C   C48       1.0  0.02121074619049065  0.6454370215424773  0.3454640253604213  1.0000
  C   C49       1.0  0.8296992908886903  0.32895280520813913  0.6012317479280612  1.0000
  C   C50       1.0  0.8308902879539416  0.3010071201177168  0.5679789712270564  1.0000
  C   C51       1.0  0.8654510150582907  0.3471885474965432  0.5100123814284745  1.0000
  C   C52       1.0  0.9322946531009674  0.6025872968122311  0.5704395140876318  1.0000
  C   C53       1.0  0.9007682356058949  0.5695866202359596  0.6316221757428551  1.0000
  C   C54       1.0  0.8772421018073404  0.5114115752206773  0.643878130447469  1.0000
  C   C55       1.0  0.4997738046708873  0.17068183505584483  0.4289066232005753  1.0000
  C   C56       1.0  0.46927925047238256  0.16905916576770605  0.3980761529791792  1.0000
  C   C57       1.0  0.4794193878875743  0.13383210353478586  0.3750068180948248  1.0000
  C   C58       1.0  0.6704276033447413  0.06909248931407318  0.500842037167317  1.0000
  C   C59       1.0  0.6692102226784299  0.10122131560905957  0.5299081637408918  1.0000
  C   C60       1.0  0.634829724951409  0.1247869273357621  0.5179944442812285  1.0000
  C   C61       1.0  0.5681077638670259  0.997342277413466  0.32952215096338505  1.0000
  C   C62       1.0  0.5995759396665719  0.9676213350665535  0.33109272909053566  1.0000
  C   C63       1.0  0.6230773248768526  0.9788805613054875  0.36578188127867883  1.0000
  C   C64       1.0  0.4007463816819836  0.331570608727354  0.17069509999839022  1.0000
  C   C65       1.0  0.4332710075697079  0.3326609438490777  0.19947846295103505  1.0000
  C   C66       1.0  0.49157551246211983  0.36739459223051796  0.15407696782651936  1.0000
  C   C67       1.0  0.43026183116871414  0.4307982655881872  0.8985262339202296  1.0000
  C   C68       1.0  0.3690487051800417  0.39913010374522173  0.9318913936040618  1.0000
  C   C69       1.0  0.3574193976738583  0.3764537304234706  0.9898063948442302  1.0000
  C   C70       1.0  0.6733974580929284  0.5023827472281894  0.9291067574743509  1.0000
  C   C71       1.0  0.701588946511741  0.5318524946997129  0.8679345420518348  1.0000
  C   C72       1.0  0.655662307220119  0.5206186113507272  0.8556478151197882  1.0000
  C   C73       1.0  0.8764801053371727  0.6263388119667326  0.7497221143424543  1.0000
  C   C74       1.0  0.6236157541301421  0.8736400284253277  0.25017610109381394  1.0000
  C   C75       1.0  0.7498250915985452  0.1258893110364951  0.6243798236020126  1.0000
  C   C76       1.0  0.2498446809403346  0.3737412850819267  0.8760137935898413  1.0000
  C   C77       1.0  0.3754106417819756  0.2503478774192018  0.37457168851256034  1.0000
  C   C78       1.0  0.12460871322910808  0.749655946831382  0.12513431807462191  1.0000
  C   C79       1.0  0.26045299010979056  0.17285596061760342  0.4354480971335661  1.0000
  C   C80       1.0  0.3123886309329221  0.20742452078683013  0.4074741618856806  1.0000
  C   C81       1.0  0.3922557389883891  0.32783449696916017  0.4119575256443541  1.0000
  C   C82       1.0  0.38551991219182463  0.2932137539704982  0.3946857471512148  1.0000
  C   C83       1.0  0.23948402745823222  0.8037537842362285  0.08771574841883022  1.0000
  C   C84       1.0  0.1875701574165874  0.7797749279636222  0.10505731222102108  1.0000
  C   C85       1.0  0.10809026235445167  0.695682382064149  0.06424424929162599  1.0000
  C   C86       1.0  0.11460376815961835  0.7195933982386649  0.09224897453339774  1.0000
  C   C87       1.0  0.9130593022880406  0.7411706898411552  0.6959732121814926  1.0000
  C   C88       1.0  0.8962706852141052  0.6893279247088556  0.7198934039421374  1.0000
  C   C89       1.0  0.9373030612565074  0.6089382413561422  0.8037445995421207  1.0000
  C   C90       1.0  0.909528746276507  0.6162771831360486  0.7796850412089782  1.0000
  C   C91       1.0  0.5626511259344937  0.7588762165836939  0.32851903608881383  1.0000
  C   C92       1.0  0.590519045840317  0.8106732767100482  0.29336161185712956  1.0000
  C   C93       1.0  0.5867612698440681  0.8906688409896759  0.17210282236730048  1.0000
  C   C94       1.0  0.6036780037954441  0.8836129052109881  0.20707227660431482  1.0000
  C   C95       1.0  0.8278649397100966  0.08916556745631965  0.6079306436444227  1.0000
  C   C96       1.0  0.7929249785801318  0.10602825322924751  0.6146867726073284  1.0000
  C   C97       1.0  0.671610812618752  0.06467193707859298  0.7390216622454632  1.0000
  C   C98       1.0  0.7066028380694647  0.09273830675582675  0.687258266388419  1.0000
  C   C99       1.0  0.19652673207524868  0.43514483544853266  0.8926602079838376  1.0000
  C   C100      1.0  0.22016944083046025  0.4069956597326223  0.8858659457612249  1.0000
  C   C101      1.0  0.3031560756980482  0.4104172667123364  0.7613067599468126  1.0000
  C   C102      1.0  0.27944728134446717  0.39349936395802854  0.8131045597874476  1.0000
  C   C103      1.0  0.08766436269581125  0.8274549098468713  0.10820355009144597  1.0000
  C   C104      1.0  0.10463144039653122  0.7926034203695664  0.11506430225266234  1.0000
  C   C105      1.0  0.0639741239301942  0.6720018535777046  0.23988564496157497  1.0000
  C   C106      1.0  0.09181380299723664  0.7067184075420555  0.18804264402903215  1.0000
  C   C107      1.0  0.4365342640504294  0.19661422678492346  0.39116543765689477  1.0000
  C   C108      1.0  0.4083817208215094  0.22032499575657735  0.38451613472213353  1.0000
  C   C109      1.0  0.4126236424015772  0.3048142928811615  0.2597633777447115  1.0000
  C   C110      1.0  0.39541037104288523  0.2805920359386533  0.31163388625468974  1.0000
  C   C111      1.0  0.17133152861466536  0.2588808202839489  0.9375177962677413  1.0000
  C   C112      1.0  0.2065594017268495  0.3107100783470003  0.9093205292998121  1.0000
  C   C113      1.0  0.3285313126796438  0.39127729550940415  0.9121731304040496  1.0000
  C   C114      1.0  0.29322960396678593  0.383959313234726  0.895647265453107  1.0000
  C   C115      1.0  0.8034478022760181  0.24077022913748874  0.5878450561821114  1.0000
  C   C116      1.0  0.7796810926003274  0.18892244519852125  0.6045509503417962  1.0000
  C   C117      1.0  0.6964852546753804  0.10875036515350432  0.5628678323366431  1.0000
  C   C118      1.0  0.7201174296835617  0.11581155227396787  0.5910727722724403  1.0000
  C   C119      1.0  0.7382783849715151  0.9099453558058456  0.1969974334136993  1.0000
  C   C120      1.0  0.6865324714449416  0.8933809353020835  0.22048059097473097  1.0000
  C   C121      1.0  0.6067597148148425  0.934772769204372  0.3037505349536219  1.0000
  C   C122      1.0  0.6137105752871294  0.9067891845794521  0.2799519356161326  1.0000
  C   C123      1.0  0.7617804538550099  0.5647323352860237  0.8278716714760892  1.0000
  C   C124      1.0  0.813545007719952  0.5930265514437634  0.7927817296018208  1.0000
  C   C125      1.0  0.8935563271986166  0.5897506643999859  0.6716414466792815  1.0000
  C   C126      1.0  0.8865607677532024  0.606560894223193  0.7066039406416493  1.0000
  N   N1        1.0  0.10299397583366236  0.09605468347226057  0.5124101514696875  1.0000
  N   N2        1.0  0.11341920040430148  0.050208282302236264  0.5239795794300975  1.0000
  N   N3        1.0  0.9913557596974839  0.8987599099461505  0.6153801371600098  1.0000
  N   N4        1.0  0.9347466463467383  0.887245250199733  0.6382793127136496  1.0000
  N   N5        1.0  0.9059139254620733  0.00976934966340084  0.6071988418430508  1.0000
  N   N6        1.0  0.9514095218102766  0.0663169660856509  0.5732438395007905  1.0000
  N   N7        1.0  0.3920222626203368  0.40439226624744856  0.4927426450460716  1.0000
  N   N8        1.0  0.42606091001473345  0.4502917565871201  0.43652746328765357  1.0000
  N   N9        1.0  0.48568966487958687  0.6013741631785692  0.40758081958527725  1.0000
  N   N10       1.0  0.4743839139640257  0.6127641099685944  0.45272665173256127  1.0000
  N   N11       1.0  0.3833203497229433  0.49011514356238445  0.6039253045527248  1.0000
  N   N12       1.0  0.3608816536821919  0.43362238858917823  0.6148413353658954  1.0000
  N   N13       1.0  0.39681352716903695  0.8844485426743133  0.007132477710982353  1.0000
  N   N14       1.0  0.38644174293959566  0.8619989493978792  0.06337001687202828  1.0000
  N   N15       1.0  0.5083141014297468  0.8926213245385526  0.09290823366485794  1.0000
  N   N16       1.0  0.564892657723945  0.9267813331049269  0.047800954705302184  1.0000
  N   N17       1.0  0.5936091083891454  0.9872670769514613  0.8964182838586512  1.0000
  N   N18       1.0  0.5481251482980198  0.9757512283047234  0.8853263137439886  1.0000
  N   N19       1.0  0.10824377719949038  0.6151418608696987  0.987467800285721  1.0000
  N   N20       1.0  0.07388651429756263  0.637036531204302  0.9759461171224261  1.0000
  N   N21       1.0  0.013912483777872395  0.6063821886466557  0.8846922801521587  1.0000
  N   N22       1.0  0.02546200694110475  0.5728085263597863  0.8617244854198348  1.0000
  N   N23       1.0  0.11657428027685045  0.5126041625161263  0.8931507425782854  1.0000
  N   N24       1.0  0.1391162791380224  0.5240904259311135  0.9271603970107095  1.0000
  N   N25       1.0  0.006925206817541597  0.9039900924435783  0.10867649781748438  1.0000
  N   N26       1.0  0.06316404637191646  0.9499524163415671  0.07510955672093206  1.0000
  N   N27       1.0  0.09223215648591315  0.10124654217803908  0.015539775916209914  1.0000
  N   N28       1.0  0.047017550531201414  0.11257085452259472  0.02645713553949491  1.0000
  N   N29       1.0  0.8957354264087128  0.9895365228209199  0.11732485296454376  1.0000
  N   N30       1.0  0.8847674175605817  0.9330326588655781  0.13970822988150644  1.0000
  N   N31       1.0  0.9873322348323228  0.5956527383933544  0.3971324610880914  1.0000
  N   N32       1.0  0.9748286819488  0.5496543055086532  0.3869248939054233  1.0000
  N   N33       1.0  0.8832236478004063  0.3983894010095807  0.50913452120421  1.0000
  N   N34       1.0  0.8610947870445357  0.38713132852181786  0.5656302497118304  1.0000
  N   N35       1.0  0.8935462093607852  0.5101448917783599  0.5938255842513203  1.0000
  N   N36       1.0  0.9276650564713618  0.5666578641632967  0.5483118410035959  1.0000
  N   N37       1.0  0.5133056676079306  0.1160446109839269  0.3909552208171193  1.0000
  N   N38       1.0  0.5259001762357229  0.1388865809527218  0.42434179451004894  1.0000
  N   N39       1.0  0.6171807282904211  0.1079208614459546  0.4844788374306007  1.0000
  N   N40       1.0  0.639216532315487  0.07341023381208343  0.4738333378831214  1.0000
  N   N41       1.0  0.6068115115233965  0.012686232741870607  0.38328109227260404  1.0000
  N   N42       1.0  0.5727362382970754  0.02413286978511317  0.3608049839172836  1.0000
  N   N43       1.0  0.4933290720421936  0.3853522151308296  0.10245995552961783  1.0000
  N   N44       1.0  0.43706414787359893  0.3631559415524563  0.11276504741307047  1.0000
  N   N45       1.0  0.4078291877123943  0.39338367790534784  0.9905675187224433  1.0000
  N   N46       1.0  0.45298607279759295  0.42705820565088004  0.9340207469024266  1.0000
  N   N47       1.0  0.6043233567967832  0.48710255778869527  0.9056742350867992  1.0000
  N   N48       1.0  0.615315874932186  0.4757979783547909  0.9512071286090065  1.0000
