data_image0
_chemical_formula_structural       Tl2H46C28S2N8O4
_chemical_formula_sum              "Tl2 H46 C28 S2 N8 O4"
_cell_length_a       7.307329661159458
_cell_length_b       8.313399692864344
_cell_length_c       16.307933991102363
_cell_angle_alpha    95.06603477439012
_cell_angle_beta     95.23001727712463
_cell_angle_gamma    102.845474667017

_space_group_name_H-M_alt    "P 1"
_space_group_IT_number       1

loop_
  _space_group_symop_operation_xyz
  'x, y, z'

loop_
  _atom_site_type_symbol
  _atom_site_label
  _atom_site_symmetry_multiplicity
  _atom_site_fract_x
  _atom_site_fract_y
  _atom_site_fract_z
  _atom_site_occupancy
  Tl  Tl1       1.0  0.019250480003655902  0.23840816818383104  0.008599892433316802  1.0000
  Tl  Tl2       1.0  0.9807542815688992  0.7616025554301517  0.9913991445359116  1.0000
  H   H1        1.0  0.1267779086452663  0.5219153646908836  0.8165753682041981  1.0000
  H   H2        1.0  0.8732443087607182  0.47805068305491727  0.18341932407079745  1.0000
  H   H3        1.0  0.6642971467961872  0.9521065710440271  0.391235359730736  1.0000
  H   H4        1.0  0.3356925596315606  0.0478875947141688  0.608754470258546  1.0000
  H   H5        1.0  0.5307782574899491  0.0952080195406921  0.42373916502001663  1.0000
  H   H6        1.0  0.46920039000852387  0.9047862451303957  0.5762538415730702  1.0000
  H   H7        1.0  0.7282741285612032  0.16343445295634504  0.3684572242111628  1.0000
  H   H8        1.0  0.2717110809651119  0.8365586115176812  0.6315360438500122  1.0000
  H   H9        1.0  0.13275601023807582  0.13161618894063315  0.7558515353051477  1.0000
  H   H10       1.0  0.8672408537232315  0.8683955895551706  0.2441441072743444  1.0000
  H   H11       1.0  0.21693010564492007  0.34460145889868704  0.7436535472198216  1.0000
  H   H12       1.0  0.7830962228203545  0.6553692958711396  0.2563353539538937  1.0000
  H   H13       1.0  0.6049979827103867  0.345461615325462  0.7889976983405091  1.0000
  H   H14       1.0  0.3950103657650743  0.6545578872348302  0.21100363101127334  1.0000
  H   H15       1.0  0.6252719629066661  0.25174983261801753  0.6879353812902522  1.0000
  H   H16       1.0  0.37472881298757704  0.748288132012931  0.3120643659920717  1.0000
  H   H17       1.0  0.47794566796299887  0.13877290859311844  0.7543844847931993  1.0000
  H   H18       1.0  0.522048019868656  0.8612333412079993  0.24562616560807982  1.0000
  H   H19       1.0  0.18523272170205732  0.5236624308842368  0.6600213331459557  1.0000
  H   H20       1.0  0.814767351976336  0.4763085245255994  0.3399743450711057  1.0000
  H   H21       1.0  0.09010021546396982  0.5668357670794536  0.5641303992611811  1.0000
  H   H22       1.0  0.9098942133833035  0.43314024927251893  0.43586825303021476  1.0000
  H   H23       1.0  0.4691679615778527  0.9264029442629751  0.7915487615499259  1.0000
  H   H24       1.0  0.5308442792192807  0.07361043989902069  0.20845377242982008  1.0000
  H   H25       1.0  0.5795167362773628  0.8351470238232681  0.8702313989315228  1.0000
  H   H26       1.0  0.42049129290563764  0.1648712375261567  0.1297698750936931  1.0000
  H   H27       1.0  0.7422364766324422  0.7002487312939111  0.7653682310146408  1.0000
  H   H28       1.0  0.25777977759040027  0.2997696889620585  0.23463587881433767  1.0000
  H   H29       1.0  0.6225435302436965  0.7849632817730524  0.6850104720935591  1.0000
  H   H30       1.0  0.3774645654889924  0.21505013262565606  0.3149930996344779  1.0000
  H   H31       1.0  0.49011738021760465  0.5053581657547995  0.7239259816331085  1.0000
  H   H32       1.0  0.5099180795343372  0.4946513335782825  0.27609834452759685  1.0000
  H   H33       1.0  0.9122139621512275  0.9431419752619663  0.655314816623914  1.0000
  H   H34       1.0  0.08774396482213122  0.056820053791753415  0.3446786368981094  1.0000
  H   H35       1.0  0.648971698776762  0.21813671029385526  0.9631869240061377  1.0000
  H   H36       1.0  0.3510103174097169  0.7818624461601902  0.0368321596113361  1.0000
  H   H37       1.0  0.6727147721242801  0.05179152552288001  0.02449522312673479  1.0000
  H   H38       1.0  0.3272951446508899  0.9482204100694746  0.9755304655175792  1.0000
  H   H39       1.0  0.6964381528765103  0.25706783064979544  0.0745886047182296  1.0000
  H   H40       1.0  0.3035676685889186  0.7429324048145817  0.9254248582896949  1.0000
  H   H41       1.0  0.3976654457584772  0.3543046292893167  0.04059900533778921  1.0000
  H   H42       1.0  0.6023441061389435  0.64571314665794  0.9593912816205759  1.0000
  H   H43       1.0  0.30305165040608273  0.47154862121067975  0.9680119191117029  1.0000
  H   H44       1.0  0.6969325102847607  0.5284456488489585  0.03198072700456581  1.0000
  H   H45       1.0  0.33822420860628455  0.26985806759016384  0.9330251649932677  1.0000
  H   H46       1.0  0.661730196970943  0.7301365776572126  0.0669507947394834  1.0000
  C   C1        1.0  0.9057936268703628  0.042827664530314315  0.6163311076582971  1.0000
  C   C2        1.0  0.09418312260622484  0.9571544704598409  0.3836675481534471  1.0000
  C   C3        1.0  0.7977963710962613  0.12409717146454824  0.49555115055967747  1.0000
  C   C4        1.0  0.20219092942549824  0.8758888816900027  0.5044511843070225  1.0000
  C   C5        1.0  0.6743769989639502  0.08181070441238349  0.4144162123880761  1.0000
  C   C6        1.0  0.3256178362746667  0.9181824449034651  0.5855781130981654  1.0000
  C   C7        1.0  0.9957217541365964  0.32628811387744616  0.5910419511693092  1.0000
  C   C8        1.0  0.004272624433255622  0.6736926945802539  0.4089531755941849  1.0000
  C   C9        1.0  0.0029747371644504032  0.20336601239161212  0.6459451992749479  1.0000
  C   C10       1.0  0.9969861275921944  0.796618534009646  0.3540534207952888  1.0000
  C   C11       1.0  0.09132246509292943  0.24128451201453777  0.733966917589413  1.0000
  C   C12       1.0  0.9086818627586126  0.758718416044559  0.2660238699162605  1.0000
  C   C13       1.0  0.9923062237621992  0.4411521892506585  0.8293773531691429  1.0000
  C   C14       1.0  0.0077172076029512265  0.5588560296677587  0.170619390609275  1.0000
  C   C15       1.0  0.7777940464253704  0.16999681801798527  0.7895916187379015  1.0000
  C   C16       1.0  0.22221177211878287  0.8300126725878914  0.2104074262636857  1.0000
  C   C17       1.0  0.6114849870240489  0.22873267535231182  0.7529258220298515  1.0000
  C   C18       1.0  0.3885135414098927  0.7712758346763595  0.24707960388847994  1.0000
  C   C19       1.0  0.773778871992633  0.021006849948918212  0.8189195901571011  1.0000
  C   C20       1.0  0.226214470677526  0.9790028684795757  0.1810856376520746  1.0000
  C   C21       1.0  0.5967260427611195  0.8830307845503783  0.8100166369024322  1.0000
  C   C22       1.0  0.40327600842460504  0.11697515797485644  0.18998641278938067  1.0000
  C   C23       1.0  0.613124828279659  0.741638595369544  0.7467905292445209  1.0000
  C   C24       1.0  0.38689675961796866  0.2583734953109271  0.2532099372710093  1.0000
  C   C25       1.0  0.7195891592328891  0.18433795205022824  0.018856404092964903  1.0000
  C   C26       1.0  0.28042888296520374  0.8156721608304169  0.9811554893898773  1.0000
  C   C27       1.0  0.3019937249429958  0.346528097928804  0.9841698992600031  1.0000
  C   C28       1.0  0.6980031074117079  0.6534722244272756  0.01581861906023361  1.0000
  S   S1        1.0  0.9798416337073518  0.9743131116171497  0.8653660297410752  1.0000
  S   S2        1.0  0.020149627564123297  0.02569896313757171  0.1346367263532002  1.0000
  N   N1        1.0  0.8010687822086241  0.9991428264458762  0.5422459030896007  1.0000
  N   N2        1.0  0.1989134057745332  0.0008441883060328001  0.4577507084550517  1.0000
  N   N3        1.0  0.8921182169086067  0.2826351393398952  0.5156979377306996  1.0000
  N   N4        1.0  0.1078810199964408  0.7173432469296089  0.4842979457279241  1.0000
  N   N5        1.0  0.08480165810377831  0.48762861158896703  0.610355090537162  1.0000
  N   N6        1.0  0.9152029871618624  0.5123385707318207  0.38963883339827987  1.0000
  N   N7        1.0  0.9563310041049179  0.28668679426269966  0.7892526885204064  1.0000
  N   N8        1.0  0.043673387897747766  0.7133274802461429  0.2107427675943399  1.0000
  O   O1        1.0  0.4493988173541228  0.6043646590889442  0.7434956309548468  1.0000
  O   O2        1.0  0.5506230735637062  0.39564872764738374  0.2565061187123376  1.0000
  O   O3        1.0  0.8879219028098503  0.4900447265295186  0.8775955923571387  1.0000
  O   O4        1.0  0.11209172144955205  0.5099802042424529  0.1224159709784161  1.0000
