data_image0
_chemical_formula_structural       Er2H40C60N6O14
_chemical_formula_sum              "Er2 H40 C60 N6 O14"
_cell_length_a       8.408389529303035
_cell_length_b       11.360942800543167
_cell_length_c       14.602
_cell_angle_alpha    69.51803613044571
_cell_angle_beta     73.37935064416877
_cell_angle_gamma    82.68889319421056

_space_group_name_H-M_alt    "P 1"
_space_group_IT_number       1

loop_
  _space_group_symop_operation_xyz
  'x, y, z'

loop_
  _atom_site_type_symbol
  _atom_site_label
  _atom_site_symmetry_multiplicity
  _atom_site_fract_x
  _atom_site_fract_y
  _atom_site_fract_z
  _atom_site_occupancy
  Er  Er1       1.0  0.13980680920442984  0.5043968120262079  0.08136599197131736  1.0000
  Er  Er2       1.0  0.8601908035720953  0.4955999255678876  0.9186353578869343  1.0000
  H   H1        1.0  0.18908650454888942  0.29709185617232947  0.3060567943590868  1.0000
  H   H2        1.0  0.8109109578896394  0.7029086415784036  0.6939462959244054  1.0000
  H   H3        1.0  0.2601242192536759  0.3003302910781755  0.4585690894652217  1.0000
  H   H4        1.0  0.7398730176778585  0.6996758469075175  0.5414311327545747  1.0000
  H   H5        1.0  0.11632785530969163  0.695035813614261  0.37649917556623086  1.0000
  H   H6        1.0  0.8836682532314059  0.30496750425395186  0.6234978912493219  1.0000
  H   H7        1.0  0.0412558266222121  0.671541414890946  0.22924829137330957  1.0000
  H   H8        1.0  0.9587367088250716  0.3284581428206295  0.7707524421641451  1.0000
  H   H9        1.0  0.30049166534207933  0.31639838043830787  0.5843187735889614  1.0000
  H   H10       1.0  0.6995105737496987  0.6836068175082275  0.4156788261380981  1.0000
  H   H11       1.0  0.39747963167230443  0.5719724670746017  0.7191662618578434  1.0000
  H   H12       1.0  0.6025227201729776  0.4280299107544536  0.28083345673875476  1.0000
  H   H13       1.0  0.39225760220316636  0.9834877698679775  0.6869184750174283  1.0000
  H   H14       1.0  0.6077323382027515  0.0165146079610778  0.31308808172063607  1.0000
  H   H15       1.0  0.4059423138411589  0.760139165672129  0.7068337523417084  1.0000
  H   H16       1.0  0.5940501464371267  0.2398622721177688  0.2931712755968334  1.0000
  H   H17       1.0  0.1662948448427954  0.8546629233172993  0.46338685171568267  1.0000
  H   H18       1.0  0.8337148411126024  0.1453422746292361  0.5366074669317129  1.0000
  H   H19       1.0  0.16521681470131713  0.0785205309870776  0.45230683153511103  1.0000
  H   H20       1.0  0.8347928336695818  0.9214856069986154  0.5476906615693764  1.0000
  H   H21       1.0  0.5403135663753887  0.2339644664285743  0.6252111807099608  1.0000
  H   H22       1.0  0.4596876570794493  0.7660350912830012  0.37478743699546146  1.0000
  H   H23       1.0  0.6555966456394273  0.054893586742217296  0.7434553623592774  1.0000
  H   H24       1.0  0.34439972599317065  0.9451031508518779  0.2565441374136625  1.0000
  H   H25       1.0  0.6182288124798703  0.04814410557415269  0.9211669221283214  1.0000
  H   H26       1.0  0.3817712450000315  0.9518535720591074  0.07883239946763611  1.0000
  H   H27       1.0  0.4418068132612589  0.21424338489308065  0.9819605878245311  1.0000
  H   H28       1.0  0.5581932442186429  0.7857542927401723  0.01803941860912059  1.0000
  H   H29       1.0  0.16234347884806516  0.0657952208795436  0.19374074432757737  1.0000
  H   H30       1.0  0.837654058759469  0.9342033967928671  0.8062601060679102  1.0000
  H   H31       1.0  0.1142113284315229  0.8491411332920646  0.20297431580092956  1.0000
  H   H32       1.0  0.8857912113362546  0.1508565443411953  0.7970266514525832  1.0000
  H   H33       1.0  0.8851388909713834  0.8148776459529614  0.13777393912709357  1.0000
  H   H34       1.0  0.11486620625326795  0.1851181516019764  0.8622236945452001  1.0000
  H   H35       1.0  0.7008503930282688  0.994049109829426  0.0733493646152255  1.0000
  H   H36       1.0  0.2991547417808818  0.0059457476863543  0.9266485187884468  1.0000
  H   H37       1.0  0.4570128662673767  0.3618624343675876  0.11272232311806364  1.0000
  H   H38       1.0  0.5429848216781539  0.6381324231481855  0.8872836352291174  1.0000
  H   H39       1.0  0.491828637131789  0.5061067432580586  0.08628249209728979  1.0000
  H   H40       1.0  0.5081628075095566  0.49388905429687197  0.9137235538196222  1.0000
  C   C1        1.0  0.1731481518728586  0.3831627816917091  0.32519405037187  1.0000
  C   C2        1.0  0.8268480318372371  0.6168386560981887  0.6748083097703059  1.0000
  C   C3        1.0  0.21400290831969226  0.386670067797283  0.40992958516729056  1.0000
  C   C4        1.0  0.7859967733152188  0.6133370102275676  0.5900699784655997  1.0000
  C   C5        1.0  0.19802430289017536  0.5010342919512566  0.4292491068006896  1.0000
  C   C6        1.0  0.801975453913734  0.4989709059952787  0.5707495866195841  1.0000
  C   C7        1.0  0.13358172047117733  0.6053353968985249  0.3631826653622099  1.0000
  C   C8        1.0  0.866418073917231  0.3946688610088528  0.6368169626271366  1.0000
  C   C9        1.0  0.09296076425550133  0.5927830539964134  0.28148677109164305  1.0000
  C   C10       1.0  0.9070366230140294  0.407219323832642  0.7185123955406069  1.0000
  C   C11       1.0  0.2489285133734498  0.5149741326533785  0.5139830883210834  1.0000
  C   C12       1.0  0.7510787654630776  0.4850291852148416  0.4860148779953803  1.0000
  C   C13       1.0  0.3021905893581973  0.4113630164494708  0.5859375662521841  1.0000
  C   C14       1.0  0.6978129660465201  0.5886403014187422  0.41406101334756323  1.0000
  C   C15       1.0  0.35471519075061053  0.4301590994516218  0.6622711663543581  1.0000
  C   C16       1.0  0.6452883646541069  0.5698442184165913  0.337726728407702  1.0000
  C   C17       1.0  0.35223690975472277  0.5536398233782761  0.6627370685842422  1.0000
  C   C18       1.0  0.6477666832344939  0.4463625544507721  0.3372624455845922  1.0000
  C   C19       1.0  0.2937795759011265  0.6525281828428575  0.5895525927943552  1.0000
  C   C20       1.0  0.7062239419190846  0.3474760750645132  0.41044573707401355  1.0000
  C   C21       1.0  0.3440692762278132  0.9531198048074855  0.6370657006271755  1.0000
  C   C22       1.0  0.6559268323132843  0.0468835130607275  0.3629354752145346  1.0000
  C   C23       1.0  0.35109871655303243  0.8254512064234872  0.6483613579206773  1.0000
  C   C24       1.0  0.6488974295725641  0.1745511714055681  0.3516400676524184  1.0000
  C   C25       1.0  0.2880795214044056  0.7859366603371923  0.5850385249187724  1.0000
  C   C26       1.0  0.7119202353994966  0.214068537609343  0.41495948366380725  1.0000
  C   C27       1.0  0.21889064016254173  0.8801840464693595  0.5136763810389411  1.0000
  C   C28       1.0  0.7811090790568687  0.11982209151633329  0.4863227474876338  1.0000
  C   C29       1.0  0.21849815312558726  0.005128853656401599  0.5080656683883902  1.0000
  C   C30       1.0  0.7815078469824999  0.994875404250976  0.49193225262445844  1.0000
  C   C31       1.0  0.41712653635345026  0.3227408246501327  0.7365575153859824  1.0000
  C   C32       1.0  0.5828722048135121  0.6772587330614428  0.26344219601266866  1.0000
  C   C33       1.0  0.5143532930210456  0.2278617322025198  0.704120030948779  1.0000
  C   C34       1.0  0.48564661412086013  0.7721397055873779  0.2958789765593365  1.0000
  C   C35       1.0  0.5834195758607025  0.1285785562907833  0.770364644061047  1.0000
  C   C36       1.0  0.41657796174683165  0.8714200613816345  0.22963415182135788  1.0000
  C   C37       1.0  0.561200013885312  0.1244339236347969  0.8698699308833042  1.0000
  C   C38       1.0  0.43879880245065545  0.8755637539984633  0.13012959514041708  1.0000
  C   C39       1.0  0.4638454748310039  0.21723176938239416  0.903874391226374  1.0000
  C   C40       1.0  0.5361545826489049  0.7827659082508589  0.09612630004497194  1.0000
  C   C41       1.0  0.3875064719586092  0.3140529827343599  0.8388178772586699  1.0000
  C   C42       1.0  0.6124935103522945  0.6859465749772156  0.16118162971221042  1.0000
  C   C43       1.0  0.2583280101429325  0.3940550154374378  0.8861257776696616  1.0000
  C   C44       1.0  0.7416706934395307  0.6059454823132953  0.11387436883529031  1.0000
  C   C45       1.0  0.007852413588359801  0.27538729200945505  0.12047919995219299  1.0000
  C   C46       1.0  0.9921476814760485  0.7246094455846401  0.8795217410505315  1.0000
  C   C47       1.0  0.96265941777979  0.15041096577940039  0.12722435779004826  1.0000
  C   C48       1.0  0.03734443830092  0.8495848317755373  0.872773480310002  1.0000
  C   C49       1.0  0.061860295037661224  0.0473290916225224  0.1677346811570786  1.0000
  C   C50       1.0  0.938143561043056  0.9526667059324153  0.8322645266183599  1.0000
  C   C51       1.0  0.03361648836973069  0.9271493429369997  0.1729906447711613  1.0000
  C   C52       1.0  0.9663873677109863  0.0728464546179382  0.8270071933288958  1.0000
  C   C53       1.0  0.9055165340205421  0.9081784126511037  0.13683627171438661  1.0000
  C   C54       1.0  0.09448980434804352  0.09181738490382678  0.8631604726924492  1.0000
  C   C55       1.0  0.8033894917555103  0.009294167173905498  0.09899494272317362  1.0000
  C   C56       1.0  0.19661440190970586  0.9907006903418674  0.9010031451082698  1.0000
  C   C57       1.0  0.8291904659841409  0.1306381820901166  0.09433210781139675  1.0000
  C   C58       1.0  0.17081214895263494  0.8693576154648212  0.9056659347164171  1.0000
  C   C59       1.0  0.7039754525493578  0.23198568399698868  0.060728637555016035  1.0000
  C   C60       1.0  0.2960183992108655  0.7680119936362644  0.9392765000436043  1.0000
  N   N1        1.0  0.1152567771979918  0.48468983107811425  0.2604946548560179  1.0000
  N   N2        1.0  0.8847369618087343  0.5153106666726188  0.7395076790353698  1.0000
  N   N3        1.0  0.24259702261655047  0.6322017160883958  0.5171811932493071  1.0000
  N   N4        1.0  0.7574065703726591  0.36780066174065945  0.48281763608183326  1.0000
  N   N5        1.0  0.28026959368813215  0.043598076196886396  0.5679654405538628  1.0000
  N   N6        1.0  0.7197302007002692  0.9564061817104913  0.4320362419485662  1.0000
  O   O1        1.0  0.119615049846324  0.4102030081261603  0.8643049644951546  1.0000
  O   O2        1.0  0.8803813593707659  0.5897927894287776  0.13569546984685846  1.0000
  O   O3        1.0  0.2937772479183138  0.4330835612780604  0.9499910055532084  1.0000
  O   O4        1.0  0.7062216060021528  0.5669131763160351  0.05001013987727989  1.0000
  O   O5        1.0  0.11349154897421701  0.28481400470490564  0.1646857991173007  1.0000
  O   O6        1.0  0.8865073425307486  0.715181792850025  0.8353142263691852  1.0000
  O   O7        1.0  0.9457555026542013  0.37732137835210006  0.0665265209887167  1.0000
  O   O8        1.0  0.05424086897839692  0.6226753592419952  0.9334736636219175  1.0000
  O   O9        1.0  0.5647857179749921  0.22951244096729786  0.1230964526797962  1.0000
  O   O10       1.0  0.4352192664961549  0.7704861767051199  0.8769086498506623  1.0000
  O   O11       1.0  0.7443143967216983  0.31103827714856885  0.9704006599960735  1.0000
  O   O12       1.0  0.255680621013461  0.6889612805630064  0.029599664685854104  1.0000
  O   O13       1.0  0.40146989409662137  0.44593953682882403  0.11296275086409222  1.0000
  O   O14       1.0  0.598523995248101  0.5540572007652713  0.8870419516282195  1.0000
