data_image0
_chemical_formula_structural       Ba4H8C24N8O16
_chemical_formula_sum              "Ba4 H8 C24 N8 O16"
_cell_length_a       7.017229707533675
_cell_length_b       9.197758184075449
_cell_length_c       11.731683090687946
_cell_angle_alpha    89.99986014867993
_cell_angle_beta     103.21136378283687
_cell_angle_gamma    90.0004628822615

_space_group_name_H-M_alt    "P 1"
_space_group_IT_number       1

loop_
  _space_group_symop_operation_xyz
  'x, y, z'

loop_
  _atom_site_type_symbol
  _atom_site_label
  _atom_site_symmetry_multiplicity
  _atom_site_fract_x
  _atom_site_fract_y
  _atom_site_fract_z
  _atom_site_occupancy
  Ba  Ba1       1.0  0.4737212402675084  0.8908433183501286  0.1394567719223332  1.0000
  Ba  Ba2       1.0  0.026278107118237404  0.3908450618107721  0.8605445414767418  1.0000
  Ba  Ba3       1.0  0.5262786845388875  0.10915622251538787  0.8605436313022993  1.0000
  Ba  Ba4       1.0  0.9737232814969445  0.6091555662803927  0.13945606337573932  1.0000
  H   H1        1.0  0.6584595915461761  0.040915664064684186  0.43661388998521744  1.0000
  H   H2        1.0  0.84154019281452  0.5409150415167259  0.5633881920797849  1.0000
  H   H3        1.0  0.34154033326587546  0.9590849640222813  0.563386513239152  1.0000
  H   H4        1.0  0.1584611984107482  0.45908449935433265  0.43661156073928714  1.0000
  H   H5        1.0  0.752292167042718  0.26872454502667853  0.5520481703391127  1.0000
  H   H6        1.0  0.747708529019384  0.7687204435378019  0.44795189615358316  1.0000
  H   H7        1.0  0.2477077551592473  0.7312771702803998  0.447953084918666  1.0000
  H   H8        1.0  0.2522943286190937  0.23127801011733592  0.552047206260184  1.0000
  C   C1        1.0  0.6157392295139844  0.1467446435034319  0.39680238814482044  1.0000
  C   C2        1.0  0.8842601973926705  0.6467430725226039  0.6031977371810981  1.0000
  C   C3        1.0  0.38426069529806733  0.8532559845835408  0.6031980150795491  1.0000
  C   C4        1.0  0.11574265763572102  0.35325646835264723  0.3968022172660852  1.0000
  C   C5        1.0  0.6726680601528727  0.2736582535292911  0.4606486353940653  1.0000
  C   C6        1.0  0.827331220842332  0.7736576185846713  0.5393520791237095  1.0000
  C   C7        1.0  0.32733186203778797  0.7263412873348826  0.5393526198642391  1.0000
  C   C8        1.0  0.1726716341860666  0.22634192229057956  0.46064787532346685  1.0000
  C   C9        1.0  0.5289021841394402  0.4110806759371072  0.3017640970514321  1.0000
  C   C10       1.0  0.971095606954023  0.9110826045811039  0.6982335918263588  1.0000
  C   C11       1.0  0.4710977432826979  0.5889188649297521  0.6982354541395284  1.0000
  C   C12       1.0  0.0289043204737709  0.08891802350721177  0.30176595936433875  1.0000
  C   C13       1.0  0.46485248407161345  0.2833929426082165  0.23771609126450954  1.0000
  C   C14       1.0  0.0351486834048345  0.7833974199744133  0.762282269081318  1.0000
  C   C15       1.0  0.5351489045379125  0.7166065982614993  0.7622845135882343  1.0000
  C   C16       1.0  0.9648512414072173  0.21660320811255918  0.23771813414305143  1.0000
  C   C17       1.0  0.49700521331894276  0.561369456972308  0.24824435819214594  1.0000
  C   C18       1.0  0.002992177624129499  0.06137030997466298  0.7517547596473692  1.0000
  C   C19       1.0  0.5029947114874532  0.43863008389320857  0.7517560450324865  1.0000
  C   C20       1.0  0.9970062833791359  0.9386292308866612  0.24824544194915182  1.0000
  C   C21       1.0  0.3421942418964291  0.2917067411260134  0.1136126656864747  1.0000
  C   C22       1.0  0.1578099475552577  0.7917148480073165  0.8863835378037309  1.0000
  C   C23       1.0  0.6578056829099665  0.708292799739503  0.8863877375381577  1.0000
  C   C24       1.0  0.8421885134480078  0.20828469285400789  0.11361666379279  1.0000
  N   N1        1.0  0.5125243667450691  0.15190336528268486  0.2854925073279517  1.0000
  N   N2        1.0  0.9874780414614432  0.6519053439875364  0.7145080187651517  1.0000
  N   N3        1.0  0.4874770192543706  0.848097262807137  0.7145089495582013  1.0000
  N   N4        1.0  0.0125218833449523  0.3480941968779804  0.2854923844594808  1.0000
  N   N5        1.0  0.6327190059881646  0.4056458018066991  0.41304693474442905  1.0000
  N   N6        1.0  0.8672772568880306  0.9056441769703125  0.5869531112284962  1.0000
  N   N7        1.0  0.36728091882388725  0.5943548262802736  0.5869534684799406  1.0000
  N   N8        1.0  0.13272413433723074  0.0943553639007462  0.41304664159056875  1.0000
  O   O1        1.0  0.3636434757256596  0.6415265852637616  0.27167011700277044  1.0000
  O   O2        1.0  0.1363532906754585  0.14153050798292804  0.7283270564788398  1.0000
  O   O3        1.0  0.6363579154996089  0.3584729556072971  0.7283296358162943  1.0000
  O   O4        1.0  0.8636437091517308  0.8584712073184375  0.27167209145537197  1.0000
  O   O5        1.0  0.6158766030246666  0.6001445844618373  0.1873007326085698  1.0000
  O   O6        1.0  0.8841223416433124  0.10014433432979077  0.8126985631596781  1.0000
  O   O7        1.0  0.38412332701321367  0.399854956406365  0.8126979665487114  1.0000
  O   O8        1.0  0.11587465555682291  0.8998552065273342  0.1873014368087311  1.0000
  O   O9        1.0  0.3371719278557066  0.18346958711183695  0.04595776437702171  1.0000
  O   O10       1.0  0.16283259397641103  0.6834753388839018  0.9540403970145874  1.0000
  O   O11       1.0  0.6628294607594684  0.8165310409793277  0.9540428404754594  1.0000
  O   O12       1.0  0.8371658670268616  0.31652420197742254  0.04595980458193341  1.0000
  O   O13       1.0  0.24987668334378552  0.4100364204541265  0.08627281689679481  1.0000
  O   O14       1.0  0.25012434325167726  0.9100406619377777  0.9137235766704421  1.0000
  O   O15       1.0  0.7501247078814756  0.5899631204169324  0.9137269359222702  1.0000
  O   O16       1.0  0.7498741151358459  0.08995887892220367  0.0862774769597507  1.0000
