data_image0
_chemical_formula_structural       K4H24C24S4N4Cl8O12
_chemical_formula_sum              "K4 H24 C24 S4 N4 Cl8 O12"
_cell_length_a       6.730657477919649
_cell_length_b       9.905272349013202
_cell_length_c       15.504215104886828
_cell_angle_alpha    90.00012367566212
_cell_angle_beta     100.41849055684834
_cell_angle_gamma    89.99984040483619

_space_group_name_H-M_alt    "P 1"
_space_group_IT_number       1

loop_
  _space_group_symop_operation_xyz
  'x, y, z'

loop_
  _atom_site_type_symbol
  _atom_site_label
  _atom_site_symmetry_multiplicity
  _atom_site_fract_x
  _atom_site_fract_y
  _atom_site_fract_z
  _atom_site_occupancy
  K   K1        1.0  0.8848513342062888  0.619252144768538  0.5603433742125787  1.0000
  K   K2        1.0  0.6151503316604804  0.1192507984861919  0.4396561296019287  1.0000
  K   K3        1.0  0.11513605945218329  0.3807534172257618  0.43965369603557053  1.0000
  K   K4        1.0  0.38485822693300525  0.8807557730575868  0.5603445051663628  1.0000
  H   H1        1.0  0.470060992391211  0.7616043679719553  0.7796711303017503  1.0000
  H   H2        1.0  0.029936779367979206  0.26160143025828114  0.220330400796918  1.0000
  H   H3        1.0  0.5299370291996297  0.2383971557712243  0.2203332081182552  1.0000
  H   H4        1.0  0.9700641993249876  0.7383970647793348  0.7796664254176662  1.0000
  H   H5        1.0  0.38110092967193054  0.7833517075313666  0.9283889092371355  1.0000
  H   H6        1.0  0.11889677294982451  0.2833521374806125  0.071613936344427  1.0000
  H   H7        1.0  0.6189001185483464  0.21664375883030831  0.07161630719761553  1.0000
  H   H8        1.0  0.881101189820484  0.7166463575605418  0.9283833026554691  1.0000
  H   H9        1.0  0.18851306815275853  0.3668575148889488  0.9162019601616793  1.0000
  H   H10       1.0  0.3114903490952372  0.866859405748329  0.08379885996477303  1.0000
  H   H11       1.0  0.8114788627777971  0.6331379514691946  0.08379610440719894  1.0000
  H   H12       1.0  0.6885181988155652  0.1331400988497791  0.9162004839963062  1.0000
  H   H13       1.0  0.27913906249345644  0.34515156724921064  0.768305165343435  1.0000
  H   H14       1.0  0.2208689609954462  0.8451490812356255  0.23169533467086015  1.0000
  H   H15       1.0  0.7208543737115392  0.6548509660501268  0.2316923701357894  1.0000
  H   H16       1.0  0.7791395869153562  0.15485042336248261  0.7683040092902261  1.0000
  H   H17       1.0  0.2523989668990724  0.6621135109907781  0.4179197719453641  1.0000
  H   H18       1.0  0.24760217527450834  0.1621154261680147  0.5820799472452621  1.0000
  H   H19       1.0  0.747600527894079  0.33788700318020654  0.5820801649705274  1.0000
  H   H20       1.0  0.7523988301464755  0.8378891262551774  0.4179201059810112  1.0000
  H   H21       1.0  0.0627530100031422  0.754847101720948  0.40032633572453596  1.0000
  H   H22       1.0  0.4372447811997234  0.2548507387977992  0.5996745426189706  1.0000
  H   H23       1.0  0.9372464954856597  0.24515341245221833  0.5996748919947095  1.0000
  H   H24       1.0  0.5627516976615043  0.7451548231935092  0.40032580708498244  1.0000
  C   C1        1.0  0.37944931928148423  0.552835813393024  0.7656344721862355  1.0000
  C   C2        1.0  0.12055375603889472  0.05283780052992879  0.23436782594176014  1.0000
  C   C3        1.0  0.6205456543090123  0.4471606625303864  0.23436640660627012  1.0000
  C   C4        1.0  0.879454797221591  0.947160694505918  0.765632163420449  1.0000
  C   C5        1.0  0.4080447657259043  0.6759349500475977  0.8098443971763558  1.0000
  C   C6        1.0  0.09195635780469762  0.1759348222562238  0.1901592094715028  1.0000
  C   C7        1.0  0.591954745112581  0.32406455456329303  0.19015747594401944  1.0000
  C   C8        1.0  0.9080476635482027  0.8240646823466449  0.809840430966709  1.0000
  C   C9        1.0  0.35884149688986616  0.6879862949835954  0.8931032996309443  1.0000
  C   C10       1.0  0.14115656113094133  0.18798781202324477  0.10690008752251152  1.0000
  C   C11       1.0  0.6411565514530865  0.3120081618215167  0.10690426579360232  1.0000
  C   C12       1.0  0.8588444015166844  0.812011692574458  0.893094802487589  1.0000
  C   C13       1.0  0.2817886403215439  0.5760399887262652  0.9307042957981724  1.0000
  C   C14       1.0  0.2182128445383285  0.07604123357208438  0.06929855668677481  1.0000
  C   C15       1.0  0.7182033280512031  0.4239514393860658  0.0692982865802492  1.0000
  C   C16       1.0  0.7817941820471362  0.9239552423350049  0.9306993801611229  1.0000
  C   C17       1.0  0.24842580475144166  0.4532285809109595  0.8857841812640218  1.0000
  C   C18       1.0  0.25157879005166006  0.9532296778413565  0.11421491300281161  1.0000
  C   C19       1.0  0.7515676475081535  0.5467678950114916  0.11421529041694363  1.0000
  C   C20       1.0  0.7484297525057574  0.04677285544573811  0.8857837855582391  1.0000
  C   C21       1.0  0.29852659105709023  0.4414679898435594  0.8028007782569091  1.0000
  C   C22       1.0  0.20147957359493773  0.9414684522669461  0.19720035571829442  1.0000
  C   C23       1.0  0.7014668611969483  0.5585315147689726  0.19719869342570462  1.0000
  C   C24       1.0  0.7985289636202142  0.05853105232899481  0.8027976974394309  1.0000
  S   S1        1.0  0.451082211305078  0.5337225160083108  0.6612917725721488  1.0000
  S   S2        1.0  0.048917912909587406  0.03372095273190471  0.33871027212768473  1.0000
  S   S3        1.0  0.5489172941837239  0.4662779981648484  0.3387094551470967  1.0000
  S   S4        1.0  0.9510845924565462  0.9662805709978172  0.6612886066017654  1.0000
  N   N1        1.0  0.5902554794914324  0.4016270830189015  0.6646844643024181  1.0000
  N   N2        1.0  0.9097466658530281  0.9016286305701228  0.3353161086630436  1.0000
  N   N3        1.0  0.4097394994357728  0.5983754502857296  0.3353170598950612  1.0000
  N   N4        1.0  0.0902558448553705  0.09837592185075292  0.6646834154697318  1.0000
  Cl  Cl1       1.0  0.2323012257330603  0.5881462152886383  0.03626816057780499  1.0000
  Cl  Cl2       1.0  0.26769566139036277  0.0881483745521123  0.9637317745571964  1.0000
  Cl  Cl3       1.0  0.7676937371691893  0.4118462223791611  0.9637314274091439  1.0000
  Cl  Cl4       1.0  0.7323068386334983  0.9118501204864485  0.036266458768928096  1.0000
  Cl  Cl5       1.0  0.8111475801838283  0.42509128056853024  0.7437602742451903  1.0000
  Cl  Cl6       1.0  0.6888544790351644  0.9250909569588472  0.2562403242662086  1.0000
  Cl  Cl7       1.0  0.188851930654657  0.5749082240423603  0.2562415988751852  1.0000
  Cl  Cl8       1.0  0.31114501575798675  0.0749095572121377  0.7437596126496829  1.0000
  O   O1        1.0  0.2700586863621269  0.500247476535371  0.5974771526003906  1.0000
  O   O2        1.0  0.22994306601539452  0.00024578865071589993  0.4025243265594796  1.0000
  O   O3        1.0  0.729940824470802  0.4997550567655935  0.40252472052163313  1.0000
  O   O4        1.0  0.7700594340029027  0.9997557350779188  0.5974739067682932  1.0000
  O   O5        1.0  0.552555479030204  0.6601197258620957  0.6453708854632367  1.0000
  O   O6        1.0  0.9474490848334941  0.160119485867213  0.35463212247175596  1.0000
  O   O7        1.0  0.4474440478480589  0.33988179787876754  0.35463292386327083  1.0000
  O   O8        1.0  0.0525564311056073  0.839883047421239  0.6453656980712594  1.0000
  O   O9        1.0  0.14264128778811622  0.6976502921670046  0.4461640019671976  1.0000
  O   O10       1.0  0.35735973463852844  0.19765190529385987  0.5538370467177743  1.0000
  O   O11       1.0  0.8573582176988382  0.30235123156950994  0.5538372257526022  1.0000
  O   O12       1.0  0.6426397654931862  0.8023536566949971  0.44616353560254407  1.0000
