data_image0
_chemical_formula_structural       Al4H38C58N6O36
_chemical_formula_sum              "Al4 H38 C58 N6 O36"
_cell_length_a       6.707343240396789
_cell_length_b       22.492807306449375
_cell_length_c       25.541250288562235
_cell_angle_alpha    91.04658238483327
_cell_angle_beta     89.40421140983956
_cell_angle_gamma    89.53315830652399

_space_group_name_H-M_alt    "P 1"
_space_group_IT_number       1

loop_
  _space_group_symop_operation_xyz
  'x, y, z'

loop_
  _atom_site_type_symbol
  _atom_site_label
  _atom_site_symmetry_multiplicity
  _atom_site_fract_x
  _atom_site_fract_y
  _atom_site_fract_z
  _atom_site_occupancy
  Al  Al1       1.0  0.27904870529084747  0.744279945156265  0.2530495010515352  1.0000
  Al  Al2       1.0  0.728747022419185  0.2558076608202597  0.7466038205033102  1.0000
  Al  Al3       1.0  0.7786201817755652  0.7460707805324773  0.2537768679264545  1.0000
  Al  Al4       1.0  0.22961351493525226  0.2523654656250612  0.7456523110564606  1.0000
  H   H1        1.0  0.8743252704690433  0.565738005410509  0.050060454891614405  1.0000
  H   H2        1.0  0.1321213014724947  0.434225662360717  0.9503939713738775  1.0000
  H   H3        1.0  0.5707681360242133  0.8501073120665267  0.11243871601258351  1.0000
  H   H4        1.0  0.36540054089746105  0.1534478492396616  0.9205919287092925  1.0000
  H   H5        1.0  0.7784025938126218  0.3853200505027201  0.8617028846819892  1.0000
  H   H6        1.0  0.22498035825680773  0.6204034360230252  0.1344158571221854  1.0000
  H   H7        1.0  0.7658711236991066  0.45725552009388076  0.9383420579366586  1.0000
  H   H8        1.0  0.23788386202051728  0.5482614694801669  0.057947356680792  1.0000
  H   H9        1.0  0.8617458771982455  0.6378782214128336  0.1270040829783099  1.0000
  H   H10       1.0  0.14492346239158846  0.3621054379131932  0.873376203404277  1.0000
  H   H11       1.0  0.7949983945521379  0.3522714672689061  0.6624876940203634  1.0000
  H   H12       1.0  0.21461644156806864  0.6458896893520175  0.33672665899189974  1.0000
  H   H13       1.0  0.7636210071537946  0.4621890932586439  0.5636464635198521  1.0000
  H   H14       1.0  0.24459616469976442  0.5372656529003877  0.4366342404416984  1.0000
  H   H15       1.0  0.8592684331056616  0.5819826903439633  0.46389671446274156  1.0000
  H   H16       1.0  0.14870174122314236  0.41764328111155885  0.5362831449673636  1.0000
  H   H17       1.0  0.995271086031039  0.6471142557565128  0.3959128516181849  1.0000
  H   H18       1.0  0.013434814364586595  0.35173685238027724  0.6039117200248613  1.0000
  H   H19       1.0  0.5484184798299409  0.07195378495821102  0.8375461863882094  1.0000
  H   H20       1.0  0.34846242070664596  0.8458508675296771  0.17353011656104667  1.0000
  H   H21       1.0  0.7135283015232614  0.9700958081262671  0.9349497317445954  1.0000
  H   H22       1.0  0.2380588158087846  0.0289363190269967  0.0637342250299255  1.0000
  H   H23       1.0  0.47455679869748474  0.9538187098567479  0.07426409467478122  1.0000
  H   H24       1.0  0.4968405669092916  0.0454959563364099  0.9270322984449493  1.0000
  H   H25       1.0  0.24805613025122844  0.06649634596972477  0.9947567058774994  1.0000
  H   H26       1.0  0.6960702889182498  0.9336597070522855  0.009419250356060598  1.0000
  H   H27       1.0  0.7130486271232925  0.8717480184136691  0.37577935767743054  1.0000
  H   H28       1.0  0.2934527556025515  0.12949368028119318  0.6232877401773749  1.0000
  H   H29       1.0  0.7425451104279899  0.981341501339976  0.479866337529792  1.0000
  H   H30       1.0  0.26385336108086216  0.0200015070750226  0.5187354723140062  1.0000
  H   H31       1.0  0.6304386639434509  0.06421040328800129  0.5578304634843647  1.0000
  H   H32       1.0  0.37560166276935547  0.9362987746892273  0.4416031733458469  1.0000
  H   H33       1.0  0.6525194245195036  0.13958259044355262  0.6311629654000939  1.0000
  H   H34       1.0  0.35465532910745867  0.8603183786865072  0.3693493402615289  1.0000
  H   H35       1.0  0.5216500502499315  0.8195407130245014  0.273271766095796  1.0000
  H   H36       1.0  0.4887559058412165  0.1837223372290708  0.771960209654452  1.0000
  H   H37       1.0  0.027303077275469406  0.6695410840479211  0.2363258143906819  1.0000
  H   H38       1.0  0.984732364610771  0.32904303488579956  0.7652340070818298  1.0000
  C   C1        1.0  0.5369341226255031  0.6741919925451754  0.18140729369479663  1.0000
  C   C2        1.0  0.46775144012379133  0.3283158672506231  0.8167692831592461  1.0000
  C   C3        1.0  0.5329959075487236  0.677494086981234  0.3273577888525452  1.0000
  C   C4        1.0  0.4771471537877402  0.3202942879083466  0.6715985584712882  1.0000
  C   C5        1.0  0.024103413828633805  0.8181723285468717  0.32388310956832816  1.0000
  C   C6        1.0  0.9842479768169665  0.18219679001573752  0.6755600911758465  1.0000
  C   C7        1.0  0.027099777799470797  0.8141644551432776  0.1800465357766754  1.0000
  C   C8        1.0  0.9705467319754034  0.1835903143959783  0.8161652286630527  1.0000
  C   C9        1.0  0.0265312820546768  0.8551844209793271  0.135426932003007  1.0000
  C   C10       1.0  0.9614007359878868  0.13798999842864385  0.8576725239101607  1.0000
  C   C11       1.0  0.8529274504131121  0.8654316507157912  0.1059972060550649  1.0000
  C   C12       1.0  0.11942892703356019  0.12945322600060644  0.892570416011651  1.0000
  C   C13       1.0  0.8452353844951687  0.912840152384156  0.0709019085987066  1.0000
  C   C14       1.0  0.11332910236728816  0.08457463081782629  0.9302583662098911  1.0000
  C   C15       1.0  0.012235682031949607  0.9492001593960989  0.061683664443791  1.0000
  C   C16       1.0  0.9412968107137514  0.0502473873000753  0.9385125306191568  1.0000
  C   C17       1.0  0.18690927402225546  0.9372366838986322  0.09058898875681361  1.0000
  C   C18       1.0  0.7801701207223102  0.06104611538418678  0.9042686322054294  1.0000
  C   C19       1.0  0.19631550129439998  0.8904259182005205  0.1255844817067171  1.0000
  C   C20       1.0  0.7920313568899006  0.1014665937893611  0.8633785187164522  1.0000
  C   C21       1.0  0.01567627878555561  0.9990547861294417  0.0247697924194767  1.0000
  C   C22       1.0  0.9272385880908514  0.0019852087157233005  0.9767362955808708  1.0000
  C   C23       1.0  0.9741379823027785  0.1383246510595981  0.6310337946971245  1.0000
  C   C24       1.0  0.0328087658647931  0.8622377998688577  0.36801287790586906  1.0000
  C   C25       1.0  0.14933772130908812  0.11505685412306833  0.6087696074871404  1.0000
  C   C26       1.0  0.857635999610167  0.8860458964452035  0.3900256031788416  1.0000
  C   C27       1.0  0.1402798882157228  0.07275242503371256  0.5680346113059613  1.0000
  C   C28       1.0  0.8663411910489315  0.9285228440729584  0.4306431174139718  1.0000
  C   C29       1.0  0.9493300891278267  0.05420804111984269  0.5495621989770925  1.0000
  C   C30       1.0  0.05694691290400301  0.9469578525366912  0.4492663098832494  1.0000
  C   C31       1.0  0.7742778271212032  0.0789167892095008  0.5724365462630844  1.0000
  C   C32       1.0  0.2317469574839635  0.9218538987066154  0.4268307808031225  1.0000
  C   C33       1.0  0.7858409754323645  0.12037100883509308  0.6127414085985876  1.0000
  C   C34       1.0  0.22042530188166856  0.8800588356930065  0.3867617351539465  1.0000
  C   C35       1.0  0.5430604729779275  0.6325601244872345  0.1354770713232014  1.0000
  C   C36       1.0  0.4617901593624437  0.37018151493891344  0.8628700437537162  1.0000
  C   C37       1.0  0.3663257424408569  0.6078766267439519  0.1157661318554233  1.0000
  C   C38       1.0  0.6378099854867896  0.3964871660601757  0.881391823484627  1.0000
  C   C39       1.0  0.3725910327020543  0.568259493037459  0.0735857014514352  1.0000
  C   C40       1.0  0.6317307637527421  0.4359900052693888  0.9236715502978327  1.0000
  C   C41       1.0  0.5575916354851174  0.5529345965380157  0.050218023256704214  1.0000
  C   C42       1.0  0.4476207560400239  0.4496512932856902  0.9483105823652522  1.0000
  C   C43       1.0  0.7339307014771137  0.5781351503604881  0.0693529770871635  1.0000
  C   C44       1.0  0.2719897311686806  0.42299262494610446  0.9302689223263131  1.0000
  C   C45       1.0  0.7267023855036001  0.6176631479675122  0.11176890060277603  1.0000
  C   C46       1.0  0.2792242134090016  0.38348484780988196  0.8878070347085727  1.0000
  C   C47       1.0  0.5368512718431191  0.6400712425434207  0.3741017458674775  1.0000
  C   C48       1.0  0.4719496489709271  0.3586918371075001  0.6253778222429816  1.0000
  C   C49       1.0  0.3668430568899979  0.6058935181530102  0.3882213475562466  1.0000
  C   C50       1.0  0.6417862491913411  0.3930120702880373  0.6115550809976469  1.0000
  C   C51       1.0  0.3750224113028152  0.5635052182083412  0.4269463446182584  1.0000
  C   C52       1.0  0.6333407173374184  0.43581073339067444  0.5731554392221838  1.0000
  C   C53       1.0  0.555449061445735  0.5546743973665115  0.4530680410172323  1.0000
  C   C54       1.0  0.4527441259313106  0.44482363373812456  0.5471529377371596  1.0000
  C   C55       1.0  0.7235179078389888  0.5886191615280011  0.4415471383280974  1.0000
  C   C56       1.0  0.2846214086135177  0.4107989086436703  0.5585069475147648  1.0000
  C   C57       1.0  0.7136956183618606  0.6324384641350207  0.40351785870623763  1.0000
  C   C58       1.0  0.2948214365078101  0.366576344821496  0.5962174218526712  1.0000
  N   N1        1.0  0.92362798313421  0.012317619008399599  0.5099764972791619  1.0000
  N   N2        1.0  0.08298257482181272  0.9889684069982462  0.48889479699931826  1.0000
  N   N3        1.0  0.5828359974997142  0.5128529464453989  0.007378540148508298  1.0000
  N   N4        1.0  0.42279942017210465  0.48956161391641473  0.9912443400287003  1.0000
  N   N5        1.0  0.5830808008995515  0.5127533866810906  0.49309124319785985  1.0000
  N   N6        1.0  0.42513328024405433  0.4869001809911139  0.5072913445973768  1.0000
  O   O1        1.0  0.6949005202460796  0.6925878776944429  0.3059357922134538  1.0000
  O   O2        1.0  0.3168354352110825  0.3055070687006988  0.6937239540142812  1.0000
  O   O3        1.0  0.3658165565657611  0.6888778173992661  0.2001951537743025  1.0000
  O   O4        1.0  0.6385418432257024  0.316337709470524  0.7964982912996916  1.0000
  O   O5        1.0  0.20106893520365077  0.7980310270336233  0.1970771211936011  1.0000
  O   O6        1.0  0.8049211803766312  0.2071564308705831  0.8038158459008216  1.0000
  O   O7        1.0  0.3584631764182617  0.6908965586543586  0.30851255662443583  1.0000
  O   O8        1.0  0.6520123045887162  0.30580321185060905  0.6892040311956364  1.0000
  O   O9        1.0  0.19131413943105707  0.8004930238212185  0.30465861787561727  1.0000
  O   O10       1.0  0.8182290531085386  0.19854038770250773  0.6959431390434503  1.0000
  O   O11       1.0  0.7032953046251718  0.691874916701053  0.19918457334940606  1.0000
  O   O12       1.0  0.3008074274528241  0.3083660759701132  0.8011433895390853  1.0000
  O   O13       1.0  0.5254810675255613  0.7823632663941705  0.2534085161265764  1.0000
  O   O14       1.0  0.48234486642807173  0.21769200252251855  0.7489318212506646  1.0000
  O   O15       1.0  0.8538520006362447  0.8017068948080635  0.3076645516222172  1.0000
  O   O16       1.0  0.15547906533776504  0.19903752691901386  0.6903555896845005  1.0000
  O   O17       1.0  0.8641858655934983  0.7997782104709189  0.20114296265095533  1.0000
  O   O18       1.0  0.14017334681669516  0.1951623017396713  0.7961163510195065  1.0000
  O   O19       1.0  0.03023505165922559  0.7085062052824612  0.2531433305485464  1.0000
  O   O20       1.0  0.9797238195359907  0.2915682825961454  0.7459305428731469  1.0000
  O   O21       1.0  0.6981262964389644  0.8277142830938258  0.1101975428267252  1.0000
  O   O22       1.0  0.2835966912808274  0.16438430898686818  0.8905993286772471  1.0000
  O   O23       1.0  0.8181789147675642  0.38533290917695945  0.6367389662515777  1.0000
  O   O24       1.0  0.19043581926307948  0.6134170861147795  0.3629537561522582  1.0000
  O   O25       1.0  0.8674581445776112  0.6697027948319414  0.39569682441916865  1.0000
  O   O26       1.0  0.1413806478350921  0.3292142938539158  0.6039071093541395  1.0000
  O   O27       1.0  0.6404680426076367  0.10386071808017758  0.8283948033450343  1.0000
  O   O28       1.0  0.37254079581270355  0.8813636197628227  0.15042756571708082  1.0000
  O   O29       1.0  0.8121378074214431  0.9537188691428822  0.960472623432807  1.0000
  O   O30       1.0  0.1300080286129202  0.0473475660806173  0.041278648548591  1.0000
  O   O31       1.0  0.3484813927076828  0.975031544479357  0.0864280130325099  1.0000
  O   O32       1.0  0.607272429784686  0.025873465863170995  0.9060419945714673  1.0000
  O   O33       1.0  0.28958956579118933  0.07696370414631562  0.9572459188363427  1.0000
  O   O34       1.0  0.664623015337767  0.9221681304620757  0.0468147353738644  1.0000
  O   O35       1.0  0.6971395726398129  0.9515974365169484  0.4514858798075565  1.0000
  O   O36       1.0  0.3093469891426253  0.04981431064933159  0.5469983757430015  1.0000
