data_image0
_chemical_formula_structural       Cu4H12C8S2N16O16
_chemical_formula_sum              "Cu4 H12 C8 S2 N16 O16"
_cell_length_a       6.252093743714074
_cell_length_b       9.658237369794291
_cell_length_c       11.177601501510459
_cell_angle_alpha    84.79800957725386
_cell_angle_beta     73.7537262437105
_cell_angle_gamma    71.11413541413539

_space_group_name_H-M_alt    "P 1"
_space_group_IT_number       1

loop_
  _space_group_symop_operation_xyz
  'x, y, z'

loop_
  _atom_site_type_symbol
  _atom_site_label
  _atom_site_symmetry_multiplicity
  _atom_site_fract_x
  _atom_site_fract_y
  _atom_site_fract_z
  _atom_site_occupancy
  Cu  Cu1       1.0  0.9653012706288566  0.2291147048239282  0.8423092374398209  1.0000
  Cu  Cu2       1.0  0.03683437729636559  0.7709313604148561  0.15774043521538766  1.0000
  Cu  Cu3       1.0  0.9444028260050386  0.27090984710156363  0.3424090967826601  1.0000
  Cu  Cu4       1.0  0.5576067404210293  0.7291129378959127  0.6577157887976098  1.0000
  H   H1        1.0  0.4681440580414035  0.9009322961506502  0.40545608902784375  1.0000
  H   H2        1.0  0.7744084897768322  0.09894461451016673  0.5946893855520513  1.0000
  H   H3        1.0  0.11905240975318794  0.5991587738527429  0.905553959408067  1.0000
  H   H4        1.0  0.623613608127151  0.40097668643693396  0.09456482891851437  1.0000
  H   H5        1.0  0.17508493314807805  0.3656823036178096  0.6445479938624317  1.0000
  H   H6        1.0  0.18553765203087375  0.6344033799623361  0.3553686405986554  1.0000
  H   H7        1.0  0.29068363958207755  0.1343190742452762  0.1446637592719995  1.0000
  H   H8        1.0  0.5698933548161523  0.8656601639650887  0.8553055426838441  1.0000
  H   H9        1.0  0.9487511788015373  0.3332839155049854  0.6102860631694041  1.0000
  H   H10       1.0  0.892565988964762  0.6667058111993355  0.3897053518921894  1.0000
  H   H11       1.0  0.031962684566572405  0.1667977579936633  0.1103933089576685  1.0000
  H   H12       1.0  0.30929337759628384  0.8332322363143162  0.8897731813841574  1.0000
  C   C1        1.0  0.2670265655309267  0.03284396007825309  0.6700825395657972  1.0000
  C   C2        1.0  0.9698920008260927  0.9672956286938826  0.3299639757317506  1.0000
  C   C3        1.0  0.05026215839717458  0.4671568020531821  0.1701738725691584  1.0000
  C   C4        1.0  0.6873901814041055  0.5327696895283865  0.8298742127240998  1.0000
  C   C5        1.0  0.33230256685500614  0.11849030321227616  0.47065041270567315  1.0000
  C   C6        1.0  0.9213836177683062  0.8814237465768426  0.5293254905710824  1.0000
  C   C7        1.0  0.2006523716228511  0.38157827786400844  0.9707332631601774  1.0000
  C   C8        1.0  0.5531766311349671  0.6185308503877139  0.029241932958200274  1.0000
  S   S1        1.0  0.7684318345882202  0.999891266524408  0.9998819658341844  1.0000
  S   S2        1.0  0.5183764524317949  0.5000338545364045  0.4999871547105386  1.0000
  N   N1        1.0  0.4404391629406918  0.9695502589351647  0.4759889661859019  1.0000
  N   N2        1.0  0.8858639197585706  0.0303807704046974  0.5241118649178347  1.0000
  N   N3        1.0  0.16005646677452026  0.5304862606982965  0.9760477227110442  1.0000
  N   N4        1.0  0.6665913259343058  0.46956324851952064  0.024008006228371008  1.0000
  N   N5        1.0  0.3866377376611612  0.9155248981312171  0.5982212153287279  1.0000
  N   N6        1.0  0.9003224224693651  0.08452459491576292  0.4018991216294552  1.0000
  N   N7        1.0  0.05252253840762926  0.5844737133748056  0.09828730496129619  1.0000
  N   N8        1.0  0.7350267502289258  0.41549837912784693  0.9017911519709898  1.0000
  N   N9        1.0  0.2364018717163391  0.15716141297600933  0.5966837333061363  1.0000
  N   N10       1.0  0.9903120176390986  0.842893994486481  0.4032807357643762  1.0000
  N   N11       1.0  0.14366583980729072  0.3428620578226784  0.09677436958067889  1.0000
  N   N12       1.0  0.583452849752476  0.6571290774795668  0.9032069593094363  1.0000
  N   N13       1.0  0.08411363178388623  0.2901159404430588  0.6527059698156066  1.0000
  N   N14       1.0  0.027101000927906734  0.7099299421813399  0.3472459821961351  1.0000
  N   N15       1.0  0.12417782595585439  0.20992653282407053  0.1528219082856523  1.0000
  N   N16       1.0  0.48702816221453593  0.7900982556830343  0.8472266593573394  1.0000
  O   O1        1.0  0.18761637629990005  0.03829614910745249  0.7875773725610813  1.0000
  O   O2        1.0  0.013164439605418536  0.9618935330854086  0.21245546624280817  1.0000
  O   O3        1.0  0.9764021945845088  0.46167527966705535  0.28767854206881077  1.0000
  O   O4        1.0  0.7252820244662035  0.5382082004944948  0.7123802014993786  1.0000
  O   O5        1.0  0.3180987988040583  0.1982877235525606  0.3788821274342027  1.0000
  O   O6        1.0  0.8952276541076079  0.8014668566311656  0.6209838200109772  1.0000
  O   O7        1.0  0.2660575756301571  0.3017856382335609  0.8789960544708819  1.0000
  O   O8        1.0  0.4470937527079784  0.6984430638979617  0.12091511733392928  1.0000
  O   O9        1.0  0.84211181652541  0.13629990907151784  0.0037273282555148352  1.0000
  O   O10       1.0  0.9822822860136785  0.8634732667845952  0.9962899781477076  1.0000
  O   O11       1.0  0.7284808056662229  0.3636131298241025  0.5038295895278537  1.0000
  O   O12       1.0  0.5959132520493711  0.6364120202308428  0.49629943683427064  1.0000
  O   O13       1.0  0.5854039666500058  0.9985162384182331  0.11499817881168178  1.0000
  O   O14       1.0  0.7000407855209335  0.0012115914145525001  0.8844878303082595  1.0000
  O   O15       1.0  0.3340654233787816  0.5014205781387843  0.6151549924643476  1.0000
  O   O16       1.0  0.4511369809040317  0.49869818702568836  0.3846512959705635  1.0000
