data_image0
_chemical_formula_structural       Al4H36C80Br16O20
_chemical_formula_sum              "Al4 H36 C80 Br16 O20"
_cell_length_a       6.706565698972829
_cell_length_b       25.62822353680542
_cell_length_c       28.886194768077193
_cell_angle_alpha    90.00012967019701
_cell_angle_beta     89.99553066718363
_cell_angle_gamma    89.99930880237

_space_group_name_H-M_alt    "P 1"
_space_group_IT_number       1

loop_
  _space_group_symop_operation_xyz
  'x, y, z'

loop_
  _atom_site_type_symbol
  _atom_site_label
  _atom_site_symmetry_multiplicity
  _atom_site_fract_x
  _atom_site_fract_y
  _atom_site_fract_z
  _atom_site_occupancy
  Al  Al1       1.0  0.8042835305237972  0.749454291336882  0.7499989289453811  1.0000
  Al  Al2       1.0  0.19570821004156613  0.2505474544038222  0.24999975004643465  1.0000
  Al  Al3       1.0  0.3042824311843688  0.7505470211751514  0.750002471582164  1.0000
  Al  Al4       1.0  0.6957063269590408  0.24945550495934302  0.2499986307515841  1.0000
  H   H1        1.0  0.23309424116740732  0.3251226523387131  0.3721871899210286  1.0000
  H   H2        1.0  0.7669019725901476  0.6748779228126125  0.6278121813845206  1.0000
  H   H3        1.0  0.766883042431523  0.6749045297546491  0.8722265137990706  1.0000
  H   H4        1.0  0.23308782266779102  0.3250964356216599  0.12777631968838685  1.0000
  H   H5        1.0  0.7330768918564131  0.17490441318970082  0.12777216699058874  1.0000
  H   H6        1.0  0.2669148485936077  0.8251000639148317  0.8722268581921997  1.0000
  H   H7        1.0  0.2668741338489582  0.8251308156799911  0.6278142575626122  1.0000
  H   H8        1.0  0.7331146242610627  0.1748740516233056  0.37218649858915154  1.0000
  H   H9        1.0  0.2684540982260941  0.38784215606371225  0.4372802329221275  1.0000
  H   H10       1.0  0.7315436065713995  0.6121572485016529  0.5627198307347998  1.0000
  H   H11       1.0  0.7315501842889204  0.612188967189759  0.9373247272651217  1.0000
  H   H12       1.0  0.26842813637784246  0.3878104373982936  0.06267672138096003  1.0000
  H   H13       1.0  0.7684238651056461  0.11218443802084718  0.06267615452664903  1.0000
  H   H14       1.0  0.23159471428691353  0.8878141861323527  0.9373287554712778  1.0000
  H   H15       1.0  0.23153892968684178  0.8878472398388909  0.5627186668846991  1.0000
  H   H16       1.0  0.7684915790923411  0.11215372546700311  0.43727793449967595  1.0000
  H   H17       1.0  0.7007725271322583  0.4548049317814107  0.4005203139727771  1.0000
  H   H18       1.0  0.2992311421946212  0.5451964237503476  0.5994769801232781  1.0000
  H   H19       1.0  0.29913189256612327  0.5451933930445919  0.9005090166471066  1.0000
  H   H20       1.0  0.700853883553684  0.4548083527033882  0.09949104716450564  1.0000
  H   H21       1.0  0.2008484241982202  0.045191382547628195  0.09949732442824204  1.0000
  H   H22       1.0  0.7991671733708543  0.9548068514132454  0.9005044699314486  1.0000
  H   H23       1.0  0.7992321278186907  0.954801688069232  0.5994790113624122  1.0000
  H   H24       1.0  0.2007834694482469  0.04520083803515721  0.4005245139355368  1.0000
  H   H25       1.0  0.7234444571412408  0.43667414105198793  0.4924254897665536  1.0000
  H   H26       1.0  0.2765562298552098  0.5633248733150326  0.507574227665913  1.0000
  H   H27       1.0  0.2765933335058931  0.5633086312276491  0.9923957869609343  1.0000
  H   H28       1.0  0.7233969158518719  0.436690383151678  0.007604969161647501  1.0000
  H   H29       1.0  0.22341723423038928  0.0633115860347147  0.007602655617759502  1.0000
  H   H30       1.0  0.7766043272287321  0.9366827459726965  0.9924043314517168  1.0000
  H   H31       1.0  0.7765761713540584  0.9366732351901917  0.5075772330200723  1.0000
  H   H32       1.0  0.22346477512100898  0.06332577912931471  0.4924183296707343  1.0000
  H   H33       1.0  0.5496738391900422  0.6811747830433319  0.7500667581061367  1.0000
  H   H34       1.0  0.45031342661935264  0.31882735290182046  0.24994680694646837  1.0000
  H   H35       1.0  0.049671717737282996  0.8188259440635408  0.7500736582502088  1.0000
  H   H36       1.0  0.9503185306350943  0.181175411487402  0.24993609871593503  1.0000
  C   C1        1.0  0.555415402407199  0.8138917209971694  0.6881868421385208  1.0000
  C   C2        1.0  0.44453756989858556  0.18611236595761235  0.3118139144634925  1.0000
  C   C3        1.0  0.44457998371257185  0.1861181815638205  0.18817699915369  1.0000
  C   C4        1.0  0.5553849172842148  0.8138855151822284  0.8118230649248306  1.0000
  C   C5        1.0  0.055393560882954794  0.6861164065994245  0.8118229173873462  1.0000
  C   C6        1.0  0.944617563495804  0.3138853391195298  0.18817749229049252  1.0000
  C   C7        1.0  0.9445766405186333  0.3138888881871225  0.31181406141193707  1.0000
  C   C8        1.0  0.05545983229631451  0.6861140280866281  0.6881846170174132  1.0000
  C   C9        1.0  0.11629222482136468  0.3536003770202639  0.37920763823620984  1.0000
  C   C10       1.0  0.8837159176157526  0.6464001981171422  0.6207910405465359  1.0000
  C   C11       1.0  0.8836672286195153  0.646418615230239  0.8792321429734147  1.0000
  C   C12       1.0  0.11630512778849318  0.35357922858540297  0.12076930574517776  1.0000
  C   C13       1.0  0.6162988490792498  0.1464187628254265  0.12076886015574223  1.0000
  C   C14       1.0  0.3837018377427767  0.8535825927108079  0.8792318958392618  1.0000
  C   C15       1.0  0.38368939120579176  0.8536063167087491  0.6207925251892166  1.0000
  C   C16       1.0  0.6163127868247712  0.14639894077321713  0.3792058074909621  1.0000
  C   C17       1.0  0.13619784518132855  0.38889426666401766  0.415381823079912  1.0000
  C   C18       1.0  0.8638013507399336  0.6111059182890629  0.5846175481873107  1.0000
  C   C19       1.0  0.8637751144991624  0.6111263081580988  0.9154070512699096  1.0000
  C   C20       1.0  0.1362032063439003  0.38887309642943535  0.08459266644551633  1.0000
  C   C21       1.0  0.6361945238671254  0.1111220960829513  0.08459486537294944  1.0000
  C   C22       1.0  0.36381958235612893  0.8888769182700004  0.9154093523098584  1.0000
  C   C23       1.0  0.3637906478027446  0.8888982793090818  0.584617426694557  1.0000
  C   C24       1.0  0.6362234592924165  0.11110346640477795  0.4153774439675433  1.0000
  C   C25       1.0  0.9858185596495305  0.4258306950346268  0.4235868552314842  1.0000
  C   C26       1.0  0.014183618412545201  0.5741698801098423  0.5764125159987972  1.0000
  C   C27       1.0  0.014125891011929102  0.5741785691128386  0.9235984331752864  1.0000
  C   C28       1.0  0.9858554118423513  0.4258208354716828  0.07640266924703103  1.0000
  C   C29       1.0  0.4858467618458775  0.0741739387389728  0.07640766446057513  1.0000
  C   C30       1.0  0.5141703263991033  0.9258235148318122  0.9235982841124941  1.0000
  C   C31       1.0  0.5141773568251296  0.9258316042638908  0.5764113290471402  1.0000
  C   C32       1.0  0.48583973227844984  0.07416662969391301  0.42358596487402894  1.0000
  C   C33       1.0  0.8174759944404572  0.4259932008869357  0.39495107857053585  1.0000
  C   C34       1.0  0.18252767486354318  0.5740089350344634  0.6050462155269047  1.0000
  C   C35       1.0  0.18245043345265094  0.5740109734820393  0.8949511371630056  1.0000
  C   C36       1.0  0.8175249051218644  0.4259899918884003  0.10504927296508274  1.0000
  C   C37       1.0  0.317522229209807  0.0740071374113427  0.10505495988057593  1.0000
  C   C38       1.0  0.6824903860774113  0.9259907063585544  0.8949482192605845  1.0000
  C   C39       1.0  0.6825169303490525  0.9259906189447804  0.6050481448735854  1.0000
  C   C40       1.0  0.3174897206936649  0.07400878561092838  0.39495399578721924  1.0000
  C   C41       1.0  0.7985962557739155  0.39045934020946055  0.3586366749718836  1.0000
  C   C42       1.0  0.20141039578905404  0.6095439662925417  0.6413592343454655  1.0000
  C   C43       1.0  0.2013271314482239  0.6095491044146542  0.8586394985950252  1.0000
  C   C44       1.0  0.7986452249969175  0.39045108056957645  0.14136091156931496  1.0000
  C   C45       1.0  0.298647920705683  0.10954884536592151  0.14136326242606864  1.0000
  C   C46       1.0  0.7013527663260248  0.8904501690009923  0.8586361088202639  1.0000
  C   C47       1.0  0.7013912972058948  0.8904575171668299  0.6413638074383743  1.0000
  C   C48       1.0  0.29861088046833123  0.1095430579787831  0.35863937183935246  1.0000
  C   C49       1.0  0.9481218430559863  0.35327281932851656  0.3500562297323811  1.0000
  C   C50       1.0  0.051886299242902105  0.6467312675623449  0.6499427952427157  1.0000
  C   C51       1.0  0.051812237484540405  0.6467410828404566  0.850067113296078  1.0000
  C   C52       1.0  0.9481556456740704  0.3532598825386587  0.14993364311223445  1.0000
  C   C53       1.0  0.44816063392324407  0.14674048535095352  0.14993370235510645  1.0000
  C   C54       1.0  0.5518430352273427  0.8532608701813303  0.8500653226716044  1.0000
  C   C55       1.0  0.5518604349593942  0.8532740764639117  0.6499455057938025  1.0000
  C   C56       1.0  0.44813726940729737  0.1467304006349153  0.3500573273611567  1.0000
  C   C57       1.0  0.8448810508514769  0.4646884294948634  0.49535135672456243  1.0000
  C   C58       1.0  0.15511367186427094  0.5353109750737204  0.5046480145977342  1.0000
  C   C59       1.0  0.15513675829623708  0.5352994171082416  0.9953350056935623  1.0000
  C   C60       1.0  0.8448534910739055  0.46470037766061273  0.004665404244271101  1.0000
  C   C61       1.0  0.3448784338928944  0.03529896945256181  0.004666107111724203  1.0000
  C   C62       1.0  0.6551550560809289  0.9646949723466421  0.9953419183649148  1.0000
  C   C63       1.0  0.6551349528802035  0.9646889715402411  0.504649388222248  1.0000
  C   C64       1.0  0.3449074846709976  0.03531004277754591  0.49534617444974344  1.0000
  C   C65       1.0  0.8478077172493598  0.49950044829877543  0.5323524474759298  1.0000
  C   C66       1.0  0.1521870055836061  0.5004985660746755  0.46764588528728285  1.0000
  C   C67       1.0  0.15225669170040854  0.5004754132848604  0.03232928747767971  1.0000
  C   C68       1.0  0.8477305754822169  0.49952438148752515  0.9676714686839178  1.0000
  C   C69       1.0  0.34777247154399754  0.0004790512951586999  0.9676672014053413  1.0000
  C   C70       1.0  0.6522505812952629  0.9995133297357203  0.03233736233894292  1.0000
  C   C71       1.0  0.6522122098256274  0.9994966826155862  0.4676453050295921  1.0000
  C   C72       1.0  0.3478093532888025  0.0004953082182269001  0.5323461036598334  1.0000
  C   C73       1.0  0.0023912647112709004  0.5360291190520529  0.5379018135241724  1.0000
  C   C74       1.0  0.9976049490348443  0.46397184629408633  0.46209755778207323  1.0000
  C   C75       1.0  0.9976466633973331  0.46396313409468354  0.03789491989704171  1.0000
  C   C76       1.0  0.002343585914665899  0.536037441063911  0.9621058362283113  1.0000
  C   C77       1.0  0.5023828024387029  0.9639639127894171  0.9621068608699592  1.0000
  C   C78       1.0  0.4976477054657523  0.03603080940253281  0.03790012608730112  1.0000
  C   C79       1.0  0.49763581376672766  0.036025864746875406  0.4620954936630286  1.0000
  C   C80       1.0  0.5023991683085498  0.9639715888006322  0.5379014538448106  1.0000
  Br  Br1       1.0  0.5672534075162616  0.3991476725027426  0.32101229323370734  1.0000
  Br  Br2       1.0  0.432765172787228  0.6008583653486498  0.6789815388211554  1.0000
  Br  Br3       1.0  0.43267466311827  0.6008556768976234  0.8210023230380801  1.0000
  Br  Br4       1.0  0.5672976934450277  0.3991452884758289  0.1789967023831168  1.0000
  Br  Br5       1.0  0.0672859882753656  0.10086143495715315  0.17899659933913636  1.0000
  Br  Br6       1.0  0.9327087345489745  0.8991414813641613  0.821000694872595  1.0000
  Br  Br7       1.0  0.932730653858286  0.8991445600913296  0.6789882199891297  1.0000
  Br  Br8       1.0  0.0672745062369557  0.10085406407614528  0.32101288213071666  1.0000
  Br  Br9       1.0  0.6427758638382102  0.49270779597202374  0.5776320147083641  1.0000
  Br  Br10      1.0  0.35722631422105877  0.5072892674194023  0.42236839507409496  1.0000
  Br  Br11      1.0  0.35744781842937107  0.507229073231713  0.07756908292581244  1.0000
  Br  Br12      1.0  0.6425409397588665  0.49277072153917373  0.922432365589238  1.0000
  Br  Br13      1.0  0.1426286638383942  0.007240178982968398  0.9224191208250265  1.0000
  Br  Br14      1.0  0.857388424189402  0.9927502510823487  0.07759098196917343  1.0000
  Br  Br15      1.0  0.8572101680918465  0.9926832417005188  0.42235913659461505  1.0000
  Br  Br16      1.0  0.14270254960260334  0.007278704250751401  0.5776101175028929  1.0000
  O   O1        1.0  0.3854787401533031  0.799354460725084  0.7968834438739595  1.0000
  O   O2        1.0  0.6145249287665991  0.20065235753484964  0.20311627353468967  1.0000
  O   O3        1.0  0.6144900330274935  0.20063794862356596  0.2968603625184728  1.0000
  O   O4        1.0  0.38550916276791725  0.7993665284724971  0.7031390087563525  1.0000
  O   O5        1.0  0.8855205801493967  0.7006400318305949  0.7031352930983774  1.0000
  O   O6        1.0  0.11447563350425578  0.2993628844897387  0.2968644243974553  1.0000
  O   O7        1.0  0.11451053014229022  0.29935505229570236  0.20311791207135607  1.0000
  O   O8        1.0  0.8854603354515901  0.7006470836634904  0.7968797286262022  1.0000
  O   O9        1.0  0.7236510425526249  0.7979036895488962  0.7024929096090917  1.0000
  O   O10       1.0  0.2763466619399111  0.2020964954069413  0.2975099235382644  1.0000
  O   O11       1.0  0.276377214422908  0.2020902236150448  0.2024956776584475  1.0000
  O   O12       1.0  0.7236234726564417  0.7979095711412967  0.7975030012170026  1.0000
  O   O13       1.0  0.22360732175858536  0.7020903946174856  0.7975077571755664  1.0000
  O   O14       1.0  0.77636056077867  0.2979125217373806  0.2024985382142931  1.0000
  O   O15       1.0  0.7763270272700356  0.2979020151536815  0.2975065527516635  1.0000
  O   O16       1.0  0.22366173118789592  0.7020969992268321  0.702492472459085  1.0000
  O   O17       1.0  0.5534004272865404  0.7189873879008317  0.7500034259723168  1.0000
  O   O18       1.0  0.4465942951728294  0.2810147480319928  0.24999767628547442  1.0000
  O   O19       1.0  0.05339157733830291  0.7810133306094471  0.750004307119085  1.0000
  O   O20       1.0  0.9465912166292441  0.2189884151419577  0.249995756730165  1.0000
