data_image0
_chemical_formula_structural       Gd2H10C12O16
_chemical_formula_sum              "Gd2 H10 C12 O16"
_cell_length_a       5.855818756420824
_cell_length_b       9.466427007646516
_cell_length_c       10.252147974299131
_cell_angle_alpha    88.09434917000144
_cell_angle_beta     73.67993462252225
_cell_angle_gamma    77.88586634005541

_space_group_name_H-M_alt    "P 1"
_space_group_IT_number       1

loop_
  _space_group_symop_operation_xyz
  'x, y, z'

loop_
  _atom_site_type_symbol
  _atom_site_label
  _atom_site_symmetry_multiplicity
  _atom_site_fract_x
  _atom_site_fract_y
  _atom_site_fract_z
  _atom_site_occupancy
  Gd  Gd1       1.0  0.6509180497577347  0.05695914589235679  0.2969761764088688  1.0000
  Gd  Gd2       1.0  0.3490898661183054  0.9430424409559559  0.7030146654259963  1.0000
  H   H1        1.0  0.2898408765561415  0.8858786603596228  0.24456337366568448  1.0000
  H   H2        1.0  0.7101386668692912  0.11412277576803828  0.7554496052877934  1.0000
  H   H3        1.0  0.2690940993397674  0.8903310922887753  0.4000731398480539  1.0000
  H   H4        1.0  0.7308983418887252  0.10967903907839366  0.5999346002357128  1.0000
  H   H5        1.0  0.3279757433511676  0.31244523528808077  0.21361420611120244  1.0000
  H   H6        1.0  0.6720313773838528  0.6875487126657162  0.786389648726974  1.0000
  H   H7        1.0  0.24323814236161204  0.17593397234141858  0.1658244466303529  1.0000
  H   H8        1.0  0.7567524091197696  0.8240664609899678  0.8341760543105108  1.0000
  H   H9        1.0  0.726717270339087  0.5562289955301621  0.3506671316506384  1.0000
  H   H10       1.0  0.2732784608920866  0.44377685678126266  0.6493323889945443  1.0000
  C   C1        1.0  0.8471028870992328  0.5328704653272708  0.41627458381929483  1.0000
  C   C2        1.0  0.1528896787556634  0.4671342936543112  0.5837264519663208  1.0000
  C   C3        1.0  0.9336771802107364  0.6433677654231358  0.4610130283872137  1.0000
  C   C4        1.0  0.06631398981473072  0.3566359140741752  0.5389872859624134  1.0000
  C   C5        1.0  0.8482549732459717  0.7924258080293994  0.41534701184606604  1.0000
  C   C6        1.0  0.15172889508721712  0.20757347899226627  0.5846643517109554  1.0000
  C   C7        1.0  0.08892154023762809  0.6100697262081664  0.5456314804108117  1.0000
  C   C8        1.0  0.9110753419963162  0.38993289378291246  0.45436599024920094  1.0000
  C   C9        1.0  0.1890975537997194  0.7229800828323361  0.5965287171086473  1.0000
  C   C10       1.0  0.8109021371505134  0.27702467589629975  0.40347409588164845  1.0000
  C   C11       1.0  0.9105021090934075  0.9578741881015699  0.984261870977747  1.0000
  C   C12       1.0  0.0895510702337816  0.04211023333691339  0.01571335173733249  1.0000
  O   O1        1.0  0.970725993514762  0.9037283808000254  0.8636778960547175  1.0000
  O   O2        1.0  0.029281493207207607  0.09627433743771258  0.1363032305530467  1.0000
  O   O3        1.0  0.947895188686104  0.8293299981274131  0.2964613180917226  1.0000
  O   O4        1.0  0.0521046226261745  0.17066939327338557  0.7035338157358381  1.0000
  O   O5        1.0  0.6600738155615885  0.8752994523995311  0.49184765797021873  1.0000
  O   O6        1.0  0.3399244710304998  0.1247042369603264  0.5081524838549285  1.0000
  O   O7        1.0  0.13301167342104495  0.8547586401455048  0.5606321290907629  1.0000
  O   O8        1.0  0.8669781178324243  0.14524393963653637  0.4393713632811823  1.0000
  O   O9        1.0  0.3245179650885603  0.6896087478841507  0.6748398659916361  1.0000
  O   O10       1.0  0.6754682614850579  0.3103938345532383  0.32516225034568436  1.0000
  O   O11       1.0  0.7224878859055576  0.9490042433619761  0.07715059549804695  1.0000
  O   O12       1.0  0.2775574073001366  0.050972498972960495  0.9228436619322834  1.0000
  O   O13       1.0  0.37854376007608437  0.9019226362812062  0.30828881413124526  1.0000
  O   O14       1.0  0.6214498278908208  0.09808426782335998  0.6917159011027678  1.0000
  O   O15       1.0  0.37539984741589894  0.20922547363987576  0.19341049860083362  1.0000
  O   O16       1.0  0.6245898876026742  0.7907673460857437  0.8065981410204583  1.0000
