data_image0
_chemical_formula_structural       Cu3H24C14N22O2
_chemical_formula_sum              "Cu3 H24 C14 N22 O2"
_cell_length_a       7.7013486709148555
_cell_length_b       8.511721190249263
_cell_length_c       11.058994381075797
_cell_angle_alpha    91.52394391854372
_cell_angle_beta     107.44023239101473
_cell_angle_gamma    93.52333846124914

_space_group_name_H-M_alt    "P 1"
_space_group_IT_number       1

loop_
  _space_group_symop_operation_xyz
  'x, y, z'

loop_
  _atom_site_type_symbol
  _atom_site_label
  _atom_site_symmetry_multiplicity
  _atom_site_fract_x
  _atom_site_fract_y
  _atom_site_fract_z
  _atom_site_occupancy
  Cu  Cu1       1.0  0.4988316863243583  0.4988329295318792  0.49975553802402584  1.0000
  Cu  Cu2       1.0  0.10594544657714522  0.35423362893552474  0.42390461580977506  1.0000
  Cu  Cu3       1.0  0.8956006966640898  0.6455608750995124  0.5762186554610694  1.0000
  H   H1        1.0  0.6931712845612593  0.27474756017909385  0.9561377675108318  1.0000
  H   H2        1.0  0.3069810391898145  0.7254357281508205  0.043971157070828285  1.0000
  H   H3        1.0  0.8791773103858989  0.0262948553996196  0.394022057539857  1.0000
  H   H4        1.0  0.12069582133260327  0.9734982504814199  0.6059302353099768  1.0000
  H   H5        1.0  0.9290080862044192  0.8956106537770339  0.28123278036613897  1.0000
  H   H6        1.0  0.07124954977732761  0.1042261765897834  0.7188250840055447  1.0000
  H   H7        1.0  0.924991369386362  0.5860295376784778  0.2523146946121387  1.0000
  H   H8        1.0  0.0755996420789558  0.41386623512210013  0.7479170000931391  1.0000
  H   H9        1.0  0.7191573553189413  0.5759539419261442  0.12197857450808415  1.0000
  H   H10       1.0  0.2809739844167893  0.42371271766780444  0.8786054480762717  1.0000
  H   H11       1.0  0.931679081000155  0.5811604885678888  0.09192887683222044  1.0000
  H   H12       1.0  0.06809743627969309  0.41898607161629536  0.9080819544990606  1.0000
  H   H13       1.0  0.7885344853363777  0.8471057170405414  0.09950499241579544  1.0000
  H   H14       1.0  0.21196907927223657  0.15284444153410695  0.9001553676196327  1.0000
  H   H15       1.0  0.8246695213057081  0.9294081355770274  0.9630717642694507  1.0000
  H   H16       1.0  0.174590964245894  0.07100174888048369  0.03637503282572401  1.0000
  H   H17       1.0  0.6069146383861861  0.925215786504836  0.9850571264864033  1.0000
  H   H18       1.0  0.39283952244146286  0.07471633715869068  0.0151705734953964  1.0000
  H   H19       1.0  0.4012883336187442  0.026940462398897608  0.3858056876911107  1.0000
  H   H20       1.0  0.5986877488954148  0.9733994438272122  0.6141085022959629  1.0000
  H   H21       1.0  0.24248927263292328  0.06942236485564021  0.23849627849709523  1.0000
  H   H22       1.0  0.7570547089311859  0.9306067554075597  0.761418311051692  1.0000
  H   H23       1.0  0.23726783594527484  0.8743453503291292  0.2967625854365182  1.0000
  H   H24       1.0  0.7628612133316536  0.12575932606927154  0.7033924508121461  1.0000
  C   C1        1.0  0.768756535237877  0.25012711244114166  0.05265835525593597  1.0000
  C   C2        1.0  0.23151259076203698  0.7498683414749364  0.947435526550507  1.0000
  C   C3        1.0  0.8494760502691462  0.36063407769299977  0.15408929876086566  1.0000
  C   C4        1.0  0.1509957076357438  0.6392479377120992  0.8460822950338385  1.0000
  C   C5        1.0  0.9564624558129751  0.014837000771777298  0.32594974205073873  1.0000
  C   C6        1.0  0.043490962305199284  0.9850396614889688  0.6740347107466677  1.0000
  C   C7        1.0  0.8019705942509747  0.1015327045614143  0.10056819457845029  1.0000
  C   C8        1.0  0.198086691297128  0.8984302902350692  0.8994281880231939  1.0000
  C   C9        1.0  0.8574768787917294  0.5357227511164454  0.15601545630185862  1.0000
  C   C10       1.0  0.1428147956869239  0.4641841024183364  0.844250636987752  1.0000
  C   C11       1.0  0.7535759943066652  0.942905970672463  0.034761370409071915  1.0000
  C   C12       1.0  0.24630564876266445  0.0571423660117532  0.9650763020370833  1.0000
  C   C13       1.0  0.2620432693550541  0.0009498961366603004  0.32391698110375705  1.0000
  C   C14       1.0  0.7378907711884821  0.9992066207972027  0.6761059023369428  1.0000
  N   N1        1.0  0.6715841015881735  0.6121403468605493  0.42131373169070946  1.0000
  N   N2        1.0  0.32812562626797614  0.38788806184913943  0.5793070532662838  1.0000
  N   N3        1.0  0.926363743555349  0.2834446243476664  0.2592611960345367  1.0000
  N   N4        1.0  0.07409596179532939  0.7163387288995295  0.7408841530015169  1.0000
  N   N5        1.0  0.8973847614626962  0.12622977810116248  0.22605171333025012  1.0000
  N   N6        1.0  0.10270522154183939  0.8736034059673585  0.7739640975851999  1.0000
  N   N7        1.0  0.2836267438076518  0.4649409595006801  0.343994032184206  1.0000
  N   N8        1.0  0.7160387047296907  0.5355757458540463  0.6553710034567715  1.0000
  N   N9        1.0  0.7841764297994587  0.2805225519734549  0.4844265836073874  1.0000
  N   N10       1.0  0.2154022969248643  0.7204965320951756  0.5151264341588232  1.0000
  N   N11       1.0  0.9453090290036884  0.3138445669717029  0.5299741321044069  1.0000
  N   N12       1.0  0.05424447493506787  0.6870930301544007  0.4695051292541592  1.0000
  N   N13       1.0  0.6226007122383379  0.7085710053973103  0.3413862847627841  1.0000
  N   N14       1.0  0.3771554494401244  0.29109926322666974  0.6587772113699871  1.0000
  N   N15       1.0  0.3052722353609383  0.4221638306235674  0.24389747817049573  1.0000
  N   N16       1.0  0.6953767005246333  0.5770147767567761  0.7561546354484251  1.0000
  N   N17       1.0  0.6260444296630823  0.2523507494866166  0.4465362922028221  1.0000
  N   N18       1.0  0.3734310898511524  0.7489727424851225  0.5528906611984183  1.0000
  N   N19       1.0  0.5748527440907908  0.7975138822240383  0.26231623292608935  1.0000
  N   N20       1.0  0.42428274251518167  0.20236461188008545  0.7381501413402134  1.0000
  N   N21       1.0  0.3241337006796101  0.3856115177675505  0.1471109606682433  1.0000
  N   N22       1.0  0.676662596049603  0.6134090479625769  0.8529904453726264  1.0000
  O   O1        1.0  0.1421338474706317  0.046430941307747296  0.3944959207828946  1.0000
  O   O2        1.0  0.8578057586995911  0.9536195389331823  0.6056019115598448  1.0000
