data_image0
_chemical_formula_structural       CuSiH16C24Br4N4F6
_chemical_formula_sum              "Cu1 Si1 H16 C24 Br4 N4 F6"
_cell_length_a       8.07855920864862
_cell_length_b       13.786518926348656
_cell_length_c       13.786662398043706
_cell_angle_alpha    89.79596663218278
_cell_angle_beta     85.88121900420792
_cell_angle_gamma    85.88153534708566

_space_group_name_H-M_alt    "P 1"
_space_group_IT_number       1

loop_
  _space_group_symop_operation_xyz
  'x, y, z'

loop_
  _atom_site_type_symbol
  _atom_site_label
  _atom_site_symmetry_multiplicity
  _atom_site_fract_x
  _atom_site_fract_y
  _atom_site_fract_z
  _atom_site_occupancy
  Cu  Cu1       1.0  0.4999932019960127  0.49999741024837635  0.4999978205908208  1.0000
  Si  Si1       1.0  0.9999915570469824  0.49999751697136924  0.4999976805014726  1.0000
  H   H1        1.0  0.2620109868098481  0.5000812330483626  0.3454379701469392  1.0000
  H   H2        1.0  0.2661689085329756  0.5000258526502961  0.1712480779179231  1.0000
  H   H3        1.0  0.8033007326650149  0.4999417101968718  0.1642076874670764  1.0000
  H   H4        1.0  0.7771124252171476  0.4998750087197267  0.3404215006490646  1.0000
  H   H5        1.0  0.1966821582067269  0.5000720192334641  0.8357880191148227  1.0000
  H   H6        1.0  0.7338229844712532  0.4999646000738311  0.8287473587893859  1.0000
  H   H7        1.0  0.7379772700380728  0.49990849577268653  0.6545576167100365  1.0000
  H   H8        1.0  0.22287612250190142  0.5001328995086355  0.6595754512522876  1.0000
  H   H9        1.0  0.26200636057802035  0.34543823227188153  0.500084787107163  1.0000
  H   H10       1.0  0.2661671055616282  0.17124624179894712  0.5000278532821485  1.0000
  H   H11       1.0  0.8033023541915157  0.16421177568957293  0.4999382238188589  1.0000
  H   H12       1.0  0.7771031131217967  0.3404260081892758  0.499873838128707  1.0000
  H   H13       1.0  0.19668409560541278  0.8357823236961651  0.5000661225377101  1.0000
  H   H14       1.0  0.7338245322251638  0.8287463915786262  0.49996613421429725  1.0000
  H   H15       1.0  0.7379753339132407  0.654554411999456  0.4999125042621417  1.0000
  H   H16       1.0  0.22287572522752438  0.6595695507584339  0.5001286344194327  1.0000
  C   C1        1.0  0.38076851230300696  0.5000484819323959  0.3027391279174836  1.0000
  C   C2        1.0  0.3852560429481998  0.5000374262015513  0.20182858078307933  1.0000
  C   C3        1.0  0.5370960557219746  0.5000252099225906  0.1440596060183523  1.0000
  C   C4        1.0  0.6785988574448821  0.4999711511524795  0.19897694994121914  1.0000
  C   C5        1.0  0.6660282236246999  0.4999325043672584  0.2999364092738618  1.0000
  C   C6        1.0  0.5560960465760233  0.49992780609409243  0.0353236941192492  1.0000
  C   C7        1.0  0.44389258109286805  0.5000691933515142  0.9646711228429583  1.0000
  C   C8        1.0  0.3213889803182042  0.5000323938194526  0.8010185977471382  1.0000
  C   C9        1.0  0.46289470131188176  0.49997469671482975  0.8559358382669872  1.0000
  C   C10       1.0  0.614734325940759  0.4999552123584224  0.7981712607961244  1.0000
  C   C11       1.0  0.6192177099947642  0.49994779403140643  0.6972579653896532  1.0000
  C   C12       1.0  0.3339549288911314  0.5000688608132864  0.7000557102434046  1.0000
  C   C13       1.0  0.3807631247897163  0.30273857243022223  0.5000469423315934  1.0000
  C   C14       1.0  0.38525358542583643  0.20182614787441375  0.5000386941742222  1.0000
  C   C15       1.0  0.5370964595898116  0.1440597771129433  0.500023849501801  1.0000
  C   C16       1.0  0.678599747293447  0.19897974281436606  0.4999690284882379  1.0000
  C   C17       1.0  0.6660247701903259  0.2999405645169375  0.49993082772872566  1.0000
  C   C18       1.0  0.5560957356965304  0.035323007001800015  0.4999271276939511  1.0000
  C   C19       1.0  0.4438959721486668  0.9646689016988009  0.5000704866186683  1.0000
  C   C20       1.0  0.3213866428394284  0.8010150797200809  0.5000295146126917  1.0000
  C   C21       1.0  0.4628950700259296  0.8559335865452768  0.4999744914564916  1.0000
  C   C22       1.0  0.6147353043900666  0.7981686698988996  0.4999561210392117  1.0000
  C   C23       1.0  0.6192209681430896  0.6972547963417741  0.49994952365241846  1.0000
  C   C24       1.0  0.33395559573904887  0.7000528080855091  0.5000665144676973  1.0000
  Br  Br1       1.0  0.7886705040649318  0.4994881586584938  0.990125988619781  1.0000
  Br  Br2       1.0  0.21132405696033627  0.5005110184526487  0.009870755309684405  1.0000
  Br  Br3       1.0  0.7886726463849173  0.9901263212871785  0.4994871949592864  1.0000
  Br  Br4       1.0  0.21132581640845421  0.009871397545318003  0.5005086715919165  1.0000
  N   N1        1.0  0.518459602471303  0.499969006657949  0.35194722918658533  1.0000
  N   N2        1.0  0.48152893435046457  0.5000287205211862  0.6480483138383735  1.0000
  N   N3        1.0  0.5184534147441652  0.3519486117937235  0.4999694943011549  1.0000
  N   N4        1.0  0.48152933923240226  0.6480454868376526  0.5000291989494345  1.0000
  F   F1        1.0  0.21474900068449196  0.5014416553856975  0.5014453791453022  1.0000
  F   F2        1.0  0.785234459783254  0.49855680701153204  0.4985554437981038  1.0000
  F   F3        1.0  0.9999915240941276  0.5879239897595667  0.4120815477438812  1.0000
  F   F4        1.0  0.9999908632228696  0.4120768660513506  0.5879196217610174  1.0000
  F   F5        1.0  0.02483329656024579  0.41195126867508963  0.4119508037699264  1.0000
  F   F6        1.0  0.9751615266120339  0.5880457267637598  0.5880459384107654  1.0000
