data_image0
_chemical_formula_structural       Ag4H6C16Br2N4O8F12
_chemical_formula_sum              "Ag4 H6 C16 Br2 N4 O8 F12"
_cell_length_a       7.753169101681111
_cell_length_b       8.373303310943275
_cell_length_c       11.604254912185812
_cell_angle_alpha    70.65387302321086
_cell_angle_beta     76.17970669678922
_cell_angle_gamma    79.60042077199554

_space_group_name_H-M_alt    "P 1"
_space_group_IT_number       1

loop_
  _space_group_symop_operation_xyz
  'x, y, z'

loop_
  _atom_site_type_symbol
  _atom_site_label
  _atom_site_symmetry_multiplicity
  _atom_site_fract_x
  _atom_site_fract_y
  _atom_site_fract_z
  _atom_site_occupancy
  Ag  Ag1       1.0  0.582416011422623  0.8355721203131168  0.5553356180471238  1.0000
  Ag  Ag2       1.0  0.41758501544205723  0.16442743001589122  0.44466424764624424  1.0000
  Ag  Ag3       1.0  0.8327673362183815  0.054254245481452315  0.5797009035318794  1.0000
  Ag  Ag4       1.0  0.16723369140958502  0.9457453021709838  0.4202972391747011  1.0000
  H   H1        1.0  0.6986928616020761  0.45057596228804914  0.5130167612264742  1.0000
  H   H2        1.0  0.30131066903131654  0.5494248699326717  0.4869832595756947  1.0000
  H   H3        1.0  0.5718095511010047  0.07540389267087728  0.8500283034530084  1.0000
  H   H4        1.0  0.4281885170418106  0.9245981977761276  0.14997142517153608  1.0000
  H   H5        1.0  0.4096962614283229  0.6100790022605693  0.8147697216502152  1.0000
  H   H6        1.0  0.5903018070961323  0.38992308684815674  0.18522914548093175  1.0000
  C   C1        1.0  0.6334566345196818  0.41836572533255617  0.6108830775938828  1.0000
  C   C2        1.0  0.36654439158171204  0.5816338276730165  0.3891185110862664  1.0000
  C   C3        1.0  0.5645356918171415  0.21031418646061445  0.7973051419217967  1.0000
  C   C4        1.0  0.4354637037811245  0.7896879088228205  0.20269523557941224  1.0000
  C   C5        1.0  0.48074607969520133  0.33580268674309377  0.8529297449734017  1.0000
  C   C6        1.0  0.5192525949245945  0.6641943081370557  0.14707024676231117  1.0000
  C   C7        1.0  0.47461364082640495  0.5052014891452927  0.778321656043488  1.0000
  C   C8        1.0  0.5253870829906048  0.49480060829800016  0.2216776473475973  1.0000
  C   C9        1.0  0.7445301837682549  0.003585939691745899  0.2895644148605285  1.0000
  C   C10       1.0  0.2554738021999228  0.9964110691809721  0.7104347264082733  1.0000
  C   C11       1.0  0.8782321506559752  0.023060484652383202  0.1637122791645211  1.0000
  C   C12       1.0  0.12177020404579507  0.9769390691747618  0.8362873739121213  1.0000
  C   C13       1.0  0.9982472560769936  0.6883941916863704  0.6791000810956545  1.0000
  C   C14       1.0  0.0017511143501990974  0.31160535432291436  0.3209019328179537  1.0000
  C   C15       1.0  0.01103543878908651  0.5022199144147378  0.7679248463666682  1.0000
  C   C16       1.0  0.9889613015166318  0.4977821725341228  0.2320750948746024  1.0000
  Br  Br1       1.0  0.3822843352357737  0.280444608677307  0.02443612531972406  1.0000
  Br  Br2       1.0  0.6177137329070348  0.7195574817696977  0.9755636033048204  1.0000
  N   N1        1.0  0.5522857332322033  0.5456862648902145  0.6571711604592847  1.0000
  N   N2        1.0  0.4477164707090252  0.4543145598175045  0.3428264884794245  1.0000
  N   N3        1.0  0.6409895793342103  0.25249766612893143  0.6758822371668954  1.0000
  N   N4        1.0  0.359012775749207  0.7475018863599274  0.3241165544163493  1.0000
  O   O1        1.0  0.7945330037196641  0.8956083189309325  0.38427337536713685  1.0000
  O   O2        1.0  0.20547083034303879  0.10438996483721039  0.6157263462439174  1.0000
  O   O3        1.0  0.5991262549113472  0.09758696363417839  0.27987423275970963  1.0000
  O   O4        1.0  0.40087640283809367  0.9024100430786816  0.7201259826192086  1.0000
  O   O5        1.0  0.8526730189887388  0.7795636917239719  0.7002238194983832  1.0000
  O   O6        1.0  0.1473316879579158  0.22043841755203178  0.2997757075359146  1.0000
  O   O7        1.0  0.13754158061746577  0.7253548118929347  0.598781071012297  1.0000
  O   O8        1.0  0.8624585745081887  0.274640908913355  0.40121640477764225  1.0000
  F   F1        1.0  0.8209111939193646  0.9484802948758001  0.09331116632888126  1.0000
  F   F2        1.0  0.17909131192460143  0.0515179867324917  0.9066896293922895  1.0000
  F   F3        1.0  0.045754553657900494  0.9491221597553193  0.17810887525525484  1.0000
  F   F4        1.0  0.954248977357139  0.050878671127108505  0.8218902840535165  1.0000
  F   F5        1.0  0.8894010658631117  0.18977137604030503  0.09791534018615516  1.0000
  F   F6        1.0  0.11059730570901394  0.8102281659541289  0.9020840892472748  1.0000
  F   F7        1.0  0.0649024766834643  0.4962524897887235  0.8726050818862632  1.0000
  F   F8        1.0  0.9350907339191747  0.5037457686708535  0.12739806364540132  1.0000
  F   F9        1.0  0.13131498028825916  0.39722697060102513  0.7119415477461928  1.0000
  F   F10       1.0  0.868680885606942  0.6027712961931186  0.2880620340454101  1.0000
  F   F11       1.0  0.8524643125587518  0.4356794246443982  0.8042752163229137  1.0000
  F   F12       1.0  0.1475336048235079  0.5643239366831806  0.19572250816370482  1.0000
