data_image0
_chemical_formula_structural       CdH28C28N10O6
_chemical_formula_sum              "Cd1 H28 C28 N10 O6"
_cell_length_a       8.87477281283063
_cell_length_b       8.845527397262957
_cell_length_c       10.020914101685301
_cell_angle_alpha    70.5490466166732
_cell_angle_beta     84.9703639138592
_cell_angle_gamma    76.68254809237112

_space_group_name_H-M_alt    "P 1"
_space_group_IT_number       1

loop_
  _space_group_symop_operation_xyz
  'x, y, z'

loop_
  _atom_site_type_symbol
  _atom_site_label
  _atom_site_symmetry_multiplicity
  _atom_site_fract_x
  _atom_site_fract_y
  _atom_site_fract_z
  _atom_site_occupancy
  Cd  Cd1       1.0  4.700083871703238e-08  0.9999990867571856  7.383455197639949e-07  1.0000
  H   H1        1.0  0.8171194990587692  0.3345814898737985  0.10257314679512318  1.0000
  H   H2        1.0  0.18288161837090655  0.6654169905829692  0.8974276063958442  1.0000
  H   H3        1.0  0.39396596253743615  0.1752503378848616  0.16765823878744607  1.0000
  H   H4        1.0  0.6060321433962912  0.824751815185259  0.8323406600553156  1.0000
  H   H5        1.0  0.619219423974492  0.9583948671677761  0.06758711506726908  1.0000
  H   H6        1.0  0.38077844192325466  0.0416085136056239  0.9324094458429569  1.0000
  H   H7        1.0  0.42876131645983406  0.5180677463172075  0.11754293446472268  1.0000
  H   H8        1.0  0.5712404323573851  0.48193319398244944  0.8824560544705234  1.0000
  H   H9        1.0  0.6070634596231558  0.49959154010860357  0.19409094045045086  1.0000
  H   H10       1.0  0.3929376640309811  0.5004069404957932  0.8059088143161403  1.0000
  H   H11       1.0  0.20935818523389563  0.4614444228727451  0.24598244990728788  1.0000
  H   H12       1.0  0.7906424272259897  0.538556512400092  0.7540176211160983  1.0000
  H   H13       1.0  0.07120886601776277  0.3696102115825256  0.47313146545010193  1.0000
  H   H14       1.0  0.9287928765749954  0.6303907285695018  0.5268685219095205  1.0000
  H   H15       1.0  0.2218880400176317  0.2284624634612697  0.6973918864342039  1.0000
  H   H16       1.0  0.7781124339262036  0.771544613583295  0.3026073939308489  1.0000
  H   H17       1.0  0.5072476680402929  0.191792429860449  0.6907625604660481  1.0000
  H   H18       1.0  0.4927527996790816  0.808214647036493  0.3092377183233808  1.0000
  H   H19       1.0  0.7474629245716145  0.2681159264530351  0.363756407156373  1.0000
  H   H20       1.0  0.2525386916033839  0.7318800990400478  0.6362460266265444  1.0000
  H   H21       1.0  0.7241830771926131  0.4040330627716955  0.4612444728835641  1.0000
  H   H22       1.0  0.27581992782461373  0.5959617403401721  0.5387572198949968  1.0000
  H   H23       1.0  0.8247405420954053  0.2913742429551789  0.7093226310270637  1.0000
  H   H24       1.0  0.17525592838504164  0.7086193033258754  0.29068090324228996  1.0000
  H   H25       1.0  0.7692444889811583  0.9476579155238698  0.5181033965528029  1.0000
  H   H26       1.0  0.23075664712190053  0.0523405653757791  0.48189436136502906  1.0000
  H   H27       1.0  0.9204882560706408  0.781983808010125  0.7748009546593195  1.0000
  H   H28       1.0  0.07951539900750498  0.21801345538750644  0.225195978590385  1.0000
  C   C1        1.0  0.735840244315085  0.2587314319219374  0.1049262764821606  1.0000
  C   C2        1.0  0.2641599954666133  0.741265816247612  0.8950749014563684  1.0000
  C   C3        1.0  0.5147893873181744  0.1736760743593706  0.1397181886868353  1.0000
  C   C4        1.0  0.4852101074577674  0.8263248563295351  0.8602799691515697  1.0000
  C   C5        1.0  0.6260200370720312  0.06885580395338313  0.08942419292557699  1.0000
  C   C6        1.0  0.3739755623355235  0.9311475669140067  0.9105735337365672  1.0000
  C   C7        1.0  0.5149559116417208  0.43459744146755236  0.1958021138081492  1.0000
  C   C8        1.0  0.48504583095103737  0.5654034986844824  0.804197873551466  1.0000
  C   C9        1.0  0.43671162395543917  0.38202759409085735  0.3385954322681144  1.0000
  C   C10       1.0  0.5632909900608283  0.6179745782007728  0.6614051287683154  1.0000
  C   C11       1.0  0.2752967763476021  0.403766789757782  0.3437997593835788  1.0000
  C   C12       1.0  0.724705843893126  0.5962353826814775  0.6561998032284819  1.0000
  C   C13       1.0  0.19693837356276592  0.3516846559255953  0.47223607785019084  1.0000
  C   C14       1.0  0.8030628640602087  0.6483187390425087  0.5277632273418504  1.0000
  C   C15       1.0  0.2811007198257371  0.27403022076892114  0.5969412574398447  1.0000
  C   C16       1.0  0.7188993876643651  0.7259731693199855  0.40305813141596764  1.0000
  C   C17       1.0  0.4423444580666497  0.2525935889410603  0.5927884319137036  1.0000
  C   C18       1.0  0.5576542481323158  0.7474110232338023  0.4072136947952244  1.0000
  C   C19       1.0  0.5216927126600197  0.3065545484564325  0.46485352464172536  1.0000
  C   C20       1.0  0.4783076348660558  0.6934476139291875  0.5351482021466297  1.0000
  C   C21       1.0  0.6958406382788525  0.28944972336901736  0.46103184341425424  1.0000
  C   C22       1.0  0.3041582188850852  0.7105487473293692  0.5389690771042552  1.0000
  C   C23       1.0  0.8303419765824173  0.1739143637234406  0.6952967689560907  1.0000
  C   C24       1.0  0.16965373021889005  0.8260828646340812  0.3047067404862744  1.0000
  C   C25       1.0  0.80390867464601  0.9921916659447448  0.5965178698734945  1.0000
  C   C26       1.0  0.19608856608866182  0.007809255133402402  0.4034794568680766  1.0000
  C   C27       1.0  0.8778681452608693  0.9124659914480379  0.7239601651711141  1.0000
  C   C28       1.0  0.1221275864382818  0.08753123749999502  0.27603935057374673  1.0000
  N   N1        1.0  0.7629098522423375  0.12306643721449723  0.06876256431464609  1.0000
  N   N2        1.0  0.23708788101319547  0.8769320287523288  0.9312374414432583  1.0000
  N   N3        1.0  0.5862790062532639  0.2930582900803743  0.14897658121972768  1.0000
  N   N4        1.0  0.41372048229821695  0.7069426404609019  0.8510225750430535  1.0000
  N   N5        1.0  0.7750100039094222  0.1575640141542749  0.5798742905063462  1.0000
  N   N6        1.0  0.22498709173410697  0.8424319918220391  0.4201284779316623  1.0000
  N   N7        1.0  0.8934195391314289  0.027456096801159905  0.7844507606874558  1.0000
  N   N8        1.0  0.10657782144591  0.9725386820623714  0.21555035198558403  1.0000
  N   N9        1.0  0.10461864141957018  0.37926413486048466  0.8749889474227146  1.0000
  N   N10       1.0  0.8953831073976489  0.6207368054391793  0.12501004151252468  1.0000
  O   O1        1.0  0.00459410801328628  0.2949248216976344  0.8750400068091934  1.0000
  O   O2        1.0  0.9954065044466064  0.7050761135752028  0.12496006421419266  1.0000
  O   O3        1.0  0.0791531983347937  0.5289698887351052  0.7996167645335603  1.0000
  O   O4        1.0  0.9208508045237025  0.47103106117531  0.20038305549851296  1.0000
  O   O5        1.0  0.22562069971273493  0.31304337659936726  0.9472743306626369  1.0000
  O   O6        1.0  0.7743799127471572  0.686957558673477  0.05272574036074936  1.0000
