data_image0
_chemical_formula_structural       H20Pb4C24I4N4O10
_chemical_formula_sum              "H20 Pb4 C24 I4 N4 O10"
_cell_length_a       7.92544239444427
_cell_length_b       11.143966215564081
_cell_length_c       11.143898294011112
_cell_angle_alpha    112.93565822648219
_cell_angle_beta     93.08808697874734
_cell_angle_gamma    93.08904975019676

_space_group_name_H-M_alt    "P 1"
_space_group_IT_number       1

loop_
  _space_group_symop_operation_xyz
  'x, y, z'

loop_
  _atom_site_type_symbol
  _atom_site_label
  _atom_site_symmetry_multiplicity
  _atom_site_fract_x
  _atom_site_fract_y
  _atom_site_fract_z
  _atom_site_occupancy
  H   H1        1.0  0.7902778823687626  0.9944900400501523  0.48376051404334686  1.0000
  H   H2        1.0  0.7097048921223177  0.5162412378411716  0.005512337701695483  1.0000
  H   H3        1.0  0.20971380547577215  0.0055160728275965  0.5162334896726293  1.0000
  H   H4        1.0  0.29026303090109457  0.4837518623347563  0.9944803330807661  1.0000
  H   H5        1.0  0.5645334655059385  0.9882674723208781  0.8093124121841343  1.0000
  H   H6        1.0  0.9354636744089645  0.1907050427452859  0.01175430970368297  1.0000
  H   H7        1.0  0.43546008556008087  0.0117435198085474  0.19069522830025687  1.0000
  H   H8        1.0  0.06451264937570042  0.8092969439702745  0.9882465873379547  1.0000
  H   H9        1.0  0.43540345825451954  0.1988919318285127  0.8468280643288113  1.0000
  H   H10       1.0  0.0645867343790769  0.15317487585598852  0.8011312116528092  1.0000
  H   H11       1.0  0.5646061562850805  0.801131000657925  0.1531784619848509  1.0000
  H   H12       1.0  0.9353903432181738  0.8468192884950129  0.19887561310541468  1.0000
  H   H13       1.0  0.6646337179619409  0.20108763623318288  0.5044391000570841  1.0000
  H   H14       1.0  0.8353634973630192  0.49557120672643146  0.7989180043022659  1.0000
  H   H15       1.0  0.33535681931638806  0.7989320982519531  0.4955745721058238  1.0000
  H   H16       1.0  0.16463924808670066  0.5044311441844088  0.2010748558635812  1.0000
  H   H17       1.0  0.8506219311739117  0.44211799072836305  0.5599998859830537  1.0000
  H   H18       1.0  0.6493622817531985  0.440005897782875  0.5578819580790937  1.0000
  H   H19       1.0  0.1493673243572786  0.5578724470283021  0.4399968686439522  1.0000
  H   H20       1.0  0.35062950256418185  0.560001190686009  0.442113328722897  1.0000
  Pb  Pb1       1.0  0.7903229561539645  0.748917868107199  0.5994235297779227  1.0000
  Pb  Pb2       1.0  0.7097331403346344  0.40052146034086183  0.25099143249326533  1.0000
  Pb  Pb3       1.0  0.2097628115172725  0.2510161944362252  0.40056298195325724  1.0000
  Pb  Pb4       1.0  0.29029315804607597  0.5994363542579961  0.7489532525647606  1.0000
  C   C1        1.0  0.46346829097397085  0.3424354100341844  0.6965795677718207  1.0000
  C   C2        1.0  0.0364940486020373  0.3034008807149675  0.6575506756283291  1.0000
  C   C3        1.0  0.5365508087729013  0.6575622255408433  0.3034316771515365  1.0000
  C   C4        1.0  0.9634898476133527  0.6965855775537406  0.3424461513533715  1.0000
  C   C5        1.0  0.7099194648709924  0.04208735732787261  0.5621621359825328  1.0000
  C   C6        1.0  0.7900624072980379  0.4378359298340512  0.957910685056007  1.0000
  C   C7        1.0  0.2900718708735752  0.9579138605558908  0.437833526263084  1.0000
  C   C8        1.0  0.20991998613599347  0.5621651843206266  0.04207928315295108  1.0000
  C   C9        1.0  0.5846319456808118  0.039095607860964804  0.7443279050624059  1.0000
  C   C10       1.0  0.9153607680665273  0.2556770391997247  0.9609109140063059  1.0000
  C   C11       1.0  0.41538541013138536  0.9609127623040479  0.2556803198105087  1.0000
  C   C12       1.0  0.08461166404484997  0.744323922601289  0.039088566493525295  1.0000
  C   C13       1.0  0.5119878174936544  0.1556939757766997  0.7646389765737995  1.0000
  C   C14       1.0  0.9880142977700713  0.23537264448552975  0.8443125738561722  1.0000
  C   C15       1.0  0.4880387410999986  0.844317428677101  0.23537699738054838  1.0000
  C   C16       1.0  0.011968365822475804  0.7646294225425622  0.15568944271841903  1.0000
  C   C17       1.0  0.6399089775834881  0.1577060874185108  0.5747374397512177  1.0000
  C   C18       1.0  0.8600785074508438  0.42526534353182643  0.8422921856853808  1.0000
  C   C19       1.0  0.36010235678697466  0.842305125421099  0.42527530906004785  1.0000
  C   C20       1.0  0.1399074786079382  0.5747328818139793  0.15769944936114655  1.0000
  C   C21       1.0  0.5394959347487855  0.2163648997342946  0.6781011505589378  1.0000
  C   C22       1.0  0.9604829930405572  0.32189733695798856  0.7836339967828325  1.0000
  C   C23       1.0  0.4605270746415329  0.7836493878489464  0.3219158478777545  1.0000
  C   C24       1.0  0.039501433746679  0.6780959693801237  0.21636284073461107  1.0000
  I   I1        1.0  0.634236248978361  0.756888510480465  0.8767115305272386  1.0000
  I   I2        1.0  0.8657876189438056  0.12329726312635358  0.24312666568020808  1.0000
  I   I3        1.0  0.3657744582322167  0.24312080797117372  0.12327173891294764  1.0000
  I   I4        1.0  0.1342054506746706  0.8767517864215222  0.7569030713972327  1.0000
  N   N1        1.0  0.6819225420431962  0.9830436877222581  0.6450810783133607  1.0000
  N   N2        1.0  0.818074033198286  0.354919920561656  0.016958121386259968  1.0000
  N   N3        1.0  0.31809048315291477  0.016958773893087198  0.3549220059075823  1.0000
  N   N4        1.0  0.18190705659131368  0.6450801939881786  0.9830341076779593  1.0000
  O   O1        1.0  0.39719660226662507  0.4034376637140795  0.8016316354996109  1.0000
  O   O2        1.0  0.10278837880270691  0.19835785571007847  0.596561831265099  1.0000
  O   O3        1.0  0.6028133284901926  0.5965559449427361  0.19837865121601791  1.0000
  O   O4        1.0  0.8972295427201828  0.8016397520649652  0.4034547518128024  1.0000
  O   O5        1.0  0.46831353537624665  0.3825071359338991  0.6025589305422443  1.0000
  O   O6        1.0  0.03165275550183111  0.39741732155477644  0.6174718336337507  1.0000
  O   O7        1.0  0.5317056161322  0.6175051341053646  0.39746344222633934  1.0000
  O   O8        1.0  0.9683293064396848  0.6025642536759648  0.3825131507928037  1.0000
  O   O9        1.0  0.7499954693899652  0.47314282391832313  0.526850125464762  1.0000
  O   O10       1.0  0.2500022894513663  0.526845798568587  0.47313450621408054  1.0000
