data_image0
_chemical_formula_structural       Zr6H39C50N10ClO32
_chemical_formula_sum              "Zr6 H39 C50 N10 Cl1 O32"
_cell_length_a       14.77499219324837
_cell_length_b       14.790354473178926
_cell_length_c       14.820802182579504
_cell_angle_alpha    60.195643252185675
_cell_angle_beta     59.95815635436544
_cell_angle_gamma    60.166840309192445

_space_group_name_H-M_alt    "P 1"
_space_group_IT_number       1

loop_
  _space_group_symop_operation_xyz
  'x, y, z'

loop_
  _atom_site_type_symbol
  _atom_site_label
  _atom_site_symmetry_multiplicity
  _atom_site_fract_x
  _atom_site_fract_y
  _atom_site_fract_z
  _atom_site_occupancy
  Zr  Zr1       1.0  0.8774399334794083  0.8863347427981413  0.6134169322454499  1.0000
  Zr  Zr2       1.0  0.12280936528676993  0.11545090735629057  0.38395650827343536  1.0000
  Zr  Zr3       1.0  0.11654700254314997  0.8790665624671874  0.6208724034640981  1.0000
  Zr  Zr4       1.0  0.8837248872928213  0.12405231560533972  0.37571560615507593  1.0000
  Zr  Zr5       1.0  0.11865311064477868  0.8817734448656297  0.3798241367396429  1.0000
  Zr  Zr6       1.0  0.8806552246147845  0.1201386177148649  0.6176789812763631  1.0000
  H   H1        1.0  0.0891538021503562  0.7196205383954251  0.5917696858915633  1.0000
  H   H2        1.0  0.10021817558804001  0.0930703127003767  0.21719829766815477  1.0000
  H   H3        1.0  0.09421041531383871  0.0902540300992811  0.5974473687478365  1.0000
  H   H4        1.0  0.7175213475636824  0.10009088833214713  0.587880487427718  1.0000
  H   H5        1.0  0.1400643130015807  0.5907432591768612  0.36189452475134243  1.0000
  H   H6        1.0  0.8600888034411369  0.4084199737834029  0.6407584551267574  1.0000
  H   H7        1.0  0.6000941199849238  0.13109019819676598  0.9156248202698903  1.0000
  H   H8        1.0  0.40833442521933677  0.8607384985405987  0.09003130875069609  1.0000
  H   H9        1.0  0.8590966317853841  0.14012372586225297  0.09096546635402815  1.0000
  H   H10       1.0  0.13523383924808013  0.8588640884839054  0.9103472802163067  1.0000
  H   H11       1.0  0.5946579392479449  0.41243051449595913  0.356090211659712  1.0000
  H   H12       1.0  0.4089986486984428  0.5929498013704945  0.637417480756639  1.0000
  H   H13       1.0  0.1329015646881972  0.6034744775284012  0.9119916944369849  1.0000
  H   H14       1.0  0.7381640738922853  0.6142660015017397  0.9755851255409171  1.0000
  H   H15       1.0  0.8277855224548601  0.5308836580381638  0.8878435315271458  1.0000
  H   H16       1.0  0.843499556147478  0.3598699590433441  0.05620231564497405  1.0000
  H   H17       1.0  0.753467704055417  0.4430588235535567  0.14362493682893537  1.0000
  H   H18       1.0  0.5957889691691989  0.8655871369613024  0.6340011899496575  1.0000
  H   H19       1.0  0.4062006501553767  0.13578493709191264  0.3607256628255797  1.0000
  H   H20       1.0  0.16884668479653434  0.35570089273810623  0.321664371254748  1.0000
  H   H21       1.0  0.21267124013122893  0.4659963690665948  0.26837823340360245  1.0000
  H   H22       1.0  0.8122490487149674  0.6632756452188461  0.660091331803386  1.0000
  H   H23       1.0  0.7596077061399527  0.5611394584325282  0.7053077099918567  1.0000
  H   H24       1.0  0.3605939280094077  0.16380997496384006  0.15817811537172594  1.0000
  H   H25       1.0  0.45781595024568833  0.22047280357712404  0.0458719033482922  1.0000
  H   H26       1.0  0.6516180872630314  0.8241500994678289  0.8500210394555409  1.0000
  H   H27       1.0  0.5478821672764552  0.7717645617517239  0.9590223273800761  1.0000
  H   H28       1.0  0.8123991915990558  0.16091648233604175  0.8632785454911626  1.0000
  H   H29       1.0  0.7583185975314989  0.20484589188463112  0.9739162021840712  1.0000
  H   H30       1.0  0.16302728543254816  0.8180085139818446  0.15758405206231169  1.0000
  H   H31       1.0  0.2068842719916333  0.7641553252070069  0.056502125661232624  1.0000
  H   H32       1.0  0.3589331583891634  0.6585834556322608  0.3164434882621308  1.0000
  H   H33       1.0  0.4692424695984484  0.5563850676126308  0.2631716917985329  1.0000
  H   H34       1.0  0.662161490178235  0.36480733912564034  0.6591764978628517  1.0000
  H   H35       1.0  0.5591891764800677  0.4740179982634844  0.7051373557926298  1.0000
  H   H36       1.0  0.362358957071862  0.8152541904148053  0.6692315567841972  1.0000
  H   H37       1.0  0.47266577990364317  0.7670171514208237  0.7126196665564706  1.0000
  H   H38       1.0  0.6538691818972566  0.17165489293257954  0.31102308552188157  1.0000
  H   H39       1.0  0.5498307446741818  0.21293668846714545  0.2618321657670961  1.0000
  C   C1        1.0  0.9919862250951962  0.7010671661755553  0.4966973473718496  1.0000
  C   C2        1.0  0.3124921887230696  0.9944044095206693  0.20169808358389232  1.0000
  C   C3        1.0  0.002505619903430972  0.3041622652136341  0.4990422576203031  1.0000
  C   C4        1.0  0.6947500578897204  0.9989237033172884  0.802985687133912  1.0000
  C   C5        1.0  0.9881530977271209  0.703879699605899  0.8058074237883944  1.0000
  C   C6        1.0  0.6980664025914223  0.0068502870131440415  0.48725377032013034  1.0000
  C   C7        1.0  0.005926356090796511  0.307039419886749  0.19991792000613634  1.0000
  C   C8        1.0  0.30777016813046  0.9905113120348475  0.5037548823238254  1.0000
  C   C9        1.0  0.3047795052697493  0.6961635641065912  0.49642687133842134  1.0000
  C   C10       1.0  0.9912295395212708  0.9977568004573886  0.8093445029106052  1.0000
  C   C11       1.0  0.7015432493483474  0.312119927201181  0.49439420470465484  1.0000
  C   C12       1.0  0.001355496002247202  0.9988817416706582  0.19411144692490723  1.0000
  C   C13       1.0  0.004939046861537027  0.4038135013901893  0.4974374763092015  1.0000
  C   C14       1.0  0.992803392020967  0.597727243713244  0.5025717810868288  1.0000
  C   C15       1.0  0.0880547547176248  0.4538393813619309  0.41633373917391475  1.0000
  C   C16       1.0  0.9112198548478999  0.5462072095975969  0.5852340530563183  1.0000
  C   C17       1.0  0.07832823470663189  0.5499974815576678  0.42223433654486103  1.0000
  C   C18       1.0  0.9205942698371029  0.45041448314668026  0.5791829557880207  1.0000
  C   C19       1.0  0.4131375378800396  0.9960248701636304  0.10196810401399167  1.0000
  C   C20       1.0  0.5972438897684638  0.993907079326448  0.9054228797352055  1.0000
  C   C21       1.0  0.4670910854889243  0.0751845413524635  0.05370313514794132  1.0000
  C   C22       1.0  0.5441622928421168  0.9138919549735293  0.9543768584806642  1.0000
  C   C23       1.0  0.5573015140872145  0.07140133600079684  0.9558086089031476  1.0000
  C   C24       1.0  0.45298209256161204  0.9184849111951225  0.051608066691947986  1.0000
  C   C25       1.0  0.9906659531913177  0.0017479943487545854  0.9077022737781629  1.0000
  C   C26       1.0  0.002458491613040784  0.9959300838392552  0.09502834861933003  1.0000
  C   C27       1.0  0.9096233230659366  0.08458721515887664  0.9579347108403412  1.0000
  C   C28       1.0  0.08365569029579918  0.9133682412386507  0.04450216692789181  1.0000
  C   C29       1.0  0.9191220738591354  0.07833883443829856  0.050343505044111087  1.0000
  C   C30       1.0  0.07446804458874792  0.9198761194769178  0.951739822193204  1.0000
  C   C31       1.0  0.40577407664205384  0.5970924524461195  0.49325538513014777  1.0000
  C   C32       1.0  0.5994639022158238  0.41011969047747243  0.4985758276365218  1.0000
  C   C33       1.0  0.4573734521581583  0.5464148520654677  0.410859305959555  1.0000
  C   C34       1.0  0.547132669702492  0.45999112099102046  0.5817440810648336  1.0000
  C   C35       1.0  0.5532357577593101  0.45403038040326044  0.41691544431827043  1.0000
  C   C36       1.0  0.4515198687320492  0.5524851318278581  0.5754950576223621  1.0000
  C   C37       1.0  0.9888532945584885  0.6052045367794746  0.9076078392051985  1.0000
  C   C38       1.0  0.0045544019581527356  0.40888455961545134  0.10103654659617693  1.0000
  C   C39       1.0  0.9138328753880886  0.548645784119387  0.9617513460314768  1.0000
  C   C40       1.0  0.08091912389331672  0.4671046067567063  0.044777808464331804  1.0000
  C   C41       1.0  0.9223460021100107  0.4544378350301912  0.05477348657476003  1.0000
  C   C42       1.0  0.07236272219661537  0.561827713580101  0.9522660510703388  1.0000
  C   C43       1.0  0.8140845542146093  0.5437595326901318  0.9612749436652875  1.0000
  C   C44       1.0  0.8235419812952501  0.4369373073385178  0.06671874373394367  1.0000
  C   C45       1.0  0.4067362340809664  0.9922793064823668  0.5042476164148724  1.0000
  C   C46       1.0  0.5967172886012903  0.007652038520845408  0.48902520006040356  1.0000
  C   C47       1.0  0.4588744515105106  0.9133082827311867  0.585349587902357  1.0000
  C   C48       1.0  0.5430250983739241  0.08811723451856329  0.40951560583751245  1.0000
  C   C49       1.0  0.553142586364359  0.9240504354437178  0.5740510528838244  1.0000
  C   C50       1.0  0.4493758906027806  0.07667074883956813  0.4201115467070481  1.0000
  N   N1        1.0  0.17728453401850422  0.4110827516625833  0.3359027760916433  1.0000
  N   N2        1.0  0.8270125999869151  0.5840866854920538  0.6716123894731538  1.0000
  N   N3        1.0  0.4373855530424891  0.15149829670932047  0.10021831227589223  1.0000
  N   N4        1.0  0.5753087956230873  0.8369848577940998  0.9084062848267537  1.0000
  N   N5        1.0  0.826113525051518  0.17096103538228416  0.9178947790157397  1.0000
  N   N6        1.0  0.17107946587442754  0.8311527291494017  0.0802468518998723  1.0000
  N   N7        1.0  0.41567424596544816  0.5816099277891169  0.3294788261564747  1.0000
  N   N8        1.0  0.5839018075084963  0.4195094931120876  0.6684098887142014  1.0000
  N   N9        1.0  0.4187842477882097  0.8311512129481857  0.6742226500045447  1.0000
  N   N10       1.0  0.576681544991672  0.1765487025521751  0.32661554050501  1.0000
  Cl  Cl1       1.0  0.19289496725569683  0.4251042812484087  0.08363367023054025  1.0000
  O   O1        1.0  0.9137683953239911  0.7451013081633991  0.5710810236077748  1.0000
  O   O2        1.0  0.27068119759594117  0.07074550247252633  0.2436355579082559  1.0000
  O   O3        1.0  0.07954489595966399  0.2614557958764153  0.42343198113336905  1.0000
  O   O4        1.0  0.7349459767059653  0.9246275264684986  0.7588067899707908  1.0000
  O   O5        1.0  0.06665765680913426  0.7419806613407475  0.764986573626409  1.0000
  O   O6        1.0  0.7402128083724407  0.08306794651596053  0.41085188904872183  1.0000
  O   O7        1.0  0.9283724908514727  0.26910164414911714  0.23603197669113027  1.0000
  O   O8        1.0  0.2661200916827298  0.9138213125102794  0.5798216045764448  1.0000
  O   O9        1.0  0.26311409161758065  0.738252080773279  0.42001970070454325  1.0000
  O   O10       1.0  0.9148045184215902  0.07360842019699719  0.7676413284280413  1.0000
  O   O11       1.0  0.7430389984585305  0.2699447194366727  0.5709273426965353  1.0000
  O   O12       1.0  0.07659498093854467  0.9217284562364441  0.23695405086356658  1.0000
  O   O13       1.0  0.06766981313575113  0.9206849442716489  0.7698683253250493  1.0000
  O   O14       1.0  0.7427174447322072  0.2733560895013197  0.41648726706484496  1.0000
  O   O15       1.0  0.9269108024907382  0.07786077708645692  0.23184441105516382  1.0000
  O   O16       1.0  0.263277259247836  0.7345944127415863  0.5747006667528679  1.0000
  O   O17       1.0  0.9123077145705808  0.7411968090953781  0.7662614292060254  1.0000
  O   O18       1.0  0.26748605612507953  0.06675013534238157  0.4275776784758278  1.0000
  O   O19       1.0  0.08197593076452137  0.2644668449418362  0.24058287443605053  1.0000
  O   O20       1.0  0.7385035537976137  0.9300842157926612  0.5632649153608045  1.0000
  O   O21       1.0  0.7342256005344652  0.07613358806203499  0.7629699888882798  1.0000
  O   O22       1.0  0.06876291712169541  0.740991811471453  0.4196419835751968  1.0000
  O   O23       1.0  0.2704733174846153  0.9195611459278726  0.23980236478565345  1.0000
  O   O24       1.0  0.9248469156140116  0.26492124432328296  0.5752061514679312  1.0000
  O   O25       1.0  0.7978781361763225  0.07280647692491733  0.5615291573702238  1.0000
  O   O26       1.0  0.0672069610858088  0.06424746810011328  0.570113715611825  1.0000
  O   O27       1.0  0.07113610006810231  0.06760040256278906  0.29723963805528797  1.0000
  O   O28       1.0  0.06302765662378117  0.7996814047150734  0.5659931913992295  1.0000
  O   O29       1.0  0.1487240383023189  0.9480541574682066  0.45221356153105335  1.0000
  O   O30       1.0  0.9501924935472632  0.954989052049264  0.445946788884257  1.0000
  O   O31       1.0  0.9532932688552834  0.14897456054194444  0.4493095360162657  1.0000
  O   O32       1.0  0.9477772829840633  0.9518426090240552  0.6467958180446091  1.0000
