data_image0
_chemical_formula_structural       Ho4H28C56N8O32
_chemical_formula_sum              "Ho4 H28 C56 N8 O32"
_cell_length_a       8.366673621009152
_cell_length_b       12.218270229071933
_cell_length_c       13.396154702628758
_cell_angle_alpha    102.41157938325051
_cell_angle_beta     90.00015921983778
_cell_angle_gamma    90.0000223777854

_space_group_name_H-M_alt    "P 1"
_space_group_IT_number       1

loop_
  _space_group_symop_operation_xyz
  'x, y, z'

loop_
  _atom_site_type_symbol
  _atom_site_label
  _atom_site_symmetry_multiplicity
  _atom_site_fract_x
  _atom_site_fract_y
  _atom_site_fract_z
  _atom_site_occupancy
  Ho  Ho1       1.0  0.7302393852055645  0.8023001210735002  0.681558045549579  1.0000
  Ho  Ho2       1.0  0.7697593561034353  0.8023010259861605  0.1815586760218437  1.0000
  Ho  Ho3       1.0  0.2697591061895536  0.19769914094484875  0.3184417977114578  1.0000
  Ho  Ho4       1.0  0.23023913529228682  0.1976990740641966  0.8184413309851095  1.0000
  H   H1        1.0  0.4031367754423626  0.662186538780162  0.6578591618610758  1.0000
  H   H2        1.0  0.09686340826097249  0.6621864825835644  0.157858557748753  1.0000
  H   H3        1.0  0.5968653016149973  0.33781440171538435  0.3421439952986773  1.0000
  H   H4        1.0  0.9031338879188836  0.3378144561013554  0.8421423596038765  1.0000
  H   H5        1.0  0.7106315044611834  0.3374264524855801  0.5941996641004791  1.0000
  H   H6        1.0  0.7893677774218234  0.3374265326530121  0.09419942099763999  1.0000
  H   H7        1.0  0.2893681821526711  0.6625736475652033  0.40580034290759665  1.0000
  H   H8        1.0  0.21063190919036856  0.6625735667947907  0.9057998394095534  1.0000
  H   H9        1.0  0.010638847340295902  0.30747260896604434  0.5927221568020897  1.0000
  H   H10       1.0  0.4893584531751712  0.3074736682299672  0.092721705894057  1.0000
  H   H11       1.0  0.9893620344916838  0.6925274910851656  0.4072778502071017  1.0000
  H   H12       1.0  0.5106412334353578  0.692526430614862  0.907276807912254  1.0000
  H   H13       1.0  0.1893850341383612  0.4759175185381039  0.6251083172833489  1.0000
  H   H14       1.0  0.31061250684384584  0.4759201284542199  0.1251093518615889  1.0000
  H   H15       1.0  0.810614652476545  0.5240817440836452  0.3748922725796858  1.0000
  H   H16       1.0  0.6893871797706054  0.5240808096285718  0.8748908188924032  1.0000
  H   H17       1.0  0.4073863029584927  0.8427296126571805  0.3341314829092354  1.0000
  H   H18       1.0  0.09261715845930499  0.8427294494937952  0.8341322512935534  1.0000
  H   H19       1.0  0.5926157740910155  0.15726964936244056  0.6658683603551623  1.0000
  H   H20       1.0  0.9073849185902034  0.15726981252581854  0.16586759197084433  1.0000
  H   H21       1.0  0.1510684037500525  0.9159224715495995  0.4211453369675482  1.0000
  H   H22       1.0  0.3489330961036643  0.9159233285876025  0.9211474963766901  1.0000
  H   H23       1.0  0.8489324780790567  0.08407595183460612  0.5788535959489352  1.0000
  H   H24       1.0  0.6510689809468957  0.0840750960029837  0.07885292974267338  1.0000
  H   H25       1.0  0.14508558497369253  0.9718582856450553  0.6132544708259005  1.0000
  H   H26       1.0  0.3549145776639405  0.9718575772262313  0.11325791990240935  1.0000
  H   H27       1.0  0.8549141016356288  0.02814013713575039  0.3867437154885778  1.0000
  H   H28       1.0  0.6450863041695528  0.028140009934894298  0.8867430890707979  1.0000
  C   C1        1.0  0.5602923211983253  0.5385894815605639  0.628568967692388  1.0000
  C   C2        1.0  0.9397072286974719  0.5385896676203998  0.12856825992404453  1.0000
  C   C3        1.0  0.43970975585797584  0.4614122963640171  0.3714336066124062  1.0000
  C   C4        1.0  0.060288872267122394  0.4614129477310911  0.8714337315201774  1.0000
  C   C5        1.0  0.7357037190216998  0.5165807041834398  0.6268329196785203  1.0000
  C   C6        1.0  0.7642958105565255  0.5165816052256247  0.1268335399041121  1.0000
  C   C7        1.0  0.26429596759215457  0.4834193958673436  0.3731670873295555  1.0000
  C   C8        1.0  0.23570387605732177  0.4834184948251591  0.8731664671039637  1.0000
  C   C9        1.0  0.7941844739189747  0.4072297198733351  0.6080859197619972  1.0000
  C   C10       1.0  0.7058113240262145  0.40722890282137303  0.10808535622083332  1.0000
  C   C11       1.0  0.20581521269548378  0.5927712182094566  0.39191425099199506  1.0000
  C   C12       1.0  0.2941859721497194  0.5927711966255842  0.8919139041841149  1.0000
  C   C13       1.0  0.9590313440839112  0.3912182847357357  0.6080031851933185  1.0000
  C   C14       1.0  0.5409668347650437  0.39121902757956667  0.1080033866053185  1.0000
  C   C15       1.0  0.0409707329661941  0.6087818153158934  0.3919968218170026  1.0000
  C   C16       1.0  0.4590328518494076  0.6087819105032253  0.8919967841486737  1.0000
  C   C17       1.0  0.059593910903458905  0.48466147975759094  0.6257559643777454  1.0000
  C   C18       1.0  0.4404060284022222  0.4846625061532349  0.1257576614680787  1.0000
  C   C19       1.0  0.9404081661443869  0.5153377816590492  0.3742431322857697  1.0000
  C   C20       1.0  0.5595936582128402  0.5153392699615651  0.87424267303183  1.0000
  C   C21       1.0  0.9909963944751748  0.5914188794815871  0.6437171235278427  1.0000
  C   C22       1.0  0.5090032530371005  0.5914187628568968  0.143718594452146  1.0000
  C   C23       1.0  0.009004487354083303  0.4085820573956767  0.35628155402550726  1.0000
  C   C24       1.0  0.4909952383563621  0.4085804985584715  0.8562805022080084  1.0000
  C   C25       1.0  0.08707570868067899  0.6990006568703608  0.6644131332902745  1.0000
  C   C26       1.0  0.41292333003242027  0.6990033392595406  0.1644143597333567  1.0000
  C   C27       1.0  0.9129239779309087  0.3009986045454339  0.3355859633710025  1.0000
  C   C28       1.0  0.5870739661424479  0.3009975976164511  0.8355843178166324  1.0000
  C   C29       1.0  0.6847966456246156  0.7921334169540587  0.4371929277737863  1.0000
  C   C30       1.0  0.8152044219312556  0.7921317347979551  0.9371930394915324  1.0000
  C   C31       1.0  0.31520184577110644  0.20786668309629874  0.562807079233167  1.0000
  C   C32       1.0  0.1847964599007241  0.20786836525324762  0.062806967517659  1.0000
  C   C33       1.0  0.5256869203623467  0.8414206180602406  0.477010211578218  1.0000
  C   C34       1.0  0.9743119620511538  0.8414190492143947  0.9770113682775586  1.0000
  C   C35       1.0  0.4743115710333754  0.15857948199011668  0.5229897954287352  1.0000
  C   C36       1.0  0.025688919782489  0.15858105143978918  0.0229893853325223  1.0000
  C   C37       1.0  0.3969295292701318  0.8610368580451322  0.4171015412055041  1.0000
  C   C38       1.0  0.10307192117533498  0.8610358648592322  0.917102912052762  1.0000
  C   C39       1.0  0.6030701573420599  0.1389632414026707  0.5828977192016893  1.0000
  C   C40       1.0  0.8969289606577036  0.13896339776293587  0.0828976778113955  1.0000
  C   C41       1.0  0.25555446919670294  0.9042549940656954  0.4660538600193647  1.0000
  C   C42       1.0  0.24444722369239708  0.9042532635962529  0.9660560788462788  1.0000
  C   C43       1.0  0.7444464126330104  0.09574426735051841  0.533945236643028  1.0000
  C   C44       1.0  0.7555536581417003  0.09574516159688778  0.033945093872837596  1.0000
  C   C45       1.0  0.2505479452434188  0.9341432152832995  0.5722957885137632  1.0000
  C   C46       1.0  0.24945440408478703  0.9341407554922226  0.07229796572319458  1.0000
  C   C47       1.0  0.7494517413681692  0.06585604613249528  0.42770330814751395  1.0000
  C   C48       1.0  0.7505488681866197  0.0658568322727362  0.9277037898531333  1.0000
  C   C49       1.0  0.3859148789943986  0.9136180384795622  0.6262050429735453  1.0000
  C   C50       1.0  0.11408650310379191  0.913614643560727  0.12620530937712715  1.0000
  C   C51       1.0  0.614086002833659  0.08638122233367798  0.373793307087972  1.0000
  C   C52       1.0  0.8859143787296943  0.0863829436003982  0.87379569959608  1.0000
  C   C53       1.0  0.4005601492044235  0.943376957934099  0.7404098390767189  1.0000
  C   C54       1.0  0.09944056260357569  0.9433752293077975  0.24041115210771122  1.0000
  C   C55       1.0  0.5994407326252967  0.05662230348212199  0.25958925758568085  1.0000
  C   C56       1.0  0.9005579287915422  0.05662403271054469  0.7595886911533256  1.0000
  N   N1        1.0  0.831845935501576  0.6065805118862145  0.6446214142966014  1.0000
  N   N2        1.0  0.6681537247109901  0.6065821828564991  0.14462201797014268  1.0000
  N   N3        1.0  0.16815494633206637  0.3934195887679692  0.3553793393134725  1.0000
  N   N4        1.0  0.33184596190180565  0.3934187546233118  0.8553774061829741  1.0000
  N   N5        1.0  0.5171664450251257  0.8648816670404145  0.5795456061405204  1.0000
  N   N6        1.0  0.9828366593131006  0.8648785315224146  0.07954432426696202  1.0000
  N   N7        1.0  0.48283443680851695  0.1351184336137692  0.4204551474695535  1.0000
  N   N8        1.0  0.017166612953929  0.13511989246561737  0.9204553552526419  1.0000
  O   O1        1.0  0.5262262985367413  0.6493664166113716  0.6523011858737533  1.0000
  O   O2        1.0  0.973771029883885  0.6493674642306998  0.15229995913329464  1.0000
  O   O3        1.0  0.4737757785206114  0.3506345238841745  0.347701971286007  1.0000
  O   O4        1.0  0.026223875859706397  0.35063347445337456  0.8477009582170963  1.0000
  O   O5        1.0  0.4589784017303842  0.46478420565173917  0.6113313358842234  1.0000
  O   O6        1.0  0.0410202668207162  0.4647857847563229  0.11132946133924548  1.0000
  O   O7        1.0  0.5410212848907109  0.5352167348429617  0.3886718212732916  1.0000
  O   O8        1.0  0.9589782245790843  0.5352176680250479  0.8886719472522557  1.0000
  O   O9        1.0  0.0065574956812426  0.789188875743555  0.6738351289489655  1.0000
  O   O10       1.0  0.49344283178574244  0.7891924532016288  0.17383667013715604  1.0000
  O   O11       1.0  0.993442190930793  0.2108087102111966  0.326164386821354  1.0000
  O   O12       1.0  0.5065544643901845  0.21080764624532827  0.8261625902677991  1.0000
  O   O13       1.0  0.23641704015599882  0.6955709159501849  0.6744536532552131  1.0000
  O   O14       1.0  0.26358204124189644  0.6955718158839375  0.1744535255417929  1.0000
  O   O15       1.0  0.7635838416744747  0.3044316969910952  0.3255453517899766  1.0000
  O   O16       1.0  0.7364164501449225  0.30442744311952197  0.8255425847148459  1.0000
  O   O17       1.0  0.7778588614447203  0.7672499597392245  0.5041575457546656  1.0000
  O   O18       1.0  0.7221450469537345  0.767246640158632  0.004156521599213657  1.0000
  O   O19       1.0  0.22214082517245262  0.23275014151751347  0.4958439544551752  1.0000
  O   O20       1.0  0.27785583487703747  0.23275178382855438  0.9958431579181451  1.0000
  O   O21       1.0  0.7170732984017291  0.7795174318725413  0.34310454458820766  1.0000
  O   O22       1.0  0.7829237578504831  0.7795140513902723  0.8431050148819565  1.0000
  O   O23       1.0  0.28292638821152133  0.22048183014622683  0.6568952986739519  1.0000
  O   O24       1.0  0.2170759287638191  0.2204843731994686  0.15689541123516193  1.0000
  O   O25       1.0  0.5076900139929917  0.8925601380277114  0.7799418825293926  1.0000
  O   O26       1.0  0.9923128021765565  0.8925603631593686  0.2799435132132828  1.0000
  O   O27       1.0  0.4923108678311364  0.10743828354756596  0.22005481058445034  1.0000
  O   O28       1.0  0.0076844940045078  0.1074422515895748  0.7200577316311865  1.0000
  O   O29       1.0  0.308249712649463  0.018345403464245198  0.7899144202406488  1.0000
  O   O30       1.0  0.19174949450543008  0.018342064163043393  0.2899155788906498  1.0000
  O   O31       1.0  0.6917487787452002  0.9816555340151464  0.21008500391134524  1.0000
  O   O32       1.0  0.808246606454027  0.981658035886468  0.710084428114058  1.0000
