data_image0
_chemical_formula_structural       Cd2H20C28S4N24
_chemical_formula_sum              "Cd2 H20 C28 S4 N24"
_cell_length_a       7.08979431613415
_cell_length_b       10.785068426038665
_cell_length_c       12.419619694405288
_cell_angle_alpha    89.9997027641692
_cell_angle_beta     105.64143791121002
_cell_angle_gamma    90.00000251796097

_space_group_name_H-M_alt    "P 1"
_space_group_IT_number       1

loop_
  _space_group_symop_operation_xyz
  'x, y, z'

loop_
  _atom_site_type_symbol
  _atom_site_label
  _atom_site_symmetry_multiplicity
  _atom_site_fract_x
  _atom_site_fract_y
  _atom_site_fract_z
  _atom_site_occupancy
  Cd  Cd1       1.0  0.9999999517964825  3.708824102899999e-06  2.4079602241083497e-06  1.0000
  Cd  Cd2       1.0  0.49999758307179576  0.5000003282833417  0.9999981669635716  1.0000
  H   H1        1.0  0.025434089059366703  0.3128251118644555  0.9160003035894491  1.0000
  H   H2        1.0  0.4745715241418793  0.8128291050594497  0.08399856092356121  1.0000
  H   H3        1.0  0.9745712223237675  0.6871757771409361  0.084000272143861  1.0000
  H   H4        1.0  0.5254235348197512  0.18717085674255424  0.9160003750211134  1.0000
  H   H5        1.0  0.9322692292528386  0.3835282202820378  0.6886722391091169  1.0000
  H   H6        1.0  0.567728088062573  0.8835335854368862  0.31132311241797345  1.0000
  H   H7        1.0  0.0677302718055159  0.6164698871096375  0.31132499163837224  1.0000
  H   H8        1.0  0.43226994835958266  0.11646823078679346  0.688673884064727  1.0000
  H   H9        1.0  0.8941791636446081  0.31815279620037973  0.3318953772959148  1.0000
  H   H10       1.0  0.605812385868866  0.818149523868236  0.6681025635523099  1.0000
  H   H11       1.0  0.1058217217114787  0.6818471655942487  0.6681061009849003  1.0000
  H   H12       1.0  0.39418122453503196  0.18184394748194416  0.33189533549580125  1.0000
  H   H13       1.0  0.7633170036965493  0.11306580119373418  0.24595235670604154  1.0000
  H   H14       1.0  0.7366823872900811  0.6130648050497242  0.7540461404686384  1.0000
  H   H15       1.0  0.23668682698951216  0.8869341606020451  0.7540487874300582  1.0000
  H   H16       1.0  0.26331115884722317  0.3869295934986139  0.24595496920280627  1.0000
  H   H17       1.0  0.7393053664635545  0.9850778709638487  0.5580919378005903  1.0000
  H   H18       1.0  0.7606902133534772  0.48508139445129217  0.44190429440441653  1.0000
  H   H19       1.0  0.2606911410646049  0.014921163627263898  0.44190803505856024  1.0000
  H   H20       1.0  0.23931075233667795  0.514916712939751  0.558093170598916  1.0000
  C   C1        1.0  0.9921527719976521  0.2575007489876383  0.8404138698392531  1.0000
  C   C2        1.0  0.5078506865445149  0.7575042414476978  0.15958382995903972  1.0000
  C   C3        1.0  0.0078540522164019  0.7425001400243828  0.1595845321807161  1.0000
  C   C4        1.0  0.4921487823788908  0.24249572035482456  0.8404150060967627  1.0000
  C   C5        1.0  0.9518085015487543  0.29380126568742065  0.7303598618248658  1.0000
  C   C6        1.0  0.5481934223695077  0.7938078074583145  0.2696366257585581  1.0000
  C   C7        1.0  0.048195361272249194  0.7061968416975188  0.2696396770029282  1.0000
  C   C8        1.0  0.45180754331624934  0.2061940087640863  0.7303608392358146  1.0000
  C   C9        1.0  0.8696723890721073  0.1674372705032141  0.5547623429983873  1.0000
  C   C10       1.0  0.6303283537107092  0.6674427616780747  0.4452353232001372  1.0000
  C   C11       1.0  0.13032997698545049  0.8325599096696761  0.44523856688859104  1.0000
  C   C12       1.0  0.3696682020165695  0.33255627292029993  0.5547622416898363  1.0000
  C   C13       1.0  0.8667621700906594  0.24190370245619164  0.38355093781751043  1.0000
  C   C14       1.0  0.6332324894406582  0.7419035257815098  0.6164478397419587  1.0000
  C   C15       1.0  0.13324019596579723  0.7580944049245416  0.6164499720672297  1.0000
  C   C16       1.0  0.36676256952756603  0.258090872773458  0.3835510962161451  1.0000
  C   C17       1.0  0.7898572418251886  0.12948916545207106  0.3353643651426665  1.0000
  C   C18       1.0  0.7101391809635871  0.6294887057342962  0.6646335842105844  1.0000
  C   C19       1.0  0.21014512423017348  0.8705098691364981  0.6646365447398354  1.0000
  C   C20       1.0  0.2898529487399344  0.3705066200297792  0.33536488323360913  1.0000
  C   C21       1.0  0.7807836611945973  0.05704126217293748  0.5073106648873065  1.0000
  C   C22       1.0  0.7192158625988723  0.5570455486787721  0.49268810281724035  1.0000
  C   C23       1.0  0.21921724022896427  0.9429577724162709  0.4926900107393522  1.0000
  C   C24       1.0  0.280780677062026  0.4429534859171724  0.5073102647291209  1.0000
  C   C25       1.0  0.8733681386068638  0.27811298245464394  0.08949126543486595  1.0000
  C   C26       1.0  0.6266394882399098  0.7781138141051472  0.9105158668211646  1.0000
  C   C27       1.0  0.1266341953113539  0.721889760960451  0.9105112497514656  1.0000
  C   C28       1.0  0.3733613810410147  0.2218935653497738  0.0894864140981326  1.0000
  S   S1        1.0  0.872058549871994  0.42696686239976583  0.1115983169858907  1.0000
  S   S2        1.0  0.6279442338077318  0.9269650458074207  0.8884122096316533  1.0000
  S   S3        1.0  0.1279437679809519  0.573034953805063  0.8884050008590663  1.0000
  S   S4        1.0  0.3720595326051424  0.07304140643355339  0.11159214511434362  1.0000
  N   N1        1.0  0.9825284658607032  0.13085156809349024  0.8427833902044671  1.0000
  N   N2        1.0  0.5174737961544551  0.6308550757611896  0.1572162922399017  1.0000
  N   N3        1.0  0.017473900192463494  0.8691493209107577  0.15721751967355863  1.0000
  N   N4        1.0  0.4825286020325521  0.3691448860400611  0.8427830123275728  1.0000
  N   N5        1.0  0.9376887586831798  0.085656053327547  0.7411418190026637  1.0000
  N   N6        1.0  0.5623121458424619  0.5856589526168816  0.2588578474365734  1.0000
  N   N7        1.0  0.062315055937609984  0.9143429812579597  0.25886012779206174  1.0000
  N   N8        1.0  0.437691733042719  0.4143410091861526  0.7411408887303497  1.0000
  N   N9        1.0  0.9188660120094454  0.18496485622794265  0.6720984897606572  1.0000
  N   N10       1.0  0.5811332406569037  0.6849701227652075  0.3278980548854307  1.0000
  N   N11       1.0  0.08113783474519208  0.815033251154574  0.32790185172352443  1.0000
  N   N12       1.0  0.41886775716159963  0.3150316934620391  0.6720978047961667  1.0000
  N   N13       1.0  0.9093283335663854  0.26074886976903133  0.49439501877644443  1.0000
  N   N14       1.0  0.5906692266149276  0.760753065999239  0.5056033336243929  1.0000
  N   N15       1.0  0.090674032490071  0.7392492376116947  0.5056058911082957  1.0000
  N   N16       1.0  0.4093272969818003  0.23924411417861072  0.4943958365828324  1.0000
  N   N17       1.0  0.7434954091660942  0.038330537171134396  0.3974886972203962  1.0000
  N   N18       1.0  0.7565026943546442  0.5383323108410777  0.6025099265885103  1.0000
  N   N19       1.0  0.2565069408239964  0.961667570207176  0.6025130153207315  1.0000
  N   N20       1.0  0.243492396741928  0.4616657965500862  0.3974874040478582  1.0000
  N   N21       1.0  0.8777546051572286  0.16956573058207877  0.0753769264671575  1.0000
  N   N22       1.0  0.6222518786458335  0.6695683311498755  0.9246272850781024  1.0000
  N   N23       1.0  0.12224771269571727  0.8304360856227503  0.9246263913777997  1.0000
  N   N24       1.0  0.3777446128038591  0.3304409027250513  0.07537349041280812  1.0000
