data_image0
_chemical_formula_structural       Cd4H48C72N24O16
_chemical_formula_sum              "Cd4 H48 C72 N24 O16"
_cell_length_a       8.357117316001581
_cell_length_b       17.70730339200839
_cell_length_c       19.159763395006177
_cell_angle_alpha    89.99991065494918
_cell_angle_beta     90.00002586147279
_cell_angle_gamma    90.00006550366615

_space_group_name_H-M_alt    "P 1"
_space_group_IT_number       1

loop_
  _space_group_symop_operation_xyz
  'x, y, z'

loop_
  _atom_site_type_symbol
  _atom_site_label
  _atom_site_symmetry_multiplicity
  _atom_site_fract_x
  _atom_site_fract_y
  _atom_site_fract_z
  _atom_site_occupancy
  Cd  Cd1       1.0  0.4803703063441703  0.08593131322736981  0.0315619606899276  1.0000
  Cd  Cd2       1.0  0.5196325442956821  0.5859304471798766  0.968437991853996  1.0000
  Cd  Cd3       1.0  0.5196293193041869  0.0859326013093309  0.5315629197839302  1.0000
  Cd  Cd4       1.0  0.48036635183214577  0.5859331122657708  0.4684385985377517  1.0000
  H   H1        1.0  0.6453546613287243  0.08333907574790798  0.8666766755934533  1.0000
  H   H2        1.0  0.3546445932914324  0.583337253652971  0.1333253684399764  1.0000
  H   H3        1.0  0.3546429140683784  0.08334054336844332  0.36667464806196653  1.0000
  H   H4        1.0  0.6453575371400433  0.5833397392060321  0.6333247863331338  1.0000
  H   H5        1.0  0.15879579595626583  0.11028823633259321  0.914628661909802  1.0000
  H   H6        1.0  0.8412023272134732  0.6102890162578164  0.0853712551085408  1.0000
  H   H7        1.0  0.8412006979558272  0.1102905318177676  0.4146288172150747  1.0000
  H   H8        1.0  0.15879862180449322  0.6102912386823576  0.5853716217272051  1.0000
  H   H9        1.0  0.9853103375510343  0.0430535543611867  0.8380302466643244  1.0000
  H   H10       1.0  0.014687623121922401  0.543053759621799  0.16197133419573362  1.0000
  H   H11       1.0  0.014689503797143302  0.04305032022533341  0.3380297184517715  1.0000
  H   H12       1.0  0.985310850042794  0.5430558642830191  0.6619692527737868  1.0000
  H   H13       1.0  0.7677280879102141  0.043788860690902695  0.7476413215976834  1.0000
  H   H14       1.0  0.2322722677111884  0.543791291897989  0.2523581704801146  1.0000
  H   H15       1.0  0.23227644737722392  0.043790262131501806  0.24764292363101253  1.0000
  H   H16       1.0  0.767727498000646  0.5437910199349503  0.7523576123005427  1.0000
  H   H17       1.0  0.0991997390368127  0.1254443800039695  0.5948517316276707  1.0000
  H   H18       1.0  0.9008032071061224  0.625448047525275  0.40514816328420983  1.0000
  H   H19       1.0  0.900809620740823  0.12545009615285352  0.0948534643649097  1.0000
  H   H20       1.0  0.0991993083278757  0.6254417666357953  0.9051506059648773  1.0000
  H   H21       1.0  0.3187982364098261  0.12678618367208833  0.6847490000359997  1.0000
  H   H22       1.0  0.6812035163878392  0.6267870586002857  0.31525089292082253  1.0000
  H   H23       1.0  0.681206433937291  0.12678782789243573  0.1847491240598416  1.0000
  H   H24       1.0  0.31879890861328875  0.6267831554242489  0.8152528566074225  1.0000
  H   H25       1.0  0.4103990678081361  0.25600114992806067  0.131073497101994  1.0000
  H   H26       1.0  0.5896006041093429  0.755998228651187  0.8689251635466064  1.0000
  H   H27       1.0  0.5895843203787906  0.2560007816237828  0.6310812549284394  1.0000
  H   H28       1.0  0.4103985993594605  0.75600198537591  0.3689262784769838  1.0000
  H   H29       1.0  0.7999088392378582  0.19782762545990812  0.0031591587502291  1.0000
  H   H30       1.0  0.20009428184110334  0.697828233477864  0.9968395867406556  1.0000
  H   H31       1.0  0.200086240912384  0.1978287407379682  0.5031579676612381  1.0000
  H   H32       1.0  0.7999108972439473  0.6978282476752115  0.49684129975535285  1.0000
  H   H33       1.0  0.7136796594242371  0.44284681159959394  0.0384798671083146  1.0000
  H   H34       1.0  0.2863264470014073  0.9428463956515715  0.9615200868110492  1.0000
  H   H35       1.0  0.2863160497035154  0.44284458507721086  0.5384792148079356  1.0000
  H   H36       1.0  0.7136828772102818  0.9428474926967355  0.4615181294759836  1.0000
  H   H37       1.0  0.9408178825778037  0.5319282186020968  0.0105076626417713  1.0000
  H   H38       1.0  0.0591908204697162  0.03192895422792932  0.989491324809393  1.0000
  H   H39       1.0  0.05918279904165761  0.5319269987231722  0.5105074878595773  1.0000
  H   H40       1.0  0.940816331325273  0.0319296093672747  0.4894894118826087  1.0000
  H   H41       1.0  0.27544948255851415  0.3491943858426155  0.0261504083658792  1.0000
  H   H42       1.0  0.7245552009380277  0.8491958805518964  0.97384655057882  1.0000
  H   H43       1.0  0.7245435942157955  0.3491986084367512  0.5261508855948591  1.0000
  H   H44       1.0  0.275446730269323  0.8491961758615293  0.47384868298070876  1.0000
  H   H45       1.0  0.052968367373644305  0.25958325459838966  0.05481103553641021  1.0000
  H   H46       1.0  0.9470349029608442  0.7595849174003035  0.9451865760305723  1.0000
  H   H47       1.0  0.9470173431768459  0.2595864680290204  0.5548120781906647  1.0000
  H   H48       1.0  0.0529703715590415  0.7595845276573671  0.4451876210811889  1.0000
  C   C1        1.0  0.5166380307507055  0.08773892548611431  0.860545582002203  1.0000
  C   C2        1.0  0.4833612345034837  0.5877377275194322  0.1394554117594851  1.0000
  C   C3        1.0  0.4833607454785707  0.08774159219269252  0.3605446234900712  1.0000
  C   C4        1.0  0.5166409129509191  0.5877401434629236  0.6394553264139163  1.0000
  C   C5        1.0  0.27032346132120477  0.10069281366313731  0.8871455638054256  1.0000
  C   C6        1.0  0.7296746386541814  0.6006906637670257  0.1128543672097209  1.0000
  C   C7        1.0  0.7296765705159063  0.10069391935879682  0.3871451753795938  1.0000
  C   C8        1.0  0.2703251192181355  0.600692946504708  0.6128547556334354  1.0000
  C   C9        1.0  0.16190920594094393  0.08829969360652261  0.7663872860436527  1.0000
  C   C10       1.0  0.8380900606696785  0.5882996599913995  0.23361318497220654  1.0000
  C   C11       1.0  0.8380942598688179  0.08829972845495603  0.2663874407425482  1.0000
  C   C12       1.0  0.16191218624956602  0.5882984956674591  0.7336130302748387  1.0000
  C   C13       1.0  0.00877743586517  0.06356972750848663  0.7853165416526195  1.0000
  C   C14       1.0  0.9912193778058906  0.563568678782481  0.2146844873588449  1.0000
  C   C15       1.0  0.9912224001415595  0.06356702147541433  0.2853162043654294  1.0000
  C   C16       1.0  0.008780396451591302  0.5635702553410199  0.7146832588661027  1.0000
  C   C17       1.0  0.8880459087448429  0.0633966322287804  0.7352163222019925  1.0000
  C   C18       1.0  0.1119544942654471  0.5633989776567888  0.26478261935135095  1.0000
  C   C19       1.0  0.1119586609856498  0.0633979686014072  0.23521894456578707  1.0000
  C   C20       1.0  0.8880465283660895  0.5633982060220146  0.7647826066231788  1.0000
  C   C21       1.0  0.9199552309143115  0.08774710221481291  0.6669868637526406  1.0000
  C   C22       1.0  0.0800452309506667  0.5877521403423601  0.3330115203571253  1.0000
  C   C23       1.0  0.0800517197491715  0.08775293924111342  0.16699000180178566  1.0000
  C   C24       1.0  0.9199547250452511  0.5877485622686719  0.8330130796509394  1.0000
  C   C25       1.0  0.07525249552713122  0.10979259475064398  0.6487475001997964  1.0000
  C   C26       1.0  0.92474921620083  0.6097946708499505  0.3512524175408346  1.0000
  C   C27       1.0  0.9247568825805389  0.1097977591108901  0.1487497595465683  1.0000
  C   C28       1.0  0.0752508120760567  0.6097917654436246  0.8512532897556825  1.0000
  C   C29       1.0  0.19719169775729742  0.11016474944429432  0.6980581416578674  1.0000
  C   C30       1.0  0.8028088182845963  0.6101662770612108  0.30194177554026425  1.0000
  C   C31       1.0  0.8028129462881852  0.1101681536448638  0.1980582894561991  1.0000
  C   C32       1.0  0.1971923560935309  0.6101623081214597  0.801943715451266  1.0000
  C   C33       1.0  0.7890751486158862  0.09069617685376131  0.6137304500221248  1.0000
  C   C34       1.0  0.2109265169597947  0.5907000675055443  0.3862674078603376  1.0000
  C   C35       1.0  0.2109329502668018  0.09070095518116973  0.11373465751525909  1.0000
  C   C36       1.0  0.7890723050679327  0.5906969833913749  0.88626789771034  1.0000
  C   C37       1.0  0.522811024298882  0.2590728177956905  0.1028450779289827  1.0000
  C   C38       1.0  0.47718865504281643  0.7590709181492487  0.8971520124575889  1.0000
  C   C39       1.0  0.47717234189936164  0.2590729534376025  0.6028538576311817  1.0000
  C   C40       1.0  0.5228117818504002  0.7590753004038221  0.3971541932199543  1.0000
  C   C41       1.0  0.7196336055111984  0.22777849317051146  0.0380014173631551  1.0000
  C   C42       1.0  0.28037078453710507  0.7277769437281804  0.9619972844468948  1.0000
  C   C43       1.0  0.28036038674446223  0.2277768281647924  0.5380028516065707  1.0000
  C   C44       1.0  0.7196320374576217  0.7277791734667785  0.46199898176457316  1.0000
  C   C45       1.0  0.872145675274787  0.3477589623810857  0.0488965732679745  1.0000
  C   C46       1.0  0.12785900475232384  0.847759607578489  0.9511019535522109  1.0000
  C   C47       1.0  0.1278474217257113  0.3477577796358631  0.5488984996198314  1.0000
  C   C48       1.0  0.8721476856209379  0.8477596608441048  0.45109950527312753  1.0000
  C   C49       1.0  0.8377271943395997  0.4238575065839072  0.0370607732614943  1.0000
  C   C50       1.0  0.1622788661922669  0.9238581506644153  0.9629381644982616  1.0000
  C   C51       1.0  0.16227086058538023  0.42385521297673284  0.5370616624897124  1.0000
  C   C52       1.0  0.8377268238477386  0.9238576205778558  0.4629346656357143  1.0000
  C   C53       1.0  0.9634033562771904  0.47270688811799033  0.0223173528283453  1.0000
  C   C54       1.0  0.0366016257313504  0.9727074396570291  0.9776804698316326  1.0000
  C   C55       1.0  0.0365971945180021  0.4727056560249494  0.5223171736303769  1.0000
  C   C56       1.0  0.9633994113947892  0.9727081070108171  0.47767856132074377  1.0000
  C   C57       1.0  0.12106741458938326  0.44598492068200823  0.0190322807197703  1.0000
  C   C58       1.0  0.8789375028369618  0.945987051753612  0.9809640151309864  1.0000
  C   C59       1.0  0.8789294784491233  0.4459864030715083  0.5190338319891836  1.0000
  C   C60       1.0  0.1210634731316844  0.9459866988357251  0.4809655954222549  1.0000
  C   C61       1.0  0.15234725184206613  0.36910251933832683  0.0295930130532795  1.0000
  C   C62       1.0  0.8476562831850529  0.8691046510986596  0.9704028730011345  1.0000
  C   C63       1.0  0.8476470732166846  0.3691051142908322  0.5295919485704204  1.0000
  C   C64       1.0  0.152344495965977  0.8691043150956618  0.4704065471167453  1.0000
  C   C65       1.0  0.0281716066633066  0.3193264012011312  0.04524302170469951  1.0000
  C   C66       1.0  0.9718318080618075  0.8193280614636863  0.9547539808014065  1.0000
  C   C67       1.0  0.9718190246457823  0.319327933826834  0.5452440692087777  1.0000
  C   C68       1.0  0.0281736208178316  0.8193276583112165  0.4547544990767989  1.0000
  C   C69       1.0  0.25412292237559336  0.5005042807164487  0.004681867989553701  1.0000
  C   C70       1.0  0.745880918386611  0.0005059427280258002  0.9953176872185452  1.0000
  C   C71       1.0  0.7458764806464515  0.5005068206289495  0.5046828713171223  1.0000
  C   C72       1.0  0.254117787440606  0.0005062265061397003  0.4953172058150912  1.0000
  N   N1        1.0  0.4153938312779105  0.09828704195882661  0.9158776673278481  1.0000
  N   N2        1.0  0.5846042628853497  0.5982865557215931  0.0841227891219489  1.0000
  N   N3        1.0  0.5846050281007322  0.09829032815638074  0.4158767286099234  1.0000
  N   N4        1.0  0.4153954592387806  0.5982889169124096  0.5841232059088739  1.0000
  N   N5        1.0  0.2849097826961682  0.09101212438658732  0.8174865701161025  1.0000
  N   N6        1.0  0.7150906870542143  0.5910115446974089  0.18251389694426481  1.0000
  N   N7        1.0  0.7150913497435526  0.09101209271732813  0.3174856569122682  1.0000
  N   N8        1.0  0.28491151317694374  0.591012141106482  0.6825142882208156  1.0000
  N   N9        1.0  0.4424868270317718  0.083432258643974  0.7996570389308957  1.0000
  N   N10       1.0  0.5575136243983039  0.5834309992776101  0.2003434391849979  1.0000
  N   N11       1.0  0.5575142685111774  0.0834327064963389  0.2996566168453185  1.0000
  N   N12       1.0  0.4424885760910655  0.5834328103812468  0.700343339342048  1.0000
  N   N13       1.0  0.5810331629461133  0.2014870237212918  0.0625654006463989  1.0000
  N   N14       1.0  0.41897236014435174  0.7014855901815552  0.9374333395090771  1.0000
  N   N15       1.0  0.4189619879514836  0.2014882573620298  0.5625689496945867  1.0000
  N   N16       1.0  0.581032765882931  0.7014888744442516  0.43743396587345273  1.0000
  N   N17       1.0  0.742737363773415  0.2979783261228733  0.0631024090886925  1.0000
  N   N18       1.0  0.25726599935524064  0.79797793550582  0.936897234190063  1.0000
  N   N19       1.0  0.25725084137697957  0.29797664861992257  0.5631054045957882  1.0000
  N   N20       1.0  0.742740555903552  0.7979790482650629  0.43689632639066645  1.0000
  N   N21       1.0  0.6172970275791486  0.3191548305043241  0.10453660912580891  1.0000
  N   N22       1.0  0.3827051901438594  0.8191534473179517  0.8954624813410916  1.0000
  N   N23       1.0  0.3826852890040726  0.31915435031282874  0.6045417168652351  1.0000
  N   N24       1.0  0.6172989799515776  0.8191561864551531  0.3954625928693929  1.0000
  O   O1        1.0  0.6579653128574705  0.0566655379351459  0.6286502704820123  1.0000
  O   O2        1.0  0.3420362704722137  0.5566700890993843  0.3713486808869533  1.0000
  O   O3        1.0  0.3420403261540841  0.05667095190572271  0.1286524158997864  1.0000
  O   O4        1.0  0.6579624537645472  0.5566669340818747  0.871349145103224  1.0000
  O   O5        1.0  0.810801553885149  0.1268033653394269  0.5570110406331921  1.0000
  O   O6        1.0  0.18919900237121107  0.6268065849512681  0.4429872865153968  1.0000
  O   O7        1.0  0.1892005902386487  0.12680869665531708  0.0570142000232963  1.0000
  O   O8        1.0  0.8107999660205608  0.6268018183706234  0.9429883025417851  1.0000
  O   O9        1.0  0.22910960248201212  0.5706278736181574  0.014559806953691601  1.0000
  O   O10       1.0  0.7708944077593642  0.07063013036299991  0.9854386021263863  1.0000
  O   O11       1.0  0.7708935700652546  0.5706304270604647  0.5145587274636227  1.0000
  O   O12       1.0  0.22910804700983087  0.07063040061368751  0.4854396816141602  1.0000
  O   O13       1.0  0.3880236383028617  0.47378627662826744  0.9834429433478107  1.0000
  O   O14       1.0  0.6119849360692271  0.9737859178265539  0.0165574873744916  1.0000
  O   O15       1.0  0.6119761990067829  0.4737878834097843  0.4834440976909137  1.0000
  O   O16       1.0  0.3880144265965911  0.9737865699929174  0.5165589426635506  1.0000
