data_image0
_chemical_formula_structural       Al3H36C81Cl9O18
_chemical_formula_sum              "Al3 H36 C81 Cl9 O18"
_cell_length_a       4.009630444904079
_cell_length_b       27.780182401293683
_cell_length_c       27.834452691450327
_cell_angle_alpha    60.025558391832874
_cell_angle_beta     90.83336411711325
_cell_angle_gamma    89.99812069058846

_space_group_name_H-M_alt    "P 1"
_space_group_IT_number       1

loop_
  _space_group_symop_operation_xyz
  'x, y, z'

loop_
  _atom_site_type_symbol
  _atom_site_label
  _atom_site_symmetry_multiplicity
  _atom_site_fract_x
  _atom_site_fract_y
  _atom_site_fract_z
  _atom_site_occupancy
  Al  Al1       1.0  0.0032809806039323973  0.49945252412775437  0.5000932003171813  1.0000
  Al  Al2       1.0  0.944406013472033  0.8326961578651292  0.8329492375222856  1.0000
  Al  Al3       1.0  0.053303534639518105  0.16603219872747127  0.16698102255171676  1.0000
  H   H1        1.0  0.5206802633902968  0.07651724336852082  0.9220630045164672  1.0000
  H   H2        1.0  0.5040566424728752  0.2550683796504742  0.8343105752797443  1.0000
  H   H3        1.0  0.5170153578613041  0.16714523179499005  0.7438257470977662  1.0000
  H   H4        1.0  0.7260149290315  0.9260408193293515  0.9087083179750552  1.0000
  H   H5        1.0  0.7664356454258509  0.014199702120173035  0.9098288724303248  1.0000
  H   H6        1.0  0.21782314457302482  0.09754945901872235  0.7543204157161089  1.0000
  H   H7        1.0  0.283005409898486  0.0865010341416691  0.9839950913779065  1.0000
  H   H8        1.0  0.7978071499854168  0.2431473717757838  0.9949859801215484  1.0000
  H   H9        1.0  0.8009016724332342  0.24312731280287636  0.9062321933769228  1.0000
  H   H10       1.0  0.7863079985133443  0.31423030697443705  0.764297584047647  1.0000
  H   H11       1.0  0.22928831045867074  0.33304555485154447  0.5960348287773202  1.0000
  H   H12       1.0  0.2256077994367018  0.24189573908820697  0.68296820481838  1.0000
  H   H13       1.0  0.5045061842934829  0.4986802310545004  0.07834823054364645  1.0000
  H   H14       1.0  0.5192969424758617  0.5894745468934844  0.16598910432442432  1.0000
  H   H15       1.0  0.5041904208873546  0.41094811692051547  0.256592909467706  1.0000
  H   H16       1.0  0.281713562853085  0.33661964345991185  0.09037583842536633  1.0000
  H   H17       1.0  0.249906912027285  0.42551419327052287  0.09021331887579001  1.0000
  H   H18       1.0  0.7921164488479421  0.35038933570121605  0.24644860950377995  1.0000
  H   H19       1.0  0.7428739126872728  0.5714916911635868  0.01598412153337126  1.0000
  H   H20       1.0  0.2050160667267846  0.7373416206454593  0.005566907971619616  1.0000
  H   H21       1.0  0.21290218250608467  0.648489027892701  0.09437200846191725  1.0000
  H   H22       1.0  0.23342323216672162  0.5780949421609022  0.23621914593982757  1.0000
  H   H23       1.0  0.7901334282335951  0.4284217257651833  0.40456795595257233  1.0000
  H   H24       1.0  0.8011206482652823  0.4250328748160328  0.3172615725138145  1.0000
  H   H25       1.0  0.49231255230442617  0.9220670919073156  0.5008876372458458  1.0000
  H   H26       1.0  0.4721869333712903  0.8343494777535128  0.41021863619783966  1.0000
  H   H27       1.0  0.48630715238838473  0.7434690867647474  0.5884516848599335  1.0000
  H   H28       1.0  0.7051402062284566  0.9087845606814255  0.6642700888084646  1.0000
  H   H29       1.0  0.7353799998253409  0.9096717396430165  0.5752726916098111  1.0000
  H   H30       1.0  0.207635284953426  0.753983061579561  0.6479058565477516  1.0000
  H   H31       1.0  0.2635451782564787  0.9862312304413481  0.4270240685281339  1.0000
  H   H32       1.0  0.7962081922019097  0.9928143957968277  0.2640963058262996  1.0000
  H   H33       1.0  0.7799891852813304  0.9038817286743213  0.3527029312504553  1.0000
  H   H34       1.0  0.7535653994295329  0.7638370085123967  0.42182585806337164  1.0000
  H   H35       1.0  0.21848568961684828  0.5956020343626279  0.5698828913129432  1.0000
  H   H36       1.0  0.20227818950557008  0.6826973063862313  0.573886719932645  1.0000
  C   C1        1.0  0.49943441850440706  0.5748340106533548  0.4972504451615621  1.0000
  C   C2        1.0  0.5083175149704502  0.42702952020266594  0.5753447045015464  1.0000
  C   C3        1.0  0.5006971999980793  0.5007126523707583  0.4256249807917102  1.0000
  C   C4        1.0  0.4446698054758684  0.9078821372575732  0.8307958198568032  1.0000
  C   C5        1.0  0.45394744190039665  0.7592486473092206  0.907264899095644  1.0000
  C   C6        1.0  0.43910761118029745  0.8307265783836115  0.7603528704125324  1.0000
  C   C7        1.0  0.5469340206683172  0.1656527272328248  0.09320126890244039  1.0000
  C   C8        1.0  0.554481021063623  0.23962604828754047  0.16773337903236302  1.0000
  C   C9        1.0  0.5564309546688053  0.09293761256267889  0.24113588332878788  1.0000
  C   C10       1.0  0.5250497225983608  0.16577563021530026  0.8844423159898158  1.0000
  C   C11       1.0  0.5180055606404963  0.11596685909913876  0.8831509453779562  1.0000
  C   C12       1.0  0.5061162054952036  0.11568619176804856  0.8329494528303771  1.0000
  C   C13       1.0  0.50867101802654  0.1667202015696318  0.7831613994310801  1.0000
  C   C14       1.0  0.5123699496592024  0.21724557947137402  0.7830001552412116  1.0000
  C   C15       1.0  0.5169994937723246  0.2160527755218097  0.8339638948728736  1.0000
  C   C16       1.0  0.6127332479378538  0.9638359982135326  0.8751470415719355  1.0000
  C   C17       1.0  0.6320743606288773  0.013444976439131768  0.8758963234270997  1.0000
  C   C18       1.0  0.492123095837414  0.06271081259708211  0.832495248864028  1.0000
  C   C19       1.0  0.33730088600546543  0.060662568780862985  0.7880367004625058  1.0000
  C   C20       1.0  0.32648870405998315  0.011216809574378258  0.7867314713711836  1.0000
  C   C21       1.0  0.4585891087743974  0.961935019246212  0.8306726573240937  1.0000
  C   C22       1.0  0.40328331669716994  0.12078265934877656  0.9856665031245203  1.0000
  C   C23       1.0  0.41448474796072793  0.12001610826099099  0.03606798005650798  1.0000
  C   C24       1.0  0.5466816857429181  0.16476530119335558  0.03971689106956691  1.0000
  C   C25       1.0  0.6827634766329568  0.20909386309819653  0.9921092703455516  1.0000
  C   C26       1.0  0.6808801660794616  0.2092258175133567  0.942048209550123  1.0000
  C   C27       1.0  0.5357356138954547  0.16542659293084916  0.9377447994557573  1.0000
  C   C28       1.0  0.6601592133303172  0.31752369021879173  0.7278628130993782  1.0000
  C   C29       1.0  0.6603868940790749  0.36872759865255483  0.6789516360346114  1.0000
  C   C30       1.0  0.509836585525278  0.3747398487561355  0.630162501541186  1.0000
  C   C31       1.0  0.35476528444451105  0.32787873585971267  0.6333154659075931  1.0000
  C   C32       1.0  0.35593806026906094  0.2768275384032819  0.6819331948923806  1.0000
  C   C33       1.0  0.5104902246322497  0.2707746355125098  0.7303390988758736  1.0000
  C   C34       1.0  0.49963901572313324  0.5503046874282163  0.11589022401538061  1.0000
  C   C35       1.0  0.5066231423465625  0.49918129710014375  0.11725226720744081  1.0000
  C   C36       1.0  0.5158675033132311  0.44863122987331383  0.16747751921931095  1.0000
  C   C37       1.0  0.5144976797907502  0.44985358112888457  0.21723746828541826  1.0000
  C   C38       1.0  0.5126469865009752  0.5002694221764727  0.2173286854818102  1.0000
  C   C39       1.0  0.5078888094142968  0.5500937608461314  0.1663494170583064  1.0000
  C   C40       1.0  0.3957757610708513  0.3401605952974265  0.12425847728729165  1.0000
  C   C41       1.0  0.38146068947216355  0.3902738111310882  0.12404043559457992  1.0000
  C   C42       1.0  0.5232094293638666  0.39524757063128385  0.16781555018736327  1.0000
  C   C43       1.0  0.6727097232815922  0.34802226844803397  0.21230594105634282  1.0000
  C   C44       1.0  0.6783002559629451  0.29747006130148185  0.2131306046464871  1.0000
  C   C45       1.0  0.546125699712654  0.29316202838020894  0.1686010995173461  1.0000
  C   C46       1.0  0.6177684120608903  0.6070417907724703  0.014448634723542925  1.0000
  C   C47       1.0  0.5998512823995978  0.6566546016851759  0.9639546442218861  1.0000
  C   C48       1.0  0.46147163347343684  0.7046044497482882  0.9605346457014008  1.0000
  C   C49       1.0  0.32533760338836964  0.700818539271701  0.008333813442149606  1.0000
  C   C50       1.0  0.33364868693224276  0.6508884233853749  0.058417512949901544  1.0000
  C   C51       1.0  0.4852649356328129  0.6032879253731523  0.06255008397413765  1.0000
  C   C52       1.0  0.3598349851557145  0.5449444925096145  0.27265739221270735  1.0000
  C   C53       1.0  0.35569584117704534  0.5468581447635544  0.3217358351155327  1.0000
  C   C54       1.0  0.5054684257448373  0.5038863090407518  0.3705861567589964  1.0000
  C   C55       1.0  0.6648091404002515  0.46057995922162576  0.36725796679427  1.0000
  C   C56       1.0  0.6678349911592322  0.45860865415246377  0.3184356675841685  1.0000
  C   C57       1.0  0.513004987414405  0.5010018756004869  0.2700325925019842  1.0000
  C   C58       1.0  0.4949268665578046  0.8843914390692335  0.4494092328749843  1.0000
  C   C59       1.0  0.48769367887465614  0.8830890244845335  0.5003990063838301  1.0000
  C   C60       1.0  0.476457749343986  0.8328207649737678  0.5508230301736319  1.0000
  C   C61       1.0  0.47680056403980586  0.782947666428683  0.5495661872095212  1.0000
  C   C62       1.0  0.47933175794253924  0.7828068016256255  0.4992794503781113  1.0000
  C   C63       1.0  0.4844385927919533  0.8338792346042322  0.4495850659670922  1.0000
  C   C64       1.0  0.594579438386127  0.8751264274873023  0.6601850258976186  1.0000
  C   C65       1.0  0.6077732778242934  0.875732761032971  0.6099709624546392  1.0000
  C   C66       1.0  0.46961746911688357  0.8323411562669562  0.604198602771355  1.0000
  C   C67       1.0  0.3247063168549573  0.7878120273300625  0.6508227669308015  1.0000
  C   C68       1.0  0.32070622430990886  0.7865298740710145  0.7014760718481697  1.0000
  C   C69       1.0  0.449199799108193  0.8306715224206087  0.706541202399734  1.0000
  C   C70       1.0  0.3888871336253317  0.9868783840810239  0.3922604940115234  1.0000
  C   C71       1.0  0.41350048075334916  0.037350067356172204  0.342978253537737  1.0000
  C   C72       1.0  0.5509539642962339  0.039849531064618256  0.2958101394828887  1.0000
  C   C73       1.0  0.6789646110377702  0.9909449627640184  0.3001037659767221  1.0000
  C   C74       1.0  0.6654184878102498  0.9408105606061666  0.3498536367215764  1.0000
  C   C75       1.0  0.5146663053808781  0.9377301972365687  0.39660493887252807  1.0000
  C   C76       1.0  0.6312894176383282  0.727464102699173  0.45457069600585975  1.0000
  C   C77       1.0  0.6378586546628213  0.6785032149199991  0.4522649121385244  1.0000
  C   C78       1.0  0.49386526663114694  0.6296899706741002  0.49471643249983543  1.0000
  C   C79       1.0  0.3387226799670414  0.6329067307093083  0.5380243686641467  1.0000
  C   C80       1.0  0.33318076417235437  0.6816344593593584  0.5403696001065017  1.0000
  C   C81       1.0  0.4813321635130167  0.7300683634706573  0.4983968931615905  1.0000
  Cl  Cl1       1.0  0.1473934200655762  0.011511276339149234  0.7296636259839107  1.0000
  Cl  Cl2       1.0  0.26097171958770826  0.0627931043578371  0.09437585668948863  1.0000
  Cl  Cl3       1.0  0.839150897036312  0.4233774763773326  0.6827501366905864  1.0000
  Cl  Cl4       1.0  0.8499819993898612  0.2397702252466729  0.27012039458772114  1.0000
  Cl  Cl5       1.0  0.7506952477323097  0.6582341187907232  0.9053519739713  1.0000
  Cl  Cl6       1.0  0.17333360942787832  0.6049050653187605  0.3181947153655429  1.0000
  Cl  Cl7       1.0  0.15501088814190211  0.7294333563017902  0.7584780458174196  1.0000
  Cl  Cl8       1.0  0.270018488386583  0.09710508488863206  0.34078419508116303  1.0000
  Cl  Cl9       1.0  0.8153264012230965  0.6822701406115071  0.3942906849486576  1.0000
  O   O1        1.0  0.7347699139951447  0.4730151064205684  0.46032450403490094  1.0000
  O   O2        1.0  0.7351387243081293  0.564855334579569  0.4733123693125664  1.0000
  O   O3        1.0  0.7453441079662968  0.4609479246333876  0.5653840363065257  1.0000
  O   O4        1.0  0.26084951131651485  0.5244793991059994  0.43518492237567596  1.0000
  O   O5        1.0  0.2715528361307662  0.4335576504765939  0.5413257300645854  1.0000
  O   O6        1.0  0.26930617336040535  0.5405777571172194  0.5247097260880195  1.0000
  O   O7        1.0  0.6744658760469165  0.805636755881622  0.7951173154360947  1.0000
  O   O8        1.0  0.6746937715572089  0.8981449085327214  0.8058929087885646  1.0000
  O   O9        1.0  0.687435690870899  0.7933474033021498  0.8997318695798528  1.0000
  O   O10       1.0  0.19910059935956775  0.8567722552506964  0.7669316441575662  1.0000
  O   O11       1.0  0.212177282870087  0.7680188078146696  0.8739565797794526  1.0000
  O   O12       1.0  0.207149009828214  0.8751926587041794  0.8569032998608322  1.0000
  O   O13       1.0  0.7951501964422577  0.12611035601319287  0.2322595324340782  1.0000
  O   O14       1.0  0.7855874651037028  0.14072053751970506  0.12719053017512041  1.0000
  O   O15       1.0  0.7894814051447411  0.23274613220585388  0.14135366153980303  1.0000
  O   O16       1.0  0.3199933741860407  0.10029801186953338  0.2069455902772361  1.0000
  O   O17       1.0  0.32174399816848614  0.20552123235739836  0.1923212573151147  1.0000
  O   O18       1.0  0.3103625843240608  0.19195821200808183  0.1002566336822213  1.0000
