data_image0
_chemical_formula_structural       La2H26C14S4O26
_chemical_formula_sum              "La2 H26 C14 S4 O26"
_cell_length_a       7.902451093689616
_cell_length_b       10.302732818011396
_cell_length_c       10.758269827116957
_cell_angle_alpha    115.60057242767195
_cell_angle_beta     94.08312416887782
_cell_angle_gamma    105.44088480541899

_space_group_name_H-M_alt    "P 1"
_space_group_IT_number       1

loop_
  _space_group_symop_operation_xyz
  'x, y, z'

loop_
  _atom_site_type_symbol
  _atom_site_label
  _atom_site_symmetry_multiplicity
  _atom_site_fract_x
  _atom_site_fract_y
  _atom_site_fract_z
  _atom_site_occupancy
  La  La1       1.0  0.4382747067495388  0.8145145771541988  0.7163138803810509  1.0000
  La  La2       1.0  0.5617221351347086  0.18548554525452937  0.2836873278106395  1.0000
  H   H1        1.0  0.41766876829676397  0.7362128995365467  0.2712562309979702  1.0000
  H   H2        1.0  0.5823251404115484  0.2637894901682217  0.7287457778537456  1.0000
  H   H3        1.0  0.16037967728354363  0.2473910075214717  0.036221617151390675  1.0000
  H   H4        1.0  0.8396223036146326  0.7526125330329734  0.963784992358299  1.0000
  H   H5        1.0  0.26190811984265144  0.5202195139050332  0.818849822315151  1.0000
  H   H6        1.0  0.738093266016783  0.4797726610869547  0.18114643458586951  1.0000
  H   H7        1.0  0.19160129463130463  0.8391565668995469  0.4754116623498773  1.0000
  H   H8        1.0  0.8083985999533212  0.1608515642548625  0.5245865353008695  1.0000
  H   H9        1.0  0.26852319718077666  0.0016042023728885992  0.6105959589735761  1.0000
  H   H10       1.0  0.7314821825120961  0.9984016546355579  0.38940528035669797  1.0000
  H   H11       1.0  0.6973575164734244  0.8280800449861587  0.49849877399280024  1.0000
  H   H12       1.0  0.30264943042347886  0.17191671175299217  0.5014978139464786  1.0000
  H   H13       1.0  0.8110966095184224  0.9511071008139781  0.6502717104226718  1.0000
  H   H14       1.0  0.18891030222917496  0.048886224079623695  0.34972716087773387  1.0000
  H   H15       1.0  0.16105944015677662  0.47648575967605206  0.5431786828050419  1.0000
  H   H16       1.0  0.8389377886016973  0.5235120944885807  0.4568197384680487  1.0000
  H   H17       1.0  0.04853103390426844  0.5594833976365052  0.6468445039836863  1.0000
  H   H18       1.0  0.9514713226069276  0.4405178902697813  0.35315560644543337  1.0000
  H   H19       1.0  0.03707502800337172  0.793257144964599  0.7834121329821285  1.0000
  H   H20       1.0  0.9629277758690834  0.20674527145227017  0.21659125953167543  1.0000
  H   H21       1.0  0.12105280380710344  0.9538055002835507  0.7939160308472069  1.0000
  H   H22       1.0  0.8789436483876046  0.046196894268263095  0.20608703622259836  1.0000
  H   H23       1.0  0.8522077214411894  0.0078344448888927  0.8624656100237188  1.0000
  H   H24       1.0  0.14779375442398657  0.9921645665012946  0.1375325764384813  1.0000
  H   H25       1.0  0.7735559413564417  0.009802553744130197  0.9922875260667963  1.0000
  H   H26       1.0  0.22643923205681207  0.990199848131624  0.007712691792740184  1.0000
  C   C1        1.0  0.4297128437126361  0.7941768133216413  0.04819327512248612  1.0000
  C   C2        1.0  0.5702830275198423  0.20581419617278843  0.9518040795411122  1.0000
  C   C3        1.0  0.35012627088721626  0.6428318745439796  0.04523398190809768  1.0000
  C   C4        1.0  0.6498909104423378  0.35716829833801716  0.9547729079068291  1.0000
  C   C5        1.0  0.357710336683738  0.6333248289771377  0.17134922117303825  1.0000
  C   C6        1.0  0.6422945140880361  0.3666730514255647  0.8286495906328353  1.0000
  C   C7        1.0  0.2900470548587677  0.4915591472011939  0.16636817115199418  1.0000
  C   C8        1.0  0.709943446608939  0.5084409377465346  0.8336364237576601  1.0000
  C   C9        1.0  0.2101693257714815  0.35797947992519136  0.0385861100739007  1.0000
  C   C10       1.0  0.7898331024879611  0.6420251891398434  0.961423781520473  1.0000
  C   C11       1.0  0.19912934376181116  0.3711643376479188  0.914885381068238  1.0000
  C   C12       1.0  0.8008679173306706  0.6288369522612456  0.08510982880323331  1.0000
  C   C13       1.0  0.2698435322801345  0.5117025336080443  0.9165805916307189  1.0000
  C   C14       1.0  0.7301693358250746  0.4882930930916772  0.08341860791082216  1.0000
  S   S1        1.0  0.3162960625309097  0.4794543875036865  0.3258340029274649  1.0000
  S   S2        1.0  0.6837066344439933  0.5205412159088922  0.6741618917822121  1.0000
  S   S3        1.0  0.09282818867469443  0.2110801040796701  0.7471940586177722  1.0000
  S   S4        1.0  0.9071649322086445  0.7889268416082231  0.25280888386870976  1.0000
  O   O1        1.0  0.4193652599025342  0.7975472312016906  0.9315600109133299  1.0000
  O   O2        1.0  0.5806245311829628  0.2024346868762379  0.0684239494620584  1.0000
  O   O3        1.0  0.5031296233006088  0.909812335076758  0.16788010335748277  1.0000
  O   O4        1.0  0.4968597752800577  0.09017185904324519  0.8321047878555345  1.0000
  O   O5        1.0  0.37172582982772445  0.6356946131592096  0.44037465137035525  1.0000
  O   O6        1.0  0.628277923623699  0.3643134648314899  0.5596395182351229  1.0000
  O   O7        1.0  0.4523656158734113  0.40578238715605147  0.32023106964219034  1.0000
  O   O8        1.0  0.5476296067656677  0.5942234270703324  0.6797715050586745  1.0000
  O   O9        1.0  0.13939646214023335  0.3850001513277448  0.328938650055285  1.0000
  O   O10       1.0  0.8606073039380748  0.6150113897003848  0.6710658118651479  1.0000
  O   O11       1.0  0.23296556001535865  0.18630777074528027  0.6652010980631642  1.0000
  O   O12       1.0  0.7670309188827603  0.813698067349037  0.3347969015240507  1.0000
  O   O13       1.0  0.9544141607409814  0.25023778127158636  0.6877119771752901  1.0000
  O   O14       1.0  0.04558361101510404  0.7497680300038637  0.31229351182464876  1.0000
  O   O15       1.0  0.016362354142593502  0.07952363917059559  0.7749273437042631  1.0000
  O   O16       1.0  0.9836332286673084  0.9204764632691821  0.22507751156059203  1.0000
  O   O17       1.0  0.2684729666542084  0.895761767477083  0.5713524458801726  1.0000
  O   O18       1.0  0.7315285499908841  0.10424066796068841  0.4286453133018923  1.0000
  O   O19       1.0  0.6915525979835309  0.8750091930357511  0.5986139762210242  1.0000
  O   O20       1.0  0.3084526045131568  0.1249829872773063  0.4013843320273692  1.0000
  O   O21       1.0  0.17210991881157156  0.5603194909435698  0.6363793207250267  1.0000
  O   O22       1.0  0.8278912053286903  0.4396852205362691  0.36361936929466043  1.0000
  O   O23       1.0  0.15041828331892051  0.8801968620750458  0.820335093225445  1.0000
  O   O24       1.0  0.849580265000924  0.11980440881321638  0.17966574997776513  1.0000
  O   O25       1.0  0.7578692649327368  0.9470793371376801  0.8889122844575609  1.0000
  O   O26       1.0  0.24213045808631517  0.052915109523361495  0.11108483819228347  1.0000
