data_image0
_chemical_formula_structural       Zn4H20C16N6O13
_chemical_formula_sum              "Zn4 H20 C16 N6 O13"
_cell_length_a       10.922857671817988
_cell_length_b       10.934387801982961
_cell_length_c       10.919936326825363
_cell_angle_alpha    99.79803973108716
_cell_angle_beta     90.07736777041089
_cell_angle_gamma    97.80306315247984

_space_group_name_H-M_alt    "P 1"
_space_group_IT_number       1

loop_
  _space_group_symop_operation_xyz
  'x, y, z'

loop_
  _atom_site_type_symbol
  _atom_site_label
  _atom_site_symmetry_multiplicity
  _atom_site_fract_x
  _atom_site_fract_y
  _atom_site_fract_z
  _atom_site_occupancy
  Zn  Zn1       1.0  0.39365472288541536  0.5995125206307248  0.6062829671230573  1.0000
  Zn  Zn2       1.0  0.6175265326318282  0.6047286505269938  0.4151431293588174  1.0000
  Zn  Zn3       1.0  0.3861246716708493  0.3708836128327419  0.373552005291934  1.0000
  Zn  Zn4       1.0  0.5794989210210845  0.4099086844321106  0.5977870495627968  1.0000
  H   H1        1.0  0.4434350634885505  0.6609424021990405  0.12515898612205936  1.0000
  H   H2        1.0  0.9694774673632339  0.2955060314072426  0.3550148122281058  1.0000
  H   H3        1.0  0.1063602492134379  0.6166757616158518  0.6650866406244943  1.0000
  H   H4        1.0  0.0023945619794857815  0.7309487016344601  0.8238976173371312  1.0000
  H   H5        1.0  0.8586414406893255  0.6417029834102761  0.768780388605009  1.0000
  H   H6        1.0  0.9211012883324587  0.7721219676866224  0.6984793888424788  1.0000
  H   H7        1.0  0.43542534212443224  0.9515534924595167  0.2745770041577841  1.0000
  H   H8        1.0  0.31107608890734184  0.946391685900842  0.3575698883100812  1.0000
  H   H9        1.0  0.6024297779075312  0.12985572314305216  0.6533772640799852  1.0000
  H   H10       1.0  0.6889458617394412  0.047121077444259585  0.8135048035931972  1.0000
  H   H11       1.0  0.7455722532547853  0.9441724087552498  0.6884581492743249  1.0000
  H   H12       1.0  0.24526626565785395  0.5051775894746483  0.08423131993900768  1.0000
  H   H13       1.0  0.6031829987460356  0.8977595957124148  0.7596720153673857  1.0000
  H   H14       1.0  0.23451217009549202  0.5706011626054703  0.9456566633935636  1.0000
  H   H15       1.0  0.2306316632724474  0.6677057218986631  0.09351422455402054  1.0000
  H   H16       1.0  0.6326055921491331  0.38586634029476835  0.8857108644996216  1.0000
  H   H17       1.0  0.7338719868829813  0.24947680553459142  0.9838377056804148  1.0000
  H   H18       1.0  0.6427109951134469  0.2778876250066772  0.11745425858027399  1.0000
  H   H19       1.0  0.7753296363009882  0.3868325690346239  0.0977931607792755  1.0000
  H   H20       1.0  0.9819823496946329  0.41364086648128046  0.2803285844209213  1.0000
  C   C1        1.0  0.826201352512797  0.5222830392842964  0.5329158155151248  1.0000
  C   C2        1.0  0.4761775364609093  0.5388274172810056  0.9692556344231775  1.0000
  C   C3        1.0  0.5406825153303032  0.46403626472798  0.028929637655735987  1.0000
  C   C4        1.0  0.02838317447146471  0.46330775477971997  0.4641474904466421  1.0000
  C   C5        1.0  0.2723964512988388  0.5893424101191226  0.04132559111676667  1.0000
  C   C6        1.0  0.697046942322011  0.32295187139993686  0.04857573204670731  1.0000
  C   C7        1.0  0.944517371765919  0.6931226026868342  0.7404399629652616  1.0000
  C   C8        1.0  0.6615464498658454  0.9771413567591761  0.7302701775908034  1.0000
  C   C9        1.0  0.9646205952305422  0.5340764925969663  0.5529967534229384  1.0000
  C   C10       1.0  0.4682377562434257  0.023752343905606186  0.4580014518772373  1.0000
  C   C11       1.0  0.5274168731701181  0.9725063850714191  0.5453445797282086  1.0000
  C   C12       1.0  0.16094699281132563  0.4659043264351367  0.4724772895276814  1.0000
  C   C13       1.0  0.5158237741944944  0.8311545856069668  0.5268751520859354  1.0000
  C   C14       1.0  0.4716133328514616  0.15765367390372378  0.4664766417415364  1.0000
  C   C15       1.0  0.5252096096514264  0.4741023972824222  0.16774722590766086  1.0000
  C   C16       1.0  0.4819799608670224  0.5342743102676053  0.835864403711092  1.0000
  N   N1        1.0  0.40600923036180353  0.6256707243507404  0.03894576203195748  1.0000
  N   N2        1.0  0.6204929264070316  0.3864084521042983  0.9785445891919051  1.0000
  N   N3        1.0  0.9553942227915471  0.38691679454116457  0.3626356604829652  1.0000
  N   N4        1.0  0.012392790626790908  0.6109352441563158  0.6563585232308924  1.0000
  N   N5        1.0  0.4025646239373231  0.9360394077690724  0.35893651775525365  1.0000
  N   N6        1.0  0.5942232525497392  0.03459213094162549  0.6459370872524559  1.0000
  O   O1        1.0  0.4935214634461219  0.4979081382579764  0.4913571027715022  1.0000
  O   O2        1.0  0.602380613064625  0.5577985737284334  0.23354533857886386  1.0000
  O   O3        1.0  0.553046929662628  0.45944163220795536  0.7749500001730282  1.0000
  O   O4        1.0  0.4402969425222025  0.3985071907605757  0.20370771997378506  1.0000
  O   O5        1.0  0.4175265895607296  0.6020389337795248  0.7837925600754402  1.0000
  O   O6        1.0  0.4278542350093701  0.7767403221569893  0.5819728748431032  1.0000
  O   O7        1.0  0.5344854951823167  0.22952460752280496  0.5594948726028689  1.0000
  O   O8        1.0  0.7884398689228505  0.5966611504713482  0.4683464141914015  1.0000
  O   O9        1.0  0.21331320797522582  0.3980692001318855  0.3851048415237912  1.0000
  O   O10       1.0  0.761982099752224  0.44359363787881967  0.5881650497902413  1.0000
  O   O11       1.0  0.2196146786959261  0.5362851452836991  0.5687230855729553  1.0000
  O   O12       1.0  0.600658265700787  0.7830446492291683  0.4640891931797952  1.0000
  O   O13       1.0  0.41280194315885416  0.1989855800700226  0.3831468814555663  1.0000
