data_image0
_chemical_formula_structural       La4H28C18O32
_chemical_formula_sum              "La4 H28 C18 O32"
_cell_length_a       7.033199616574884
_cell_length_b       10.106686715830207
_cell_length_c       14.281095937036914
_cell_angle_alpha    71.21502919986726
_cell_angle_beta     75.75057527316821
_cell_angle_gamma    69.62303373123501

_space_group_name_H-M_alt    "P 1"
_space_group_IT_number       1

loop_
  _space_group_symop_operation_xyz
  'x, y, z'

loop_
  _atom_site_type_symbol
  _atom_site_label
  _atom_site_symmetry_multiplicity
  _atom_site_fract_x
  _atom_site_fract_y
  _atom_site_fract_z
  _atom_site_occupancy
  La  La1       1.0  0.04007737846825434  0.8619046372382683  0.6608635548408445  1.0000
  La  La2       1.0  0.4369808823931365  0.3620906938893357  0.16090976983697655  1.0000
  La  La3       1.0  0.9599197827049012  0.1380978234838466  0.3391389096935383  1.0000
  La  La4       1.0  0.5630259675542107  0.6379095124267166  0.839088743913365  1.0000
  H   H1        1.0  0.05795203476968402  0.3554545120361041  0.907615812378829  1.0000
  H   H2        1.0  0.6788386244444313  0.8555064222789712  0.407666794627751  1.0000
  H   H3        1.0  0.9420434262578258  0.6445446265521683  0.09238445320372071  1.0000
  H   H4        1.0  0.32116238475781256  0.1444949153778481  0.5923339548338404  1.0000
  H   H5        1.0  0.3142359267048818  0.32643040342841795  0.8426524852539926  1.0000
  H   H6        1.0  0.5167994545594613  0.8266290474577788  0.34248687765255426  1.0000
  H   H7        1.0  0.6857610655022552  0.673568689104059  0.15734480995360653  1.0000
  H   H8        1.0  0.4832028425796723  0.1733722927898214  0.6575140493732619  1.0000
  H   H9        1.0  0.10697968462341122  0.15079150530390004  0.7708589815066561  1.0000
  H   H10       1.0  0.9708800021437938  0.6516660522794949  0.2705259836709359  1.0000
  H   H11       1.0  0.8930190570569965  0.8492076275996824  0.22914094100165266  1.0000
  H   H12       1.0  0.02912061063124554  0.348333096671901  0.7294749921685054  1.0000
  H   H13       1.0  0.8815167985988458  0.9860008078912231  0.8602219466370116  1.0000
  H   H14       1.0  0.27199236250069014  0.4862075066141855  0.3601805723591767  1.0000
  H   H15       1.0  0.11848438155240612  0.0139972236795671  0.13977765720387939  1.0000
  H   H16       1.0  0.7280080635437971  0.5137938175855936  0.6398193013355141  1.0000
  H   H17       1.0  0.8642125265521161  0.8239899163371478  0.8934179244720113  1.0000
  H   H18       1.0  0.41839970933474296  0.3242354896232628  0.39345065530513057  1.0000
  H   H19       1.0  0.13578865359912845  0.1760081152336426  0.10658167936887959  1.0000
  H   H20       1.0  0.5815991697485786  0.6757647497946735  0.6065499409990522  1.0000
  H   H21       1.0  0.916498123022621  0.6475613923475905  0.6002961916630126  1.0000
  H   H22       1.0  0.8353720510249688  0.14755410061690102  0.10036216673996277  1.0000
  H   H23       1.0  0.08350513791992138  0.3524410192248269  0.39970313698640336  1.0000
  H   H24       1.0  0.16463112184228412  0.8524439226784182  0.8996369164624697  1.0000
  H   H25       1.0  0.11751679386290463  0.6575174792325528  0.516066191535117  1.0000
  H   H26       1.0  0.7084668126798165  0.15739429588178672  0.01623409412849947  1.0000
  H   H27       1.0  0.882484474363629  0.34248494061533574  0.4839336577527574  1.0000
  H   H28       1.0  0.2915355902991339  0.8426058892048831  0.9837630111622672  1.0000
  C   C1        1.0  0.1315233225459311  0.5508146579161705  0.8124429410310584  1.0000
  C   C2        1.0  0.5050820954731636  0.05101382962807582  0.31252168137356756  1.0000
  C   C3        1.0  0.8684782540325174  0.4491855623600359  0.18755643643198278  1.0000
  C   C4        1.0  0.4949136633262941  0.9489940611911011  0.6874775011333654  1.0000
  C   C5        1.0  0.18914812410796608  0.39982707187432004  0.8822370207206305  1.0000
  C   C6        1.0  0.5286776910270493  0.8999161822490508  0.3821976512585508  1.0000
  C   C7        1.0  0.8108494670384732  0.6001731649528355  0.11776339801932775  1.0000
  C   C8        1.0  0.4713222892626024  0.1000862350080496  0.6178020204650991  1.0000
  C   C9        1.0  0.2690998247652202  0.39421521458640296  0.973568358117511  1.0000
  C   C10       1.0  0.36298822096009087  0.8941335246456251  0.47351493844470127  1.0000
  C   C11       1.0  0.730903397429664  0.6057795269461722  0.026431153433804838  1.0000
  C   C12       1.0  0.6370092485649792  0.10586673650481523  0.526487054264848  1.0000
  C   C13       1.0  0.899338900181775  0.24361455778410612  0.6621329723488785  1.0000
  C   C14       1.0  0.19476709111435067  0.7439989612110267  0.16190099979766612  1.0000
  C   C15       1.0  0.10066183421463383  0.7563845668440053  0.33786642952097884  1.0000
  C   C16       1.0  0.8052288156680025  0.25599908431992446  0.8380994677559173  1.0000
  C   C17       1.0  0.9801142151626724  0.24963853945710218  0.7501660199090239  1.0000
  C   C18       1.0  0.019886381830822506  0.7503594786566483  0.2498327081649592  1.0000
  O   O1        1.0  0.26733206941700194  0.61845879310345  0.774025038895182  1.0000
  O   O2        1.0  0.340111089510451  0.11872062437229404  0.274023451652738  1.0000
  O   O3        1.0  0.7326698312949207  0.38154035843873413  0.22597611450848376  1.0000
  O   O4        1.0  0.6598851308253947  0.8812873042272004  0.7259781805906869  1.0000
  O   O5        1.0  0.9497066846597236  0.6100306457469673  0.792493914539392  1.0000
  O   O6        1.0  0.647611846125777  0.11017002462265418  0.29270763200450733  1.0000
  O   O7        1.0  0.05029559669785047  0.38996956366299435  0.20750476472095866  1.0000
  O   O8        1.0  0.35238756678766986  0.889833510015059  0.7072934117176999  1.0000
  O   O9        1.0  0.31555737226702285  0.5028961164195922  0.9785479205185652  1.0000
  O   O10       1.0  0.2029536676711175  0.0028781084635696014  0.47860279507145986  1.0000
  O   O11       1.0  0.684445849927862  0.49709862511299013  0.021451591032743446  1.0000
  O   O12       1.0  0.7970412259801878  0.9971221475053087  0.5213988425096402  1.0000
  O   O13       1.0  0.28744900617393654  0.2785683829780013  0.044592306670217866  1.0000
  O   O14       1.0  0.38928019181271656  0.7783361333074696  0.5444332381268068  1.0000
  O   O15       1.0  0.7125594736082951  0.7214252137567742  0.9554040934029401  1.0000
  O   O16       1.0  0.6107224136783316  0.2216630073684557  0.4555672170741757  1.0000
  O   O17       1.0  0.9249672728071023  0.11853605126073324  0.651129059240283  1.0000
  O   O18       1.0  0.30492358018683074  0.6188051035423855  0.15095676038499306  1.0000
  O   O19       1.0  0.07502234747530442  0.881464218668306  0.34887344205351667  1.0000
  O   O20       1.0  0.6950751614935698  0.38119402936119684  0.8490431621233155  1.0000
  O   O21       1.0  0.8077003674481557  0.36263334086527277  0.605329410265746  1.0000
  O   O22       1.0  0.22465394638553712  0.8628745621591067  0.10512746277516524  1.0000
  O   O23       1.0  0.19230718727831708  0.6373668545845208  0.3946684052819193  1.0000
  O   O24       1.0  0.7753389229866628  0.13712344040996532  0.8948701999134768  1.0000
  O   O25       1.0  0.9525208805967578  0.8855169918906469  0.8484899427005386  1.0000
  O   O26       1.0  0.3134085626918974  0.38566703326881685  0.3485290636081757  1.0000
  O   O27       1.0  0.047479335751070655  0.11447996835533304  0.15151125951675223  1.0000
  O   O28       1.0  0.6865884610783302  0.6143343209389442  0.65147272713034  1.0000
  O   O29       1.0  0.049999486943299774  0.6703946824346901  0.5838229907331325  1.0000
  O   O30       1.0  0.695426171361156  0.170265146876261  0.08399474870338956  1.0000
  O   O31       1.0  0.9500022993318142  0.3296099017953296  0.41617505820730827  1.0000
  O   O32       1.0  0.30457592326587263  0.8297372377820835  0.9160028284122107  1.0000
