data_image0
_chemical_formula_structural       Mg6H42C72O18
_chemical_formula_sum              "Mg6 H42 C72 O18"
_cell_length_a       6.802124651096625
_cell_length_b       37.69806327910898
_cell_length_c       37.69384508102388
_cell_angle_alpha    119.64406355959795
_cell_angle_beta     93.44693863515059
_cell_angle_gamma    93.44287075531811

_space_group_name_H-M_alt    "P 1"
_space_group_IT_number       1

loop_
  _space_group_symop_operation_xyz
  'x, y, z'

loop_
  _atom_site_type_symbol
  _atom_site_label
  _atom_site_symmetry_multiplicity
  _atom_site_fract_x
  _atom_site_fract_y
  _atom_site_fract_z
  _atom_site_occupancy
  Mg  Mg1       1.0  0.7866386581505934  0.67089822603387  0.36310457522111517  1.0000
  Mg  Mg2       1.0  0.6155855779383187  0.3326397539140232  0.6384005367099591  1.0000
  Mg  Mg3       1.0  0.42361271249217947  0.6369422846663112  0.30783124015601276  1.0000
  Mg  Mg4       1.0  0.9770913583859837  0.3615679501020708  0.6941976362093529  1.0000
  Mg  Mg5       1.0  0.11571239909027754  0.6921867838623967  0.3291328134341641  1.0000
  Mg  Mg6       1.0  0.2828320671566757  0.3057657867814427  0.6673098896700013  1.0000
  H   H1        1.0  0.9294082321569236  0.1897168578728881  0.6013740670443186  1.0000
  H   H2        1.0  0.8587346552826955  0.11741035541600552  0.5616652910284331  1.0000
  H   H3        1.0  0.42989389807308936  0.0841654024318714  0.522106485720599  1.0000
  H   H4        1.0  0.35015041025842203  0.014059717662974  0.4815660911151768  1.0000
  H   H5        1.0  0.4324125380422786  0.9428493927286041  0.44895684644302514  1.0000
  H   H6        1.0  0.03730164075464168  0.9861402402181199  0.5029367372648397  1.0000
  H   H7        1.0  0.9551946037772011  0.0573076871637923  0.5354845583960427  1.0000
  H   H8        1.0  0.9574568844891118  0.9163452485561622  0.46346365287129065  1.0000
  H   H9        1.0  0.5309643913529101  0.8820062612626244  0.42280092079806064  1.0000
  H   H10       1.0  0.46337288638290647  0.8090478837192949  0.3866583371280045  1.0000
  H   H11       1.0  0.16520748681107034  0.7909632840923636  0.4105518442376523  1.0000
  H   H12       1.0  0.06593629962832653  0.8605854983769632  0.43653117760567306  1.0000
  H   H13       1.0  0.3271139079287551  0.14113489018063774  0.5486294730711807  1.0000
  H   H14       1.0  0.23193365321882453  0.21148613490675672  0.5793719816026199  1.0000
  H   H15       1.0  0.3282460032098414  0.3986729976305057  0.5883550223088394  1.0000
  H   H16       1.0  0.2969135482004078  0.4384018065737649  0.5557203168047878  1.0000
  H   H17       1.0  0.9074654481642168  0.47792851216645715  0.5620903655659435  1.0000
  H   H18       1.0  0.8685820887126994  0.518591680759144  0.5325810138488551  1.0000
  H   H19       1.0  0.9835517333984497  0.5511590287309928  0.4939521029833359  1.0000
  H   H20       1.0  0.5340673805207601  0.4969936710280791  0.4831867679386123  1.0000
  H   H21       1.0  0.4191392407014972  0.4644591544775095  0.5217939016027915  1.0000
  H   H22       1.0  0.4942257731508306  0.5365137724901174  0.4529082177833389  1.0000
  H   H23       1.0  0.10837092084582885  0.5771717090566212  0.4591964434172129  1.0000
  H   H24       1.0  0.07687289625117444  0.6133784934505186  0.4224024534280135  1.0000
  H   H25       1.0  0.7546651989300912  0.5893828230873339  0.38036266210571074  1.0000
  H   H26       1.0  0.6292794331935241  0.5633454660387827  0.4239430194534537  1.0000
  H   H27       1.0  0.778442543607767  0.4513328007021897  0.5924408705631381  1.0000
  H   H28       1.0  0.6526119765014046  0.42064544444593105  0.63211228508672  1.0000
  H   H29       1.0  0.7395593901679971  0.41164805582189956  0.8102546006285042  1.0000
  H   H30       1.0  0.7410606795634819  0.44427367832481934  0.8826093599595526  1.0000
  H   H31       1.0  0.3454612029749101  0.43792501157579283  0.9158573723923029  1.0000
  H   H32       1.0  0.33616534506089835  0.4674216427832647  0.9859942445076586  1.0000
  H   H33       1.0  0.48953555502983886  0.5060445970105006  0.0571909031194906  1.0000
  H   H34       1.0  0.05091895856425313  0.516819840728509  0.01384726326437397  1.0000
  H   H35       1.0  0.8977269887141617  0.47814174081783284  0.9426945246986381  1.0000
  H   H36       1.0  0.04127163489108912  0.5470903388093261  0.08362977620749487  1.0000
  H   H37       1.0  0.649173818991784  0.5407914974104457  0.11800789697316816  1.0000
  H   H38       1.0  0.6545763181339551  0.5775912422539946  0.19100444659297014  1.0000
  H   H39       1.0  0.3743285504142834  0.619604873361844  0.20904231952908262  1.0000
  H   H40       1.0  0.20535740106961242  0.5760382460748517  0.13943020638481585  1.0000
  H   H41       1.0  0.18582403874142983  0.4075003897757696  0.8588476590584125  1.0000
  H   H42       1.0  0.020414781004895095  0.36781690265706146  0.7884854846882734  1.0000
  C   C1        1.0  0.5237641986126248  0.24109186971304555  0.6069724640637093  1.0000
  C   C2        1.0  0.7244045103230405  0.2342754035832968  0.6132569190284728  1.0000
  C   C3        1.0  0.7754601600200032  0.1937710825043126  0.5957085364076564  1.0000
  C   C4        1.0  0.6384062880439884  0.159404008656459  0.5720127583244266  1.0000
  C   C5        1.0  0.7020110198963322  0.11840853955533959  0.5541298392739051  1.0000
  C   C6        1.0  0.5861816861191966  0.0827670835967567  0.529594745758388  1.0000
  C   C7        1.0  0.6452238353336524  0.04146723956754529  0.5111743570145963  1.0000
  C   C8        1.0  0.5016163633063684  0.0079302160277024  0.486341039105284  1.0000
  C   C9        1.0  0.548179106128636  0.9677248358371244  0.46790913368306547  1.0000
  C   C10       1.0  0.7422881277861606  0.9587058007559577  0.47331104550475817  1.0000
  C   C11       1.0  0.8859281620275826  0.9922547886180059  0.49810447445878514  1.0000
  C   C12       1.0  0.8394524446049657  0.03244267509394662  0.5165061262116739  1.0000
  C   C13       1.0  0.8016675386224392  0.9174602937918195  0.4553318851682351  1.0000
  C   C14       1.0  0.6876322267061211  0.8815340627907275  0.4309243482489365  1.0000
  C   C15       1.0  0.7538575958492829  0.840829862426574  0.41457236868168235  1.0000
  C   C16       1.0  0.6182596406452275  0.8058375205875593  0.3927262648127014  1.0000
  C   C17       1.0  0.671761563676199  0.7657626345076308  0.3779550250952612  1.0000
  C   C18       1.0  0.8734077075798152  0.7600904689146474  0.38511168065986834  1.0000
  C   C19       1.0  0.011035286317295027  0.7954941235957165  0.40595023992523255  1.0000
  C   C20       1.0  0.9536119381334912  0.8343748442841915  0.4202788632054609  1.0000
  C   C21       1.0  0.5160278342987326  0.7311224681991321  0.355431135163869  1.0000
  C   C22       1.0  0.4401908654587032  0.16686612254396493  0.5666423325866959  1.0000
  C   C23       1.0  0.3851703404442475  0.2061884555021152  0.583592338790581  1.0000
  C   C24       1.0  0.8816982814367333  0.26804330506289625  0.6379697429345513  1.0000
  C   C25       1.0  0.9168785964426361  0.3930296504143485  0.6341024362025749  1.0000
  C   C26       1.0  0.11131561159697873  0.3867667266592036  0.6210187515266343  1.0000
  C   C27       1.0  0.17991217862264372  0.40432346818398923  0.5980656337342156  1.0000
  C   C28       1.0  0.066419485277578  0.4279980002776754  0.5873734596522058  1.0000
  C   C29       1.0  0.14768390497694386  0.4459046895423384  0.5642611502263365  1.0000
  C   C30       1.0  0.05623274795245692  0.47044178716241447  0.5531789382702784  1.0000
  C   C31       1.0  0.13368725322881403  0.4888735674207325  0.530308678448755  1.0000
  C   C32       1.0  0.01519340195589789  0.5137738677587221  0.521652568091895  1.0000
  C   C33       1.0  0.08026261136095063  0.532187771965134  0.4998712789127497  1.0000
  C   C34       1.0  0.2689672949903965  0.5267301063259779  0.4854318655951674  1.0000
  C   C35       1.0  0.3875783539160054  0.5018847364583507  0.4941684197245736  1.0000
  C   C36       1.0  0.322508564093738  0.48346960344514395  0.5159278711931992  1.0000
  C   C37       1.0  0.3465583169742033  0.5446711994535604  0.4621514108533732  1.0000
  C   C38       1.0  0.25689422073357093  0.569040087162236  0.45058233878208415  1.0000
  C   C39       1.0  0.33927103528541386  0.5853574849985463  0.42619390074635555  1.0000
  C   C40       1.0  0.22563987846685069  0.607264694772603  0.41310597132437743  1.0000
  C   C41       1.0  0.29395236700158733  0.6220718815694044  0.38782709180446795  1.0000
  C   C42       1.0  0.4883782110186418  0.6148845091965144  0.3749625729047496  1.0000
  C   C43       1.0  0.60505361860627  0.5939792290213647  0.3894732802267102  1.0000
  C   C44       1.0  0.5332858137484636  0.5796344675649295  0.4140117525541528  1.0000
  C   C45       1.0  0.16073764511594402  0.6446336187949485  0.3757479562360901  1.0000
  C   C46       1.0  0.8735168360270221  0.43334431562345094  0.6001964143040086  1.0000
  C   C47       1.0  0.8015982154241071  0.41640496971438523  0.6225784863072124  1.0000
  C   C48       1.0  0.24381047754969393  0.3620420997471498  0.6300722279853803  1.0000
  C   C49       1.0  0.282572306147209  0.36584318221418494  0.758864387950233  1.0000
  C   C50       1.0  0.49006816419744587  0.37895220958479564  0.7656942788580212  1.0000
  C   C51       1.0  0.5815629727117652  0.40193084123557554  0.8062106731321779  1.0000
  C   C52       1.0  0.4788829722139667  0.41263127940272426  0.8405920660865933  1.0000
  C   C53       1.0  0.5833483788313388  0.43573405279924776  0.8816081212030871  1.0000
  C   C54       1.0  0.5031355600098878  0.4468049631299992  0.917245123439557  1.0000
  C   C55       1.0  0.6035930585400422  0.46965189002264646  0.9585451332104287  1.0000
  C   C56       1.0  0.49371905942071237  0.4783295882176192  0.9921097829491434  1.0000
  C   C57       1.0  0.5804473902766389  0.5001171076208236  0.032314691117143475  1.0000
  C   C58       1.0  0.7835578496490283  0.5145614507938489  0.04131582235276452  1.0000
  C   C59       1.0  0.8934688319870643  0.5058193122898017  0.00774251950267058  1.0000
  C   C60       1.0  0.8068195321434358  0.48400141435310934  0.9675531609626379  1.0000
  C   C61       1.0  0.8843750315985374  0.5378560681787689  0.0825459036521821  1.0000
  C   C62       1.0  0.8062886750459054  0.5493952292143759  0.11848171915663396  1.0000
  C   C63       1.0  0.9130956930462231  0.5737796809506719  0.15919073802527353  1.0000
  C   C64       1.0  0.8126099549361001  0.5868975245511124  0.1941950318296366  1.0000
  C   C65       1.0  0.9061526003789312  0.6121977573421803  0.23427616330917558  1.0000
  C   C66       1.0  0.11345182420584628  0.625042118012729  0.23995346914242796  1.0000
  C   C67       1.0  0.21558666055062758  0.610500731965757  0.20452890554923903  1.0000
  C   C68       1.0  0.11926557322022563  0.5859591541659199  0.16564987952426705  1.0000
  C   C69       1.0  0.7849257840138363  0.6242857342865592  0.26890260734563753  1.0000
  C   C70       1.0  0.2732165983482631  0.39977963733731064  0.8331137989721642  1.0000
  C   C71       1.0  0.17893170624326873  0.37737155838876657  0.7937822237845824  1.0000
  C   C72       1.0  0.6135973230538312  0.3699073260097308  0.7319183367983018  1.0000
  O   O1        1.0  0.3410724605363883  0.7367935835004715  0.34679301574369975  1.0000
  O   O2        1.0  0.5607906856462962  0.6944994599612145  0.34495668885929137  1.0000
  O   O3        1.0  0.9396163699503006  0.7234514468003042  0.37323551361901525  1.0000
  O   O4        1.0  0.0556120247681307  0.2609279811786607  0.645346041644679  1.0000
  O   O5        1.0  0.8396455861369886  0.3054483591199925  0.6518342222487592  1.0000
  O   O6        1.0  0.4592825155439613  0.27830151003996656  0.6219580968321383  1.0000
  O   O7        1.0  0.9945071642994208  0.6533029164508407  0.39009929029499113  1.0000
  O   O8        1.0  0.21590858662094095  0.6551013920446849  0.3495880301826589  1.0000
  O   O9        1.0  0.5665552466986981  0.6267675943526924  0.3502100176607001  1.0000
  O   O10       1.0  0.4103748105768689  0.35466381029585387  0.6155870766386686  1.0000
  O   O11       1.0  0.18773398060708507  0.3481499876622395  0.6535828533979855  1.0000
  O   O12       1.0  0.8373708112050265  0.37800883883071623  0.65629293638672  1.0000
  O   O13       1.0  0.6042974212273435  0.6099744896844045  0.26320730757026933  1.0000
  O   O14       1.0  0.8662545101172155  0.6504199311522855  0.3055399094002811  1.0000
  O   O15       1.0  0.21629055953960127  0.6497951977177437  0.27658945555587894  1.0000
  O   O16       1.0  0.7945907162729495  0.38441381452919643  0.7390122719424073  1.0000
  O   O17       1.0  0.534098447132884  0.3463702664094442  0.694513284467533  1.0000
  O   O18       1.0  0.18083203306834156  0.34364491568303634  0.7216535319287234  1.0000
