data_image0
_chemical_formula_structural       Zn2H14C40Br8N6O16
_chemical_formula_sum              "Zn2 H14 C40 Br8 N6 O16"
_cell_length_a       13.347803894276542
_cell_length_b       16.593067890227054
_cell_length_c       17.53815915254023
_cell_angle_alpha    95.13232068658671
_cell_angle_beta     90.46608594753889
_cell_angle_gamma    92.5270655333925

_space_group_name_H-M_alt    "P 1"
_space_group_IT_number       1

loop_
  _space_group_symop_operation_xyz
  'x, y, z'

loop_
  _atom_site_type_symbol
  _atom_site_label
  _atom_site_symmetry_multiplicity
  _atom_site_fract_x
  _atom_site_fract_y
  _atom_site_fract_z
  _atom_site_occupancy
  Zn  Zn1       1.0  0.5103349832595896  0.4085882626436828  0.5077756132517521  1.0000
  Zn  Zn2       1.0  0.5093008915124599  0.5888318259101908  0.5129977721033896  1.0000
  H   H1        1.0  0.3848503875160956  0.7074786167310307  0.4559991852536882  1.0000
  H   H2        1.0  0.3728384254442004  0.8558655753846409  0.45308775686254427  1.0000
  H   H3        1.0  0.35521721207523876  0.1234776701989659  0.3946800450651935  1.0000
  H   H4        1.0  0.5850297316107458  0.11916469732921088  0.570054924499459  1.0000
  H   H5        1.0  0.5635775197747037  0.003830244242052999  0.5605854202990983  1.0000
  H   H6        1.0  0.40278673815197397  0.9901613841393984  0.4323302893511851  1.0000
  H   H7        1.0  0.4411777182588422  0.5949767918489641  0.2759800268499575  1.0000
  H   H8        1.0  0.42980835580866733  0.5890442390791292  0.13413134417260147  1.0000
  H   H9        1.0  0.47867186962283625  0.6502102870039934  0.8929872904922789  1.0000
  H   H10       1.0  0.46552019693466906  0.3901990684218574  0.8925420537188202  1.0000
  H   H11       1.0  0.4972972044223454  0.4081349577474356  0.004485598479014594  1.0000
  H   H12       1.0  0.48570479753589507  0.5936867845390522  0.014424202408910994  1.0000
  H   H13       1.0  0.8067653593920026  0.6437940206448898  0.49149034651237855  1.0000
  H   H14       1.0  0.21012448156361774  0.37056409083415787  0.499548486210351  1.0000
  C   C1        1.0  0.5094285558611631  0.49199811476421457  0.3648553379698285  1.0000
  C   C2        1.0  0.3142275447781628  0.5087488785949218  0.5057895134755555  1.0000
  C   C3        1.0  0.4939350380071871  0.49731045061001566  0.6542677043577213  1.0000
  C   C4        1.0  0.7032048810251225  0.5071437419033342  0.5004929090846986  1.0000
  C   C5        1.0  0.4419525585668465  0.7493850187266844  0.4836893480838711  1.0000
  C   C6        1.0  0.4365181178543835  0.8321907974311101  0.4817155685346535  1.0000
  C   C7        1.0  0.5114701362293272  0.8850270902894124  0.5177330363938708  1.0000
  C   C8        1.0  0.589890968748051  0.848990815947559  0.5553408989256495  1.0000
  C   C9        1.0  0.5881482532417335  0.7644049801842455  0.557072335303971  1.0000
  C   C10       1.0  0.5105260345211204  0.9726098813037466  0.5193307130910441  1.0000
  C   C11       1.0  0.45577342721229286  0.0179566869251815  0.4758252149120992  1.0000
  C   C12       1.0  0.41016465484993603  0.15224954769986  0.4357900904126666  1.0000
  C   C13       1.0  0.46678083473914705  0.10636093629832999  0.48229111313808193  1.0000
  C   C14       1.0  0.5362737645782046  0.1492392006715164  0.5328065793813082  1.0000
  C   C15       1.0  0.5461359790552291  0.23286512794948774  0.5347215652193853  1.0000
  C   C16       1.0  0.42529338349064  0.2362906852304008  0.4415259960004363  1.0000
  C   C17       1.0  0.5118065712936256  0.48232662788834796  0.27867594427799247  1.0000
  C   C18       1.0  0.4702649554768782  0.5442174133117206  0.24056630552659186  1.0000
  C   C19       1.0  0.4646779279629385  0.5408084296766801  0.16162246023620946  1.0000
  C   C20       1.0  0.5004512482533697  0.4745237402743996  0.1156094263500549  1.0000
  C   C21       1.0  0.5429874063749763  0.4120938776341986  0.15351401355644606  1.0000
  C   C22       1.0  0.5502566110389181  0.4156476308805778  0.2339341586334385  1.0000
  C   C23       1.0  0.493016133452194  0.46919948775347103  0.03250909336100699  1.0000
  C   C24       1.0  0.48484771784738706  0.5313084698681719  0.9881972731084261  1.0000
  C   C25       1.0  0.4782675480672721  0.5897987081701428  0.8629850143440478  1.0000
  C   C26       1.0  0.47878726931864424  0.5215439463540363  0.9047845435116741  1.0000
  C   C27       1.0  0.4712553223028093  0.44520934613941426  0.8632054219713083  1.0000
  C   C28       1.0  0.46960401208311  0.43758640763685713  0.7837617805268308  1.0000
  C   C29       1.0  0.4781425178917544  0.5054791545407511  0.7395965205213813  1.0000
  C   C30       1.0  0.4764597597892148  0.5817427185909878  0.7832368780706034  1.0000
  C   C31       1.0  0.8816487616044596  0.4524129313685847  0.48577253474020665  1.0000
  C   C32       1.0  0.8576923640735288  0.5942750062443521  0.488936536813064  1.0000
  C   C33       1.0  0.9590597814791336  0.6097884668425451  0.4846514372588118  1.0000
  C   C34       1.0  0.029851901798522786  0.5477990209448647  0.48439967420176794  1.0000
  C   C35       1.0  0.1364645673101421  0.560576013907415  0.4882641186121219  1.0000
  C   C36       1.0  0.15937832708157623  0.41957691848407563  0.495727333788608  1.0000
  C   C37       1.0  0.058601548848748984  0.40305359074756086  0.4853717508152471  1.0000
  C   C38       1.0  0.9880865133476886  0.46525762735493  0.48371430800988696  1.0000
  C   C39       1.0  0.8162141936472124  0.5151247933153157  0.49028327328075966  1.0000
  C   C40       1.0  0.20095420127807265  0.49898716006206456  0.49710214414265147  1.0000
  Br  Br1       1.0  0.6870278541129407  0.7168640074488122  0.6130458293190841  1.0000
  Br  Br2       1.0  0.698367320880976  0.9131937386411337  0.6016557798586888  1.0000
  Br  Br3       1.0  0.6455123873243948  0.28387397029443656  0.6007412764781321  1.0000
  Br  Br4       1.0  0.3487019690248303  0.29175362418412476  0.3737168358589997  1.0000
  Br  Br5       1.0  0.6174284154441878  0.33211275585097155  0.2775849628701081  1.0000
  Br  Br6       1.0  0.5945032714142042  0.3225654234087755  0.09268794351650908  1.0000
  Br  Br7       1.0  0.45041652604054855  0.3274310407482801  0.7424138928048478  1.0000
  Br  Br8       1.0  0.4623632378367119  0.6819904752162599  0.7393926621269102  1.0000
  N   N1        1.0  0.5164124938376559  0.7157617948835975  0.5210677142538813  1.0000
  N   N2        1.0  0.49136717046091133  0.27807116816263994  0.4905834945535973  1.0000
  N   N3        1.0  0.033178902612988295  0.31536336023821576  0.46843806407521527  1.0000
  N   N4        1.0  0.8386790906372567  0.3689729116961756  0.4886184468057237  1.0000
  N   N5        1.0  0.9856295129934266  0.6964308961485556  0.4771459329278472  1.0000
  N   N6        1.0  0.18312536005933563  0.6427454844073139  0.48379047378757883  1.0000
  O   O1        1.0  0.5325200999039054  0.43138109516251427  0.3997119970688345  1.0000
  O   O2        1.0  0.48311816373711025  0.5598043274436221  0.3966124556592944  1.0000
  O   O3        1.0  0.3531201224874465  0.5787153715656783  0.5256401525223707  1.0000
  O   O4        1.0  0.35902266323384424  0.44360481543710517  0.4926235926107978  1.0000
  O   O5        1.0  0.5261601895309127  0.5596904721669987  0.623304554772993  1.0000
  O   O6        1.0  0.4773490234577124  0.4274669210312823  0.618928651787357  1.0000
  O   O7        1.0  0.6661820100590315  0.4434450190711841  0.525444421281172  1.0000
  O   O8        1.0  0.6570304339596048  0.568963913995617  0.48467427446504974  1.0000
  O   O9        1.0  0.9846758612155995  0.2963230094120065  0.4084892849949924  1.0000
  O   O10       1.0  0.068364076726823  0.26822770712565347  0.5110617480230815  1.0000
  O   O11       1.0  0.7857563252693821  0.33964606463201347  0.4346992722099046  1.0000
  O   O12       1.0  0.8614957710186104  0.3356459523388152  0.5464912132230495  1.0000
  O   O13       1.0  0.029039529764354182  0.7119662046794841  0.4177212912896167  1.0000
  O   O14       1.0  0.9563777188389009  0.7462427109551015  0.5276376775564202  1.0000
  O   O15       1.0  0.22686514991345055  0.6548525536212181  0.4239181945461326  1.0000
  O   O16       1.0  0.1745191133380146  0.6919326502545715  0.5401912439651255  1.0000
