data_image0
_chemical_formula_structural       Rb2H28C12I2N8O2
_chemical_formula_sum              "Rb2 H28 C12 I2 N8 O2"
_cell_length_a       6.914314038986779
_cell_length_b       9.602457481785425
_cell_length_c       10.190358917609272
_cell_angle_alpha    65.99374348104357
_cell_angle_beta     70.16901085626475
_cell_angle_gamma    68.90540236776867

_space_group_name_H-M_alt    "P 1"
_space_group_IT_number       1

loop_
  _space_group_symop_operation_xyz
  'x, y, z'

loop_
  _atom_site_type_symbol
  _atom_site_label
  _atom_site_symmetry_multiplicity
  _atom_site_fract_x
  _atom_site_fract_y
  _atom_site_fract_z
  _atom_site_occupancy
  Rb  Rb1       1.0  0.5267706163611052  0.160186030018231  0.7863401877687295  1.0000
  Rb  Rb2       1.0  0.4732261329781763  0.8398143309134696  0.21365999384184414  1.0000
  H   H1        1.0  0.7866561343062771  0.77805667707797  0.8802566759262761  1.0000
  H   H2        1.0  0.4445799106681676  0.2219136774307557  0.11974296956239525  1.0000
  H   H3        1.0  0.21334474655981234  0.22194486464137245  0.11974320719286168  1.0000
  H   H4        1.0  0.5554211701835781  0.778086673456457  0.8802559494630343  1.0000
  H   H5        1.0  0.13280024285144532  0.4791917881496701  0.9133215945090782  1.0000
  H   H6        1.0  0.525217729615555  0.5207278549940001  0.08660622177191608  1.0000
  H   H7        1.0  0.867196713782775  0.5208085836171179  0.08667991644350069  1.0000
  H   H8        1.0  0.4747802062493135  0.47927250884412603  0.913394308863374  1.0000
  H   H9        1.0  0.05838304471555474  0.5360088408727607  0.7431335767263717  1.0000
  H   H10       1.0  0.33717032679420084  0.46399416445155595  0.2567277895570327  1.0000
  H   H11       1.0  0.9416156703943058  0.46399270586882574  0.2568669376853449  1.0000
  H   H12       1.0  0.6628305893880934  0.5360038343702203  0.7432728402822875  1.0000
  H   H13       1.0  0.00016225167991012983  0.8086451554681986  0.5867738354053172  1.0000
  H   H14       1.0  0.39535774856193484  0.19118393101113182  0.4132307297430485  1.0000
  H   H15       1.0  0.999835484199302  0.19135639920204991  0.4132276593236881  1.0000
  H   H16       1.0  0.6046415738141775  0.8088152449012753  0.5867691858232504  1.0000
  H   H17       1.0  0.03000313598632689  0.953650490310558  0.6432317612468452  1.0000
  H   H18       1.0  0.6266996870516975  0.04629889521135771  0.3567254240900865  1.0000
  H   H19       1.0  0.9699997459665467  0.046348694321103806  0.35676920139361806  1.0000
  H   H20       1.0  0.3733029876062303  0.9537002785852167  0.6432742092083643  1.0000
  H   H21       1.0  0.5655119828020504  0.6160586640231643  0.5151512257393734  1.0000
  H   H22       1.0  0.6961663743279232  0.3840186740913794  0.4848533726339639  1.0000
  H   H23       1.0  0.4344889333802443  0.38393933479861175  0.48484940409995403  1.0000
  H   H24       1.0  0.30383196881754043  0.6159805097496973  0.515147523249631  1.0000
  H   H25       1.0  0.16653246521938297  0.678108670890019  0.9890998579290197  1.0000
  H   H26       1.0  0.8334692302078962  0.3218905108352245  0.010900755686719735  1.0000
  H   H27       1.0  0.12605304323733413  0.8784318391218946  0.8697762396769946  1.0000
  H   H28       1.0  0.8739494314349371  0.1215685255068095  0.13022435771516425  1.0000
  C   C1        1.0  0.14845921012649652  0.5596113459686977  0.7989792072445069  1.0000
  C   C2        1.0  0.506723650294603  0.44035204090722874  0.20096424271343943  1.0000
  C   C3        1.0  0.8515395049833644  0.4403902007728817  0.20102130716720268  1.0000
  C   C4        1.0  0.4932746928508609  0.5596471429338479  0.7990366531701482  1.0000
  C   C5        1.0  0.09033351780006174  0.8307065531118026  0.6436767194940886  1.0000
  C   C6        1.0  0.5644938540693757  0.16922628985734892  0.3562953790619047  1.0000
  C   C7        1.0  0.909667935016081  0.16929616067591977  0.35632181805946306  1.0000
  C   C8        1.0  0.43550804134356724  0.830771701035765  0.6437042704601268  1.0000
  C   C9        1.0  0.39589452170980616  0.6373594032785093  0.5713214943502861  1.0000
  C   C10       1.0  0.6041026349100703  0.3626397776561491  0.42867905250858473  1.0000
  C   C11       1.0  0.1863198339222124  0.7544996070726171  0.8732118731665038  1.0000
  C   C12       1.0  0.8136812469295334  0.2455007438145954  0.12678704585893288  1.0000
  I   I1        1.0  0.03176398538470689  0.25222062111334503  0.684324067434197  1.0000
  I   I2        1.0  0.9682343151352697  0.7477809039580806  0.31567378829348763  1.0000
  N   N1        1.0  0.37480071753802235  0.5271079284125478  0.7237199693987364  1.0000
  N   N2        1.0  0.6251972183268463  0.4728924354255781  0.27628056123655387  1.0000
  N   N3        1.0  0.06122872915574368  0.7247687581187066  0.7995302358171443  1.0000
  N   N4        1.0  0.5851936970725545  0.2751839184890699  0.20046399580466098  1.0000
  N   N5        1.0  0.9387713724653536  0.2752316006971612  0.20046966352558113  1.0000
  N   N6        1.0  0.4148075910741295  0.7248164432332231  0.7995362525627812  1.0000
  N   N7        1.0  0.3155462109747729  0.803934140211979  0.5653005737264961  1.0000
  N   N8        1.0  0.6844519248757448  0.19606503279401727  0.4346989928150862  1.0000
  O   O1        1.0  0.6306201854952036  0.817154865844593  0.9220138144987756  1.0000
  O   O2        1.0  0.3693808953565423  0.1828454850426127  0.07798510452666105  1.0000
