data_image0
_chemical_formula_structural       Zn4H48C52S4N16O24
_chemical_formula_sum              "Zn4 H48 C52 S4 N16 O24"
_cell_length_a       6.928244832
_cell_length_b       10.649028709625416
_cell_length_c       19.709
_cell_angle_alpha    99.79656104226989
_cell_angle_beta     90.0
_cell_angle_gamma    90.0

_space_group_name_H-M_alt    "P 1"
_space_group_IT_number       1

loop_
  _space_group_symop_operation_xyz
  'x, y, z'

loop_
  _atom_site_type_symbol
  _atom_site_label
  _atom_site_symmetry_multiplicity
  _atom_site_fract_x
  _atom_site_fract_y
  _atom_site_fract_z
  _atom_site_occupancy
  Zn  Zn1       1.0  0.1644370295255726  0.1577720706693952  0.8265255920970347  1.0000
  Zn  Zn2       1.0  0.664439567542118  0.8422292848999362  0.6734743295735157  1.0000
  Zn  Zn3       1.0  0.835560829672481  0.8422292848999362  0.17347483695593272  1.0000
  Zn  Zn4       1.0  0.3355611783899518  0.1577711177208343  0.3265249971058211  1.0000
  H   H1        1.0  0.8434776977003935  0.2325318387084678  0.7773379070324253  1.0000
  H   H2        1.0  0.343479489784869  0.7674685639122957  0.7226619270293284  1.0000
  H   H3        1.0  0.15652016149766718  0.7674685639122957  0.22266192702932838  1.0000
  H   H4        1.0  0.6565212561472009  0.2325318387084678  0.2773373996500084  1.0000
  H   H5        1.0  0.8245652598207727  0.28656592836127  0.8610522665772606  1.0000
  H   H6        1.0  0.3245656085382436  0.7134354272080685  0.6389466403284629  1.0000
  H   H7        1.0  0.1754325993772881  0.7134354272080685  0.1389471477108799  1.0000
  H   H8        1.0  0.6754336940268216  0.286564975412702  0.36105217896845687  1.0000
  H   H9        1.0  0.12192698446485649  0.9242648152489679  0.8274655584901822  1.0000
  H   H10       1.0  0.6219266357473927  0.0757355873718026  0.6725342755715715  1.0000
  H   H11       1.0  0.8780723181002015  0.0757355873718026  0.1725337681891546  1.0000
  H   H12       1.0  0.37807266681767254  0.9242648152489679  0.3274655584901823  1.0000
  H   H13       1.0  0.9006234842019509  0.9644563740157891  0.8188910256486182  1.0000
  H   H14       1.0  0.4006223895524101  0.0355440286049813  0.6811088084131285  1.0000
  H   H15       1.0  0.0993758183631144  0.0355440286049813  0.1811088084131285  1.0000
  H   H16       1.0  0.5993769130126481  0.9644563740157891  0.3188910256486182  1.0000
  H   H17       1.0  0.4585880085133809  0.8127393385418672  0.9382633145324563  1.0000
  H   H18       1.0  0.9585919898969307  0.1872601111303354  0.5617369393029108  1.0000
  H   H19       1.0  0.5414084073176681  0.1872601111303354  0.0617369393029108  1.0000
  H   H20       1.0  0.0414116427691482  0.8127402914904351  0.4382618799940161  1.0000
  H   H21       1.0  0.4093937308478742  0.2848858800374359  0.7199997453920304  1.0000
  H   H22       1.0  0.9093933821304105  0.7151145225833346  0.7800011034345502  1.0000
  H   H23       1.0  0.5906026849831747  0.7151164284804707  0.2800007712697337  1.0000
  H   H24       1.0  0.0906073638016593  0.2848839741402998  0.21999855540960309  1.0000
  H   H25       1.0  0.5522625272027923  0.5031273020333842  0.719211247203674  1.0000
  H   H26       1.0  0.0522614325532516  0.4968721476388183  0.7807900213965269  1.0000
  H   H27       1.0  0.4477338886282567  0.4968750064845153  0.28078926945809  1.0000
  H   H28       1.0  0.9477364266448021  0.5031253961362552  0.2192090424564199  1.0000
  H   H29       1.0  0.5278378707272537  0.6667075942193748  0.8248937790572554  1.0000
  H   H30       1.0  0.0278382194447246  0.3332928084013957  0.675107577151735  1.0000
  H   H31       1.0  0.47216287520480893  0.3332937613499567  0.1751076647605387  1.0000
  H   H32       1.0  0.9721654132213544  0.6667075942193748  0.3248917495276018  1.0000
  H   H33       1.0  0.3732604812196669  0.876737458412464  0.0637775718426141  1.0000
  H   H34       1.0  0.8732615758692076  0.1232638971568747  0.43622285721035325  1.0000
  H   H35       1.0  0.6267359346113821  0.1232638971568747  0.9362228572103533  1.0000
  H   H36       1.0  0.1267377266958576  0.8767355525153278  0.5637763818601869  1.0000
  H   H37       1.0  0.1393339905572191  0.4632054277110599  0.11171132933507981  1.0000
  H   H38       1.0  0.6393394153077736  0.5367959278582788  0.3882896071002975  1.0000
  H   H39       1.0  0.86066242527383  0.5367959278582788  0.8882901144827146  1.0000
  H   H40       1.0  0.36066133062429623  0.4632016159167875  0.6117099641350521  1.0000
  H   H41       1.0  0.0471490266180012  0.2300436899997251  0.0957351688813901  1.0000
  H   H42       1.0  0.5471515646345466  0.7699576655696134  0.4042652601715702  1.0000
  H   H43       1.0  0.9528488325800524  0.7699576655696134  0.9042657675539871  1.0000
  H   H44       1.0  0.4528506246645278  0.23004083115402102  0.5957333839077492  1.0000
  H   H45       1.0  0.0721596900979691  0.09861207067406498  0.9780434705408112  1.0000
  H   H46       1.0  0.5721607847475099  0.9013873789981375  0.5219567832945557  1.0000
  H   H47       1.0  0.9278381691000844  0.9013892848952665  0.021957973276983015  1.0000
  H   H48       1.0  0.4278385178175554  0.098610164776936  0.4780412657935571  1.0000
  C   C1        1.0  0.4083703836406229  0.3585144981273416  0.765759567998316  1.0000
  C   C2        1.0  0.9083700349231518  0.641486857441997  0.7342413684370612  1.0000
  C   C3        1.0  0.5916289189244424  0.6414887633391331  0.23424103627224474  1.0000
  C   C4        1.0  0.0916321543759224  0.3585116392816374  0.2657577830246823  1.0000
  C   C5        1.0  0.486241476981334  0.4799792283894959  0.7656066590476982  1.0000
  C   C6        1.0  0.9862411282638703  0.5200202212827065  0.7343946095524956  1.0000
  C   C7        1.0  0.5137563822167195  0.5200211742312746  0.2343946971612922  1.0000
  C   C8        1.0  0.013759617668199596  0.4799792283894959  0.2656051369004615  1.0000
  C   C9        1.0  0.472812390357511  0.5709820047551162  0.8245539017589891  1.0000
  C   C10       1.0  0.9728134850070518  0.4290193508142224  0.675447542058805  1.0000
  C   C11       1.0  0.5271883555745589  0.4290203037627904  0.17544712228518483  1.0000
  C   C12       1.0  0.027191591026039  0.570979145909412  0.3245511020205214  1.0000
  C   C13       1.0  0.38390964298993413  0.5390496512195142  0.8837436434538546  1.0000
  C   C14       1.0  0.8839078509054659  0.46094693960698413  0.6162563475551152  1.0000
  C   C15       1.0  0.6160925463091402  0.46094884550412024  0.1162575375375354  1.0000
  C   C16       1.0  0.1160943383936086  0.5390506041680823  0.3837417015329976  1.0000
  C   C17       1.0  0.3587734065804469  0.6215778559777405  0.948081551273475  1.0000
  C   C18       1.0  0.8587745012299804  0.37842254664303  0.5519192975531055  1.0000
  C   C19       1.0  0.6412287827186276  0.3784215936944619  0.0519197173267187  1.0000
  C   C20       1.0  0.1412320181701077  0.6215788089263086  0.4480796093526179  1.0000
  C   C21       1.0  0.353086540576804  0.7806640427211988  0.03553012750074201  1.0000
  C   C22       1.0  0.853090521960354  0.21933540695100356  0.4644696189522151  1.0000
  C   C23       1.0  0.6469084318872403  0.21933540695100356  0.9644701263346249  1.0000
  C   C24       1.0  0.1469116673387205  0.7806640427211988  0.5355291127359082  1.0000
  C   C25       1.0  0.2838799793731113  0.580883140367483  0.006941147385710225  1.0000
  C   C26       1.0  0.7838825173896495  0.4191163093047194  0.4930601212144907  1.0000
  C   C27       1.0  0.7161207665589586  0.4191163093047194  0.9930601212144907  1.0000
  C   C28       1.0  0.21612111527642944  0.580883140367483  0.5069391178560494  1.0000
  C   C29       1.0  0.22318495340379485  0.4517767155455985  0.0051347351392152995  1.0000
  C   C30       1.0  0.7231874914203402  0.548223687075172  0.4948671284521923  1.0000
  C   C31       1.0  0.7768143491612705  0.548223687075172  0.9948671284521922  1.0000
  C   C32       1.0  0.2768161412457459  0.4517757625970305  0.5051326180007649  1.0000
  C   C33       1.0  0.1517411733407954  0.4011208285632435  0.0618674346554116  1.0000
  C   C34       1.0  0.6517451547243454  0.5988814799546631  0.4381346041535891  1.0000
  C   C35       1.0  0.8482552424902536  0.5988805270060951  0.9381345165447925  1.0000
  C   C36       1.0  0.34825559120772437  0.4011179697175394  0.5618661570641876  1.0000
  C   C37       1.0  0.1002620457047954  0.273715416933662  0.0532332851842838  1.0000
  C   C38       1.0  0.6002674704553499  0.7262840327385405  0.446767476033493  1.0000
  C   C39       1.0  0.8997387002272745  0.7262840327385405  0.946767476033493  1.0000
  C   C40       1.0  0.3997390489447383  0.273713511036533  0.5532326025842735  1.0000
  C   C41       1.0  0.1149540784588723  0.198583046004849  0.9875665822743827  1.0000
  C   C42       1.0  0.6149537297414014  0.8014192625130576  0.5124329196225546  1.0000
  C   C43       1.0  0.8850466674731976  0.8014192625130576  0.012434441769791211  1.0000
  C   C44       1.0  0.3850455728236568  0.19858018715914483  0.48756428991833184  1.0000
  C   C45       1.0  0.23622144420198765  0.3684442221967217  0.9407330331417256  1.0000
  C   C46       1.0  0.7362196521175122  0.6315542745269127  0.5592671330848447  1.0000
  C   C47       1.0  0.7637793017300821  0.6315561804240488  0.059267815684855  1.0000
  C   C48       1.0  0.2637825371815623  0.3684451751452897  0.4407321059856955  1.0000
  C   C49       1.0  0.3156499305421789  0.412036854399588  0.8803132786956881  1.0000
  C   C50       1.0  0.815649581824708  0.5879616423240464  0.6196879022957091  1.0000
  C   C51       1.0  0.684350815389891  0.5879645011697434  0.11968816512209911  1.0000
  C   C52       1.0  0.1843526074743664  0.412036854399588  0.3803112491660343  1.0000
  S   S1        1.0  0.49555119417004073  0.9338895957768685  0.8299517062567148  1.0000
  S   S2        1.0  0.9955508454525697  0.066109853895334  0.6700480401962422  1.0000
  S   S3        1.0  0.5044481083950245  0.066109853895334  0.1700480401962423  1.0000
  S   S4        1.0  0.0044470137454837  0.9338905487254366  0.3299523012479284  1.0000
  N   N1        1.0  0.3256149363516059  0.3266107330487529  0.8213231389313193  1.0000
  N   N2        1.0  0.8256145876341348  0.6733896695720176  0.6786777098952612  1.0000
  N   N3        1.0  0.6743829228464548  0.6733896695720176  0.17867821727767108  1.0000
  N   N4        1.0  0.1743847149309303  0.3266097801001848  0.32132203655769587  1.0000
  N   N5        1.0  0.1797756906983423  0.2450354768576446  0.9332892892483428  1.0000
  N   N6        1.0  0.679776785347876  0.7549639728145578  0.566711979351858  1.0000
  N   N7        1.0  0.8202221684997183  0.7549649257631259  0.06671257434307169  1.0000
  N   N8        1.0  0.32022540395119836  0.24503452390907648  0.4332881868747124  1.0000
  N   N9        1.0  0.4009413736607427  0.7485420524207456  0.9679126435788206  1.0000
  N   N10       1.0  0.9009439116772809  0.2514573972514569  0.5320876102565464  1.0000
  N   N11       1.0  0.5990564855373178  0.2514583502000249  0.032087697865343  1.0000
  N   N12       1.0  0.09906116435580259  0.7485410994721775  0.4679110338227801  1.0000
  N   N13       1.0  0.2827642566774671  0.6817374990199809  0.06109618534802762  1.0000
  N   N14       1.0  0.7827667946940124  0.3182619506522215  0.4389040684873393  1.0000
  N   N15       1.0  0.7172336025205865  0.3182629036007896  0.938904663478553  1.0000
  N   N16       1.0  0.2172339512380574  0.6817374990199809  0.5610951705832008  1.0000
  O   O1        1.0  0.9134016123060675  0.270476344754023  0.8196679601303102  1.0000
  O   O2        1.0  0.413403404390543  0.7295278696610126  0.6803307022194005  1.0000
  O   O3        1.0  0.0865962468919861  0.7295288226095806  0.180331804593024  1.0000
  O   O4        1.0  0.5865973415415269  0.2704715800111899  0.3196680294687297  1.0000
  O   O5        1.0  0.4428480913129462  0.0662794787402774  0.8229663693536294  1.0000
  O   O6        1.0  0.942849185962487  0.9337209238804931  0.6770334647081171  1.0000
  O   O7        1.0  0.557151211252112  0.9337209238804931  0.1770329573257072  1.0000
  O   O8        1.0  0.0571501166025783  0.0662794787402774  0.3229668767360465  1.0000
  O   O9        1.0  0.0220127902085068  0.9904995054065892  0.8440266736936621  1.0000
  O   O10       1.0  0.522012441491043  0.0095018501627493  0.6559732479768883  1.0000
  O   O11       1.0  0.9779865123565514  0.0095008972141812  0.1559731603680916  1.0000
  O   O12       1.0  0.4779868610740223  0.9904995054065892  0.3440266736936621  1.0000
  O   O13       1.0  0.6667763787248333  0.8925335338610266  0.7843103983565882  1.0000
  O   O14       1.0  0.1667767274423042  0.1074668687597367  0.7156899430875753  1.0000
  O   O15       1.0  0.333222923840232  0.1074649628626076  0.2156897678699821  1.0000
  O   O16       1.0  0.8332240184897655  0.8925344868095948  0.2843104859653849  1.0000
  O   O17       1.0  0.5512449534635593  0.9272284852927086  0.9018422382022067  1.0000
  O   O18       1.0  0.0512453021810302  0.0727719173280619  0.59815759585954  1.0000
  O   O19       1.0  0.4487529057344942  0.0727709643794938  0.0981575082507433  1.0000
  O   O20       1.0  0.9487525570170234  0.9272284852927086  0.4018422382022066  1.0000
  O   O21       1.0  0.3289231335293579  0.8457180296041642  0.8084300037388417  1.0000
  O   O22       1.0  0.828922784811887  0.1542823730166063  0.6915693229404951  1.0000
  O   O23       1.0  0.6710747256687029  0.1542823730166063  0.1915698303229121  1.0000
  O   O24       1.0  0.1710750743861738  0.8457180296041642  0.3084305111212586  1.0000
