data_image0
_chemical_formula_structural       Cd8H128C164N16O48
_chemical_formula_sum              "Cd8 H128 C164 N16 O48"
_cell_length_a       14.047353935355646
_cell_length_b       20.423811186736156
_cell_length_c       20.423752887712677
_cell_angle_alpha    62.74511777587919
_cell_angle_beta     72.18105755496846
_cell_angle_gamma    72.18075583266568

_space_group_name_H-M_alt    "P 1"
_space_group_IT_number       1

loop_
  _space_group_symop_operation_xyz
  'x, y, z'

loop_
  _atom_site_type_symbol
  _atom_site_label
  _atom_site_symmetry_multiplicity
  _atom_site_fract_x
  _atom_site_fract_y
  _atom_site_fract_z
  _atom_site_occupancy
  Cd  Cd1       1.0  0.01907045498124652  0.915888383035146  0.293719643826037  1.0000
  Cd  Cd2       1.0  0.48092792872375156  0.7062750532510409  0.08411287976131371  1.0000
  Cd  Cd3       1.0  0.9809068994125879  0.08412077908665339  0.7062748822517833  1.0000
  Cd  Cd4       1.0  0.5190741916351698  0.2937222854038239  0.9158778438096603  1.0000
  Cd  Cd5       1.0  0.8120473725376555  0.7888749281479761  0.41110127112444406  1.0000
  Cd  Cd6       1.0  0.6879583240519266  0.5888930181040665  0.2111266455683916  1.0000
  Cd  Cd7       1.0  0.18796341559861668  0.21112695277497553  0.5888962431568174  1.0000
  Cd  Cd8       1.0  0.31205605023607325  0.4111122284507259  0.7888680430758441  1.0000
  H   H1        1.0  0.2890961050705626  0.5716991846203002  0.7934097745245692  1.0000
  H   H2        1.0  0.21089603930564493  0.20659127270400288  0.42830088780524284  1.0000
  H   H3        1.0  0.7108924865558848  0.4283043664001838  0.20658687634909254  1.0000
  H   H4        1.0  0.7890989123639752  0.7934083758527422  0.5717025592924186  1.0000
  H   H5        1.0  0.19677253974209918  0.6460473868865578  0.870940942241937  1.0000
  H   H6        1.0  0.3032212806217913  0.12906276273588455  0.3539522314286856  1.0000
  H   H7        1.0  0.8032237395421191  0.35395281544588636  0.1290604918157428  1.0000
  H   H8        1.0  0.6967694785586928  0.87093856998586  0.6460508536396218  1.0000
  H   H9        1.0  0.07534936276291405  0.44944330775160773  0.03704796568819544  1.0000
  H   H10       1.0  0.424653627410521  0.9629500992524243  0.5505539528415396  1.0000
  H   H11       1.0  0.9246537894800114  0.5505563276284421  0.9629517529832794  1.0000
  H   H12       1.0  0.5753492140970096  0.0370506546185823  0.4494443356004821  1.0000
  H   H13       1.0  0.17105440568540328  0.3843815964006296  0.9516741667792346  1.0000
  H   H14       1.0  0.32894836648917897  0.04832549867183642  0.6156147670758969  1.0000
  H   H15       1.0  0.8289488956151346  0.6156174773186366  0.04832577984087293  1.0000
  H   H16       1.0  0.6710567184220863  0.9516752542404066  0.38438303597654033  1.0000
  H   H17       1.0  0.04658975145923701  0.6918470122465834  0.005556769485195874  1.0000
  H   H18       1.0  0.45341153270370427  0.9944381098731795  0.30815158549701505  1.0000
  H   H19       1.0  0.9534126088117957  0.30815260654597415  0.9944397008201163  1.0000
  H   H20       1.0  0.546592637702112  0.005557584220213101  0.6918477801504678  1.0000
  H   H21       1.0  0.1763163861142303  0.6546058192341419  0.9740865898423364  1.0000
  H   H22       1.0  0.323681488967921  0.02591191164156471  0.3453915203683806  1.0000
  H   H23       1.0  0.8236836069358375  0.3453943718391627  0.025912086568318726  1.0000
  H   H24       1.0  0.6763165272431665  0.9740871449924596  0.6546056614986212  1.0000
  H   H25       1.0  0.22479391125101966  0.5133394028413818  0.1664131106587448  1.0000
  H   H26       1.0  0.27520759095853703  0.8335852602225703  0.4866624533853779  1.0000
  H   H27       1.0  0.7752095037597757  0.4866619027096277  0.8335828393737258  1.0000
  H   H28       1.0  0.7247954097135789  0.1664121288339473  0.5133383388771406  1.0000
  H   H29       1.0  0.16641784987029956  0.493616418103116  0.11246557484966499  1.0000
  H   H30       1.0  0.3335810261111972  0.8875339171682769  0.5063823665165897  1.0000
  H   H31       1.0  0.8335784256170341  0.5063865897983463  0.8875340705022406  1.0000
  H   H32       1.0  0.6664171353606108  0.11246738337398908  0.4936132545932708  1.0000
  H   H33       1.0  0.4259266754296859  0.5633578473594484  0.931889114393016  1.0000
  H   H34       1.0  0.07406869426966269  0.06810859529398532  0.4366440642028664  1.0000
  H   H35       1.0  0.5740705929801635  0.4366412095941712  0.06810822927051415  1.0000
  H   H36       1.0  0.925929945925432  0.9318910323424276  0.5633546765833727  1.0000
  H   H37       1.0  0.5195390800761857  0.46409697164079233  0.8829731616208888  1.0000
  H   H38       1.0  0.9804576170798425  0.11702838935693899  0.5359058432144438  1.0000
  H   H39       1.0  0.4804567596289856  0.535899304535974  0.11703116600244806  1.0000
  H   H40       1.0  0.019543751552362227  0.8829695668301412  0.4640960190246942  1.0000
  H   H41       1.0  0.37857102076695537  0.3018648623206843  0.06742187657225422  1.0000
  H   H42       1.0  0.12143253333432116  0.9325768613335015  0.6981370189956734  1.0000
  H   H43       1.0  0.621431089356406  0.6981330911315027  0.9325793367042647  1.0000
  H   H44       1.0  0.8785728812426186  0.06742278033366489  0.3018636757845172  1.0000
  H   H45       1.0  0.28104174061870413  0.39282084157215996  0.12592649640933462  1.0000
  H   H46       1.0  0.2189600217787485  0.8740715654664157  0.6071813147653558  1.0000
  H   H47       1.0  0.7189603253340023  0.607177094972947  0.8740713067044864  1.0000
  H   H48       1.0  0.7810431430843678  0.1259280747442233  0.3928193782383146  1.0000
  H   H49       1.0  0.19626109616422133  0.6437171952898523  0.1534318602356918  1.0000
  H   H50       1.0  0.3037419851962682  0.8465682898624537  0.3562804934605025  1.0000
  H   H51       1.0  0.8037508995663033  0.3562830051617638  0.846567150427127  1.0000
  H   H52       1.0  0.6962554499177857  0.15343582622960375  0.6437154494045103  1.0000
  H   H53       1.0  0.2479488789142792  0.6762887624008942  0.05589166087779759  1.0000
  H   H54       1.0  0.25205015362632105  0.9441086537688791  0.32370985826385373  1.0000
  H   H55       1.0  0.7520632191899992  0.3237080514985564  0.9441054691106388  1.0000
  H   H56       1.0  0.7479476048433115  0.0558943486628038  0.6762884891628076  1.0000
  H   H57       1.0  0.9851312778019972  0.8661772930955395  0.06350776537886565  1.0000
  H   H58       1.0  0.5148721369357361  0.9364926742790307  0.13381934177143479  1.0000
  H   H59       1.0  0.0148756323774251  0.133822347932437  0.9364926058082759  1.0000
  H   H60       1.0  0.4851327964047131  0.06350583230967288  0.8661795348720531  1.0000
  H   H61       1.0  0.9524013492667509  0.9364531690852685  0.14389679318562534  1.0000
  H   H62       1.0  0.5476047935693414  0.8561006102889551  0.06354748253834679  1.0000
  H   H63       1.0  0.04759837470536608  0.06354534940177102  0.8561051646979365  1.0000
  H   H64       1.0  0.4523986732058772  0.14389510103111292  0.9364554550683549  1.0000
  H   H65       1.0  0.16017093964407547  0.7757733115836841  0.2720632794372547  1.0000
  H   H66       1.0  0.3398359939205521  0.7279375138947657  0.22422327603618436  1.0000
  H   H67       1.0  0.839832212598857  0.22422632379635848  0.72793643923422  1.0000
  H   H68       1.0  0.6601649048116655  0.2720649255977677  0.7757746521529966  1.0000
  H   H69       1.0  0.21019515743938655  0.7026858316545415  0.1943171774614355  1.0000
  H   H70       1.0  0.2898117118381691  0.8056840144776701  0.2973111024897006  1.0000
  H   H71       1.0  0.7898113030540158  0.2973126863714697  0.8056838114194915  1.0000
  H   H72       1.0  0.7101902391206067  0.1943173037890134  0.7026876069663145  1.0000
  H   H73       1.0  0.9699236129792012  0.6478881843335174  0.1377983631712851  1.0000
  H   H74       1.0  0.5300761613295535  0.8621979924210378  0.3521158620761256  1.0000
  H   H75       1.0  0.030076410337649406  0.3521176323695911  0.8621996588244157  1.0000
  H   H76       1.0  0.4699244342610385  0.13779995442443752  0.6478842132951427  1.0000
  H   H77       1.0  0.001223237646584596  0.5509461578601743  0.1584897942179637  1.0000
  H   H78       1.0  0.4987729627196345  0.8415061278447239  0.4490560118347273  1.0000
  H   H79       1.0  0.9987754176819053  0.4490562825911368  0.8415086193608019  1.0000
  H   H80       1.0  0.5012261246482835  0.15849181480934502  0.5509434127974018  1.0000
  H   H81       1.0  0.8787531751306972  0.6943306593180126  0.19638591711494502  1.0000
  H   H82       1.0  0.6212400611023339  0.8036133781179374  0.30566778779756726  1.0000
  H   H83       1.0  0.12123667205754164  0.30566842256920523  0.8036174290087387  1.0000
  H   H84       1.0  0.3787552456019227  0.1963873572113215  0.6943277341148287  1.0000
  H   H85       1.0  0.805990098020054  0.7717081215623764  0.27019892186908107  1.0000
  H   H86       1.0  0.6940056350754278  0.7298038483377453  0.22828954756311498  1.0000
  H   H87       1.0  0.19400145441599648  0.2282876141935333  0.7298105018108315  1.0000
  H   H88       1.0  0.3059931125198361  0.2701980087151128  0.7717047094693896  1.0000
  H   H89       1.0  0.9948831129686652  0.6390514073496831  0.4235197066852335  1.0000
  H   H90       1.0  0.5051188384165998  0.5764821612604011  0.3609453205331403  1.0000
  H   H91       1.0  0.005119275055946609  0.3609510290883691  0.5764774107447933  1.0000
  H   H92       1.0  0.4948793381886033  0.4235219520967633  0.6390499733692394  1.0000
  H   H93       1.0  0.08363028415765682  0.5575764372998366  0.3528338367723477  1.0000
  H   H94       1.0  0.4163695448937901  0.6471625006630574  0.44242592342206427  1.0000
  H   H95       1.0  0.9163722806781391  0.44242825512294104  0.6471641557310405  1.0000
  H   H96       1.0  0.5836244695432099  0.35283488739796104  0.5575758360665759  1.0000
  H   H97       1.0  0.2546877566523804  0.7430926692692951  0.4537684677272931  1.0000
  H   H98       1.0  0.2453092731676917  0.546228889174735  0.2569108961968566  1.0000
  H   H99       1.0  0.7453073125243818  0.25690640555018257  0.5462327714885049  1.0000
  H   H100      1.0  0.754690910597425  0.45376794916055746  0.7430927198647906  1.0000
  H   H101      1.0  0.31677958804267087  0.6384467786910335  0.568073597168862  1.0000
  H   H102      1.0  0.18322206088065227  0.4319211153042843  0.3615530791301039  1.0000
  H   H103      1.0  0.6832223074089399  0.36154890428465336  0.43192381803770985  1.0000
  H   H104      1.0  0.8167809246580685  0.5680734609373277  0.6384480403398881  1.0000
  H   H105      1.0  0.030324910117833788  0.5673776895644664  0.6464125733277939  1.0000
  H   H106      1.0  0.4696792738694313  0.35358634343972284  0.43262316363379216  1.0000
  H   H107      1.0  0.9696791200536694  0.4326213765893101  0.3535857499974923  1.0000
  H   H108      1.0  0.5303231558126242  0.6464133019211004  0.5673786654986087  1.0000
  H   H109      1.0  0.9644677987016977  0.6746272490924952  0.5353641044055379  1.0000
  H   H110      1.0  0.535533010658277  0.464636903864836  0.32537124039381377  1.0000
  H   H111      1.0  0.035530885664044824  0.3253723954509908  0.464638046543392  1.0000
  H   H112      1.0  0.4644641553778115  0.5353655396409565  0.6746279839441057  1.0000
  H   H113      1.0  0.5905603450850663  0.945138868956249  0.233439323842788  1.0000
  H   H114      1.0  0.9094341056496658  0.7665609752014858  0.05486166400795173  1.0000
  H   H115      1.0  0.4094375409986881  0.0548607565844534  0.7665590915738746  1.0000
  H   H116      1.0  0.0905651925931039  0.23344204349809416  0.9451397699883443  1.0000
  H   H117      1.0  0.5147326745382372  0.061568762614435  0.13320162881274197  1.0000
  H   H118      1.0  0.9852620516423585  0.8668006745933924  0.9384331940962695  1.0000
  H   H119      1.0  0.4852598619428718  0.938434246884988  0.8667988255217975  1.0000
  H   H120      1.0  0.014738754823085303  0.1332023482976012  0.061568890639172494  1.0000
  H   H121      1.0  0.778375816734325  0.1546463748796754  0.07790174314816055  1.0000
  H   H122      1.0  0.7216302196174738  0.9220957543527888  0.8453530677046357  1.0000
  H   H123      1.0  0.22162172313809234  0.8453549742881208  0.922103783080196  1.0000
  H   H124      1.0  0.27837857403322624  0.0778993713316751  0.15464458078012194  1.0000
  H   H125      1.0  0.8505421651926072  0.042067457424131795  0.18253659708535952  1.0000
  H   H126      1.0  0.6494608786942991  0.8174607272728879  0.9579288306192805  1.0000
  H   H127      1.0  0.14946012174193868  0.9579327520127734  0.8174654912645067  1.0000
  H   H128      1.0  0.35054668591866534  0.18253326365271502  0.04206716152529568  1.0000
  C   C1        1.0  0.2411424294606519  0.5466783235566764  0.8481925310266406  1.0000
  C   C2        1.0  0.2588523401561886  0.1518067190491266  0.45332235321300357  1.0000
  C   C3        1.0  0.7588518691877013  0.4533235499055123  0.15180561978161927  1.0000
  C   C4        1.0  0.7411466423247716  0.8481918021727993  0.546680253633184  1.0000
  C   C5        1.0  0.18936055260240894  0.5879598017246296  0.8916703429912186  1.0000
  C   C6        1.0  0.31063773005489276  0.10832679821849922  0.4120424235436602  1.0000
  C   C7        1.0  0.8106357039546452  0.4120431989309452  0.10832784086239387  1.0000
  C   C8        1.0  0.6893630423468762  0.8916734046116943  0.5879585269009625  1.0000
  C   C9        1.0  0.12822257966173822  0.5527460951763956  0.9612204094999158  1.0000
  C   C10       1.0  0.37177971806169546  0.03877646309749141  0.44725355230826846  1.0000
  C   C11       1.0  0.8717780184420576  0.4472546596533888  0.038778364331683655  1.0000
  C   C12       1.0  0.6282240329248764  0.9612237336237403  0.552745776618053  1.0000
  C   C13       1.0  0.12180940769540165  0.47820732129218885  0.9832350253522931  1.0000
  C   C14       1.0  0.37819298134881757  0.016763021877764604  0.5217918608163075  1.0000
  C   C15       1.0  0.8781895394382105  0.5217939934222641  0.016763356957632234  1.0000
  C   C16       1.0  0.6218127149262641  0.9832382972062562  0.478206526823179  1.0000
  C   C17       1.0  0.17549030388104822  0.4421409331630528  0.9358632427405665  1.0000
  C   C18       1.0  0.3245087779701096  0.06413640057606068  0.5578563717836784  1.0000
  C   C19       1.0  0.8245059564728906  0.5578592619235038  0.0641367298188201  1.0000
  C   C20       1.0  0.6754936201614824  0.9358632327082786  0.44214302151822676  1.0000
  C   C21       1.0  0.1064809915829557  0.6410268334579714  0.015829574486346476  1.0000
  C   C22       1.0  0.39351845567799854  0.9841673764167  0.35897285706988646  1.0000
  C   C23       1.0  0.8935191379045335  0.35897279112396063  0.9841683555407383  1.0000
  C   C24       1.0  0.6064818417973825  0.015831693750335798  0.6410267624041238  1.0000
  C   C25       1.0  0.12893522629438078  0.6102505043739799  0.09501326782686433  1.0000
  C   C26       1.0  0.3710650163761358  0.9049823981686841  0.3897520267524966  1.0000
  C   C27       1.0  0.871069119638932  0.38975305925745835  0.9049838826485228  1.0000
  C   C28       1.0  0.628935116908238  0.09501442084423668  0.6102476919803621  1.0000
  C   C29       1.0  0.20339802447055894  0.5343212646036336  0.11171575961434134  1.0000
  C   C30       1.0  0.29660157202390997  0.8882813260905351  0.465679530804536  1.0000
  C   C31       1.0  0.7966019647826245  0.465681732038682  0.888281128090547  1.0000
  C   C32       1.0  0.7033998825649804  0.1117160442827867  0.5343176877222504  1.0000
  C   C33       1.0  0.3440843912163842  0.4866397914563906  0.0316607398637955  1.0000
  C   C34       1.0  0.15591362182092175  0.9683390101594044  0.513362483950715  1.0000
  C   C35       1.0  0.6559138649068146  0.5133615453153269  0.9683421887375374  1.0000
  C   C36       1.0  0.8440911498417305  0.031660053259493316  0.4866351904119383  1.0000
  C   C37       1.0  0.4140315545554572  0.5057749861547122  0.963172075190755  1.0000
  C   C38       1.0  0.08596538697004519  0.03683017071548279  0.4942274783488187  1.0000
  C   C39       1.0  0.5859698708675865  0.4942229917700375  0.036834171543269165  1.0000
  C   C40       1.0  0.9140355092489612  0.9631694607927488  0.5057717513800382  1.0000
  C   C41       1.0  0.4653320448310936  0.4508298998824572  0.9362188986815596  1.0000
  C   C42       1.0  0.034661985408177984  0.0637813868174959  0.5491748991156766  1.0000
  C   C43       1.0  0.5346642660035882  0.549170314526478  0.06378497120661544  1.0000
  C   C44       1.0  0.9653393769139383  0.9362165669542789  0.45082647595736375  1.0000
  C   C45       1.0  0.38672749783050625  0.3605491546427331  0.039327190054350966  1.0000
  C   C46       1.0  0.11327303962921319  0.9606725099706352  0.6394537228253299  1.0000
  C   C47       1.0  0.6132707179189365  0.6394493596528932  0.9606741170900717  1.0000
  C   C48       1.0  0.8867268397105973  0.039325449270919  0.3605489501729621  1.0000
  C   C49       1.0  0.33206351364424347  0.411683929370632  0.07157888673035724  1.0000
  C   C50       1.0  0.16793416626359198  0.9284185574353928  0.5883185023341468  1.0000
  C   C51       1.0  0.6679340743243003  0.5883168194916307  0.9284190727890475  1.0000
  C   C52       1.0  0.8320662991996671  0.0715799583167538  0.4116828065867892  1.0000
  C   C53       1.0  0.17741436497791344  0.6663063664317619  0.09800331049016352  1.0000
  C   C54       1.0  0.32258578753710065  0.9019972165646523  0.333692704056915  1.0000
  C   C55       1.0  0.8225977608799439  0.3336932651131833  0.9019944666229947  1.0000
  C   C56       1.0  0.6774112168211984  0.0980057837713275  0.6663053180001697  1.0000
  C   C57       1.0  0.09700504117052589  0.7765402781693852  0.1243089368534598  1.0000
  C   C58       1.0  0.40299473885299636  0.8756961981095515  0.22345679881478717  1.0000
  C   C59       1.0  0.9029997999031493  0.22345881181777832  0.8756940963362823  1.0000
  C   C60       1.0  0.5970052693304595  0.12430680577865873  0.776541550388387  1.0000
  C   C61       1.0  0.02601009541365333  0.8448270187937653  0.10904639677587367  1.0000
  C   C62       1.0  0.47399458529636734  0.8909530468491127  0.15517247510501148  1.0000
  C   C63       1.0  0.9739960606544359  0.155172620138508  0.890953649041691  1.0000
  C   C64       1.0  0.5260094638054085  0.10904602655055841  0.8448273097185677  1.0000
  C   C65       1.0  0.00734806902323735  0.8835320397239386  0.15387750860326574  1.0000
  C   C66       1.0  0.4926586491412977  0.8461192714984522  0.11646948709894617  1.0000
  C   C67       1.0  0.992654490786144  0.11646703673021361  0.8461230869794674  1.0000
  C   C68       1.0  0.5073467629224382  0.15387756218440532  0.8835325092209131  1.0000
  C   C69       1.0  0.12389562264295505  0.7942540844508131  0.22472069220100369  1.0000
  C   C70       1.0  0.37610880648944084  0.7752800708759011  0.20574517621952976  1.0000
  C   C71       1.0  0.8761073868524606  0.20574611500531154  0.7752792856879366  1.0000
  C   C72       1.0  0.6238925709660634  0.22472069571077918  0.7942558716460367  1.0000
  C   C73       1.0  0.14986038859679243  0.7524384973709034  0.18199775977745236  1.0000
  C   C74       1.0  0.3501406542011906  0.8180064030920774  0.24755820314496196  1.0000
  C   C75       1.0  0.8501478681275145  0.2475617046786738  0.8180020598680001  1.0000
  C   C76       1.0  0.6498553042406456  0.18199772088505742  0.7524395248113932  1.0000
  C   C77       1.0  0.029418841919479605  0.5976421782864277  0.15407063247032934  1.0000
  C   C78       1.0  0.470577806963199  0.8459259907687838  0.4023598178063492  1.0000
  C   C79       1.0  0.970579790681846  0.40236306048800696  0.8459245309043624  1.0000
  C   C80       1.0  0.5294208244085964  0.15407082646802195  0.5976397373534609  1.0000
  C   C81       1.0  0.9923928994358276  0.6210794624086445  0.2663027594412384  1.0000
  C   C82       1.0  0.5076027205263787  0.7336947601597642  0.3789244215469551  1.0000
  C   C83       1.0  0.007603360918118097  0.37892073267791204  0.7336972131181481  1.0000
  C   C84       1.0  0.4923941297479005  0.26630318586837376  0.6210759756408493  1.0000
  C   C85       1.0  0.9107293817006052  0.6807676722466595  0.24437291837427466  1.0000
  C   C86       1.0  0.5892628240457684  0.7556278392027168  0.3192320255810868  1.0000
  C   C87       1.0  0.08926019640967547  0.319229737054286  0.7556337092223089  1.0000
  C   C88       1.0  0.41073175378752325  0.2443729036920247  0.6807651196261375  1.0000
  C   C89       1.0  0.8677682782110665  0.7235304510372275  0.2866609476574664  1.0000
  C   C90       1.0  0.6322267578268777  0.713342282555196  0.27646765791286027  1.0000
  C   C91       1.0  0.1322240220262358  0.27646528439909446  0.7133483142259252  1.0000
  C   C92       1.0  0.36776855770067846  0.2866612631736701  0.7235270496259645  1.0000
  C   C93       1.0  0.9730006520868458  0.6500350096960262  0.3720098854036422  1.0000
  C   C94       1.0  0.5269991202821203  0.6279903445599189  0.34996714270859997  1.0000
  C   C95       1.0  0.027001460549712388  0.34996575174047007  0.6279900263332009  1.0000
  C   C96       1.0  0.4729989426128256  0.3720115369655019  0.6500321477814237  1.0000
  C   C97       1.0  0.02197143447758522  0.6045792392905084  0.33291874405799854  1.0000
  C   C98       1.0  0.4780236030964817  0.6670814052651081  0.3954214044892481  1.0000
  C   C99       1.0  0.9780299177375511  0.39542151763498623  0.6670803551431704  1.0000
  C   C100      1.0  0.5219680150822938  0.3329193509844828  0.6045788237345703  1.0000
  C   C101      1.0  0.07081045580611087  0.779718865969926  0.4196426243391328  1.0000
  C   C102      1.0  0.42918491270017267  0.5803583813996339  0.2202850211322057  1.0000
  C   C103      1.0  0.9291863944681679  0.2202790800582193  0.5803577728486714  1.0000
  C   C104      1.0  0.5708090422500406  0.4196480236739646  0.7797189389480649  1.0000
  C   C105      1.0  0.10622837401474781  0.715439509589423  0.4873370516499946  1.0000
  C   C106      1.0  0.3937676245693851  0.5126623219646264  0.28456738592350195  1.0000
  C   C107      1.0  0.893768199587797  0.2845623749904788  0.5126630495991761  1.0000
  C   C108      1.0  0.606230358678971  0.487340147789844  0.7154370354449707  1.0000
  C   C109      1.0  0.2054766165946802  0.7050116117069865  0.4967452395789208  1.0000
  C   C110      1.0  0.2945198455512212  0.5032566270915168  0.29499195708689996  1.0000
  C   C111      1.0  0.7945204420412465  0.29498860238235386  0.503258468512726  1.0000
  C   C112      1.0  0.7054781187668554  0.4967458354170591  0.7050110027832801  1.0000
  C   C113      1.0  0.2402495739835615  0.6468945382547987  0.5595966945491071  1.0000
  C   C114      1.0  0.2597453815503811  0.44040503977595347  0.35310703171445806  1.0000
  C   C115      1.0  0.7597480430222421  0.35310341469963896  0.44040500234046204  1.0000
  C   C116      1.0  0.7402522442787144  0.5595957235780915  0.6468938508015468  1.0000
  C   C117      1.0  0.17703066489289654  0.5970217903386159  0.6135303396319072  1.0000
  C   C118      1.0  0.32296720073176033  0.3864709866778355  0.4029791367673638  1.0000
  C   C119      1.0  0.8229703652503345  0.40297446669392656  0.3864694452530556  1.0000
  C   C120      1.0  0.6770322377453226  0.6135286599613538  0.5970233395511427  1.0000
  C   C121      1.0  0.07804504973378103  0.6071172126893458  0.6041262856004579  1.0000
  C   C122      1.0  0.4219540469896899  0.3958713934708484  0.39288479056946796  1.0000
  C   C123      1.0  0.9219565879763818  0.3928824160839923  0.3958722951657804  1.0000
  C   C124      1.0  0.5780480505134803  0.6041265551507423  0.6071154483748487  1.0000
  C   C125      1.0  0.042047145990856884  0.6664220378197215  0.5419020181720526  1.0000
  C   C126      1.0  0.4579505415849994  0.45809646839507695  0.33358296995343995  1.0000
  C   C127      1.0  0.9579492974843615  0.3335804156668516  0.45809931662678577  1.0000
  C   C128      1.0  0.542047128414744  0.5419043118660555  0.6664213227252486  1.0000
  C   C129      1.0  0.21721149434947756  0.532362542856788  0.6794796200967353  1.0000
  C   C130      1.0  0.28279074640872176  0.3205214938742387  0.4676396206505729  1.0000
  C   C131      1.0  0.7827928213170593  0.4676353951448391  0.3205181847936132  1.0000
  C   C132      1.0  0.7172126091694437  0.6794747935983948  0.5323660120040898  1.0000
  C   C133      1.0  0.7644959985953148  0.9189024568989057  0.27842166916327915  1.0000
  C   C134      1.0  0.7355072584682176  0.72157736689789  0.08109483587448083  1.0000
  C   C135      1.0  0.2355054597904598  0.08109210790540543  0.7215773380692808  1.0000
  C   C136      1.0  0.26449665799302113  0.2784194674241435  0.9189074840384348  1.0000
  C   C137      1.0  0.7241939824460673  0.986727474033792  0.21501126763654102  1.0000
  C   C138      1.0  0.775806530004992  0.7849878625727486  0.013269801928082482  1.0000
  C   C139      1.0  0.2758061950089612  0.013269361886202102  0.7849918612590085  1.0000
  C   C140      1.0  0.22419959199942946  0.21500895629873182  0.986729109598663  1.0000
  C   C141      1.0  0.6302730346189661  0.9919525343879271  0.20022911126032755  1.0000
  C   C142      1.0  0.8697296698039382  0.7997672070208779  0.008043511753996323  1.0000
  C   C143      1.0  0.36972929789848746  0.008044266759128501  0.7997667119202632  1.0000
  C   C144      1.0  0.13027584334986383  0.20023185366312649  0.991953513646031  1.0000
  C   C145      1.0  0.5886213208604404  0.0559836927594262  0.14426754883490386  1.0000
  C   C146      1.0  0.9113753609103978  0.855734714101054  0.9440177497128701  1.0000
  C   C147      1.0  0.4113774620821644  0.9440153708009048  0.8557309327338699  1.0000
  C   C148      1.0  0.08862527756715367  0.14426886320482177  0.05598264557564649  1.0000
  C   C149      1.0  0.6419999919040578  0.11490157191791181  0.10028332210043082  1.0000
  C   C150      1.0  0.8579947218847223  0.8997190476711056  0.8850994016764702  1.0000
  C   C151      1.0  0.3579933996498709  0.8851014783219641  0.8997252522612553  1.0000
  C   C152      1.0  0.14200637007574807  0.10028284706772443  0.11490216462403419  1.0000
  C   C153      1.0  0.7370462239297595  0.10892218443893853  0.11365580872782025  1.0000
  C   C154      1.0  0.7629532162139229  0.886342039745422  0.8910781405023369  1.0000
  C   C155      1.0  0.26294907884901875  0.8910791681029337  0.8863506900562116  1.0000
  C   C156      1.0  0.2370521453690628  0.11365477461504979  0.10891995848874099  1.0000
  C   C157      1.0  0.7774181721056478  0.04587868065157609  0.17144534654394056  1.0000
  C   C158      1.0  0.7225819204409516  0.8285513000236834  0.9541184491126982  1.0000
  C   C159      1.0  0.2225818752220547  0.9541187241750895  0.8285590159012765  1.0000
  C   C160      1.0  0.2774259359771349  0.17144156516506112  0.045877511763038004  1.0000
  C   C161      1.0  0.5980392943561625  0.1826834176615222  0.038292908245701036  1.0000
  C   C162      1.0  0.9019528365691298  0.9617125192229851  0.8173182427694666  1.0000
  C   C163      1.0  0.4019575545058487  0.8173179535635385  0.9617171642740627  1.0000
  C   C164      1.0  0.09804032009910199  0.03829386684782321  0.1826819817785434  1.0000
  N   N1        1.0  0.23500085269577656  0.4750924433246198  0.8693756115679818  1.0000
  N   N2        1.0  0.2649983055312362  0.1306233815769602  0.5249079423975542  1.0000
  N   N3        1.0  0.7649953975511893  0.5249105549156566  0.1306220851195334  1.0000
  N   N4        1.0  0.7350032083616894  0.8693768185183471  0.4750923590844424  1.0000
  N   N5        1.0  0.4512936797599422  0.37934998571643064  0.9726733774794526  1.0000
  N   N6        1.0  0.048708067697773985  0.027325907283795907  0.620653662981489  1.0000
  N   N7        1.0  0.5487034963831263  0.6206496546356489  0.02732812273033145  1.0000
  N   N8        1.0  0.9512962921394107  0.9726720476249111  0.37934755207154336  1.0000
  N   N9        1.0  0.05390516777728749  0.8582575855844324  0.21223430135598417  1.0000
  N   N10       1.0  0.44609981385919173  0.7877644209344369  0.14174118623065357  1.0000
  N   N11       1.0  0.9460948479999444  0.14173980716574866  0.7877676252587378  1.0000
  N   N12       1.0  0.5539031994331153  0.21223297295267676  0.8582605803640604  1.0000
  N   N13       1.0  0.8977463944822475  0.7099407599692855  0.3489594756438663  1.0000
  N   N14       1.0  0.6022491043917029  0.6510428758142056  0.29005919598097285  1.0000
  N   N15       1.0  0.10225219761672118  0.29005946797265386  0.6510468318513175  1.0000
  N   N16       1.0  0.39774712692498315  0.3489601151801764  0.709937039208249  1.0000
  O   O1        1.0  0.07089261738566681  0.5854257736061542  0.009342137904106101  1.0000
  O   O2        1.0  0.42910871396619416  0.9906515964819035  0.41457661016079317  1.0000
  O   O3        1.0  0.9291079870282245  0.41457498363892853  0.9906571230935907  1.0000
  O   O4        1.0  0.570896231994439  0.009346914937403002  0.5854232408148903  1.0000
  O   O5        1.0  0.2933368148148715  0.5438537451859987  0.05305862392384593  1.0000
  O   O6        1.0  0.20665798221255466  0.9469358388893668  0.4561502080222935  1.0000
  O   O7        1.0  0.7066584779855133  0.45615259886598386  0.946932833410912  1.0000
  O   O8        1.0  0.7933382251474442  0.05306152889050251  0.5438471687479733  1.0000
  O   O9        1.0  0.10651806765550023  0.7375535377956196  0.08322706323551889  1.0000
  O   O10       1.0  0.39347986780907734  0.9167794429982477  0.26244298943557004  1.0000
  O   O11       1.0  0.8934986018006511  0.26244611356945313  0.9167741275933634  1.0000
  O   O12       1.0  0.6065181786687928  0.0832252392655874  0.7375535380164847  1.0000
  O   O13       1.0  0.04763557920825435  0.5782945741069838  0.22730457373650376  1.0000
  O   O14       1.0  0.45235534306839037  0.7726948216303883  0.42170665257816603  1.0000
  O   O15       1.0  0.9523584175279962  0.42171122824578333  0.7726913324687172  1.0000
  O   O16       1.0  0.5476412027805823  0.227304245304019  0.5782928015462828  1.0000
  O   O17       1.0  0.9777548104403591  0.7962047154543228  0.41398728493771114  1.0000
  O   O18       1.0  0.5222415017653432  0.5860099807890933  0.2037982816499238  1.0000
  O   O19       1.0  0.022243199460639573  0.2037943387644107  0.5860094097631927  1.0000
  O   O20       1.0  0.4777525807989989  0.41399304739352516  0.7962057464203554  1.0000
  O   O21       1.0  0.13562239108045293  0.8188684943847307  0.36967707412727424  1.0000
  O   O22       1.0  0.3643758561955154  0.6303248889156522  0.18112854257646643  1.0000
  O   O23       1.0  0.8643783737817046  0.18112328449253573  0.6303277809363692  1.0000
  O   O24       1.0  0.635617865152689  0.3696792384355518  0.8188701579355707  1.0000
  O   O25       1.0  0.16364027315187707  0.4832731038563836  0.7242660219938841  1.0000
  O   O26       1.0  0.3363588005956046  0.27573268679596913  0.5167308176350571  1.0000
  O   O27       1.0  0.8363612091905922  0.5167270841624327  0.275731843657617  1.0000
  O   O28       1.0  0.6636421877615959  0.7242641729574046  0.4832770211249482  1.0000
  O   O29       1.0  0.30639308454106384  0.5294533369042611  0.6866054781671167  1.0000
  O   O30       1.0  0.19360939223718535  0.3134001978628262  0.47054329526709887  1.0000
  O   O31       1.0  0.693611401626562  0.470546854666786  0.31339271463048135  1.0000
  O   O32       1.0  0.8063938863361884  0.6866016741795632  0.5294534011489348  1.0000
  O   O33       1.0  0.7148634679635394  0.8653212292496235  0.31360465524246434  1.0000
  O   O34       1.0  0.785139774658589  0.6863874315759803  0.1346770750533393  1.0000
  O   O35       1.0  0.28513798424073383  0.13467552149578674  0.6863810992465887  1.0000
  O   O36       1.0  0.21485731932468607  0.31360998902083276  0.8653308575745698  1.0000
  O   O37       1.0  0.8431751811425979  0.916872057288785  0.2983144170128825  1.0000
  O   O38       1.0  0.6568286446760112  0.7016922303989902  0.0831158362367431  1.0000
  O   O39       1.0  0.15682778803321176  0.08311128460029242  0.701691421449702  1.0000
  O   O40       1.0  0.3431781645419321  0.2983073719842366  0.9168767402928208  1.0000
  O   O41       1.0  0.5045646340513201  0.19082671638503973  0.03658019719911466  1.0000
  O   O42       1.0  0.9954286349021189  0.9634193615442402  0.8091806601207592  1.0000
  O   O43       1.0  0.49543690005555885  0.8091678774028354  0.9634246560266247  1.0000
  O   O44       1.0  0.004562904859597  0.03659040447203671  0.1908203071963968  1.0000
  O   O45       1.0  0.6550436191879213  0.2281970262941897  0.9894429092989794  1.0000
  O   O46       1.0  0.8449506435088524  0.010561711453959802  0.7718017733378629  1.0000
  O   O47       1.0  0.34494681773790603  0.771811653269168  0.010566144999962876  1.0000
  O   O48       1.0  0.15503847352474046  0.9894429915520606  0.2282001058351921  1.0000
