data_image0
_chemical_formula_structural       Zn4H12C24Br2O13
_chemical_formula_sum              "Zn4 H12 C24 Br2 O13"
_cell_length_a       10.919213145351492
_cell_length_b       10.915203255420993
_cell_length_c       19.5350417256259
_cell_angle_alpha    96.5422013522299
_cell_angle_beta     92.42598000851574
_cell_angle_gamma    99.61972893327128

_space_group_name_H-M_alt    "P 1"
_space_group_IT_number       1

loop_
  _space_group_symop_operation_xyz
  'x, y, z'

loop_
  _atom_site_type_symbol
  _atom_site_label
  _atom_site_symmetry_multiplicity
  _atom_site_fract_x
  _atom_site_fract_y
  _atom_site_fract_z
  _atom_site_occupancy
  Zn  Zn1       1.0  0.4077887265706011  0.5938045759670132  0.4405643343024365  1.0000
  Zn  Zn2       1.0  0.3846805710591781  0.3953822349664833  0.5489140839233572  1.0000
  Zn  Zn3       1.0  0.6089838775205578  0.6300023623731904  0.5678100174407916  1.0000
  Zn  Zn4       1.0  0.6024111350845373  0.4058000435362106  0.4434366584187188  1.0000
  H   H1        1.0  0.4343267684164188  0.6470146103419553  0.23468281746971803  1.0000
  H   H2        1.0  0.47862174634457927  0.3516138970768168  0.9900153834461706  1.0000
  H   H3        1.0  0.4216907729778114  0.6288873252063922  0.1067296541918026  1.0000
  H   H4        1.0  0.36823257750645405  0.981789426553611  0.4784414122906639  1.0000
  H   H5        1.0  0.5702247210570093  0.7312389974038069  0.9073110188598719  1.0000
  H   H6        1.0  0.6526975686611535  0.027347375637020804  0.5122608365101938  1.0000
  H   H7        1.0  0.9796584807629003  0.4398826937387029  0.4361304608901264  1.0000
  H   H8        1.0  0.39477514966380056  0.3371777239217765  0.7569492703604015  1.0000
  H   H9        1.0  0.5718837904492204  0.7230744516242069  0.7793177519464862  1.0000
  H   H10       1.0  0.5115944500581122  0.6393279804338123  0.007785825299834014  1.0000
  H   H11       1.0  0.3957672871298782  0.3425474260501105  0.8842786316028821  1.0000
  H   H12       1.0  0.5795395393630259  0.303234225426337  0.22630445522347029  1.0000
  C   C1        1.0  0.4760613656630709  0.17236740697470762  0.48763180063544104  1.0000
  C   C2        1.0  0.48598376020216694  0.4460130470033122  0.01710053295072811  1.0000
  C   C3        1.0  0.49306848364087585  0.5444052158755356  0.9802154092669468  1.0000
  C   C4        1.0  0.5372694433702422  0.8395657725589988  0.5047869271192127  1.0000
  C   C5        1.0  0.48481240821492116  0.5292416685463125  0.7604033944404733  1.0000
  C   C6        1.0  0.5580636252659161  0.9763508940031971  0.5003990280878554  1.0000
  C   C7        1.0  0.462850612158462  0.03455637156744731  0.4864369628580932  1.0000
  C   C8        1.0  0.9700711964456231  0.535573536099271  0.5336855057252238  1.0000
  C   C9        1.0  0.03239005964217511  0.4818601410277879  0.4842241307804471  1.0000
  C   C10       1.0  0.16860487626271237  0.4812568773167171  0.486980620895892  1.0000
  C   C11       1.0  0.8324329337800692  0.5334445357645237  0.5231952599149423  1.0000
  C   C12       1.0  0.4941452375156672  0.4562028725182187  0.09212641362724841  1.0000
  C   C13       1.0  0.4868268108600517  0.5239066789969868  0.6840077923777699  1.0000
  C   C14       1.0  0.5120205283412033  0.48594514483594514  0.3152317451479263  1.0000
  C   C15       1.0  0.5081927048379598  0.4765987657789453  0.2384436899087774  1.0000
  C   C16       1.0  0.46445501168979314  0.5687371293794001  0.2042931279299793  1.0000
  C   C17       1.0  0.45835432214806093  0.5583563923741296  0.1328437082270426  1.0000
  C   C18       1.0  0.5366111488213434  0.3645481118570545  0.128141061160818  1.0000
  C   C19       1.0  0.5450865931995494  0.3743371167220388  0.19980198930105084  1.0000
  C   C20       1.0  0.4358211192594509  0.4259967325448955  0.8617531096230806  1.0000
  C   C21       1.0  0.4345380615257284  0.4224500447565802  0.7905148993768094  1.0000
  C   C22       1.0  0.5336235833410824  0.6405024217252944  0.8029903779393521  1.0000
  C   C23       1.0  0.53258199417251  0.644383602021044  0.8742773881292507  1.0000
  C   C24       1.0  0.48611839453568  0.5368845044233767  0.9052230901536972  1.0000
  Br  Br1       1.0  0.04927441825552853  0.6208721807309346  0.6178945952496733  1.0000
  Br  Br2       1.0  0.5887083248248074  0.22264955900873667  0.07873575236782669  1.0000
  O   O1        1.0  0.5022482586059454  0.5057079471240301  0.5001437685723431  1.0000
  O   O2        1.0  0.4290823604837115  0.4238438093471971  0.648154158650172  1.0000
  O   O3        1.0  0.5655627578806204  0.407809844382207  0.3441827725255138  1.0000
  O   O4        1.0  0.5466628356196921  0.619250983123493  0.6600121746581351  1.0000
  O   O5        1.0  0.4604418811101709  0.571831206798592  0.345988573394699  1.0000
  O   O6        1.0  0.2269868010422584  0.5361067661027762  0.44067053052344823  1.0000
  O   O7        1.0  0.7805238234796477  0.4695676740213629  0.4675959970698855  1.0000
  O   O8        1.0  0.3855337781071383  0.21976196367710799  0.5124357378305646  1.0000
  O   O9        1.0  0.6199473805117391  0.7997447600097871  0.5404378438735975  1.0000
  O   O10       1.0  0.5737878214180937  0.23079577341980695  0.46455606091146245  1.0000
  O   O11       1.0  0.4391880116682145  0.7736727317477234  0.47317256989854434  1.0000
  O   O12       1.0  0.2129846929450778  0.4252350352351258  0.5331659344025468  1.0000
  O   O13       1.0  0.7805609744866189  0.5938740595495489  0.569642363487759  1.0000
