data_image0
_chemical_formula_structural       Al6H48C85O30
_chemical_formula_sum              "Al6 H48 C85 O30"
_cell_length_a       12.377992068744433
_cell_length_b       12.645377216143373
_cell_length_c       28.704689147929574
_cell_angle_alpha    90.14153918577028
_cell_angle_beta     89.65863322531305
_cell_angle_gamma    61.46166231763603

_space_group_name_H-M_alt    "P 1"
_space_group_IT_number       1

loop_
  _space_group_symop_operation_xyz
  'x, y, z'

loop_
  _atom_site_type_symbol
  _atom_site_label
  _atom_site_symmetry_multiplicity
  _atom_site_fract_x
  _atom_site_fract_y
  _atom_site_fract_z
  _atom_site_occupancy
  Al  Al1       1.0  0.41068343545079933  0.41192231804963353  0.4997722556773638  1.0000
  Al  Al2       1.0  0.4227110947766448  0.659963716715133  0.5013151551700403  1.0000
  Al  Al3       1.0  0.6613016161386795  0.42856958026191455  0.4996257450179797  1.0000
  Al  Al4       1.0  0.9310292415042838  0.9151514089702038  0.0027466046281646003  1.0000
  Al  Al5       1.0  0.6738939729497347  0.9105091702554732  0.9993403951401734  1.0000
  Al  Al6       1.0  0.9062252533135929  0.673859692712192  0.00010887157805680053  1.0000
  H   H1        1.0  0.47709708626795333  0.2728082908212031  0.7109082957142975  1.0000
  H   H2        1.0  0.6585127263808842  0.31658782502369587  0.1933048021481341  1.0000
  H   H3        1.0  0.6579817079840424  0.3548363292738018  0.2786349422750476  1.0000
  H   H4        1.0  0.08143522758710012  0.8542770462659564  0.2971730196046636  1.0000
  H   H5        1.0  0.2455055833232364  0.47402511692916255  0.20625591706371438  1.0000
  H   H6        1.0  0.4478717957996777  0.7556350227307861  0.7268807539888301  1.0000
  H   H7        1.0  0.5646608361250783  0.5641905311887286  0.7911183936224688  1.0000
  H   H8        1.0  0.7672250105744637  0.4506195789335337  0.7290906299744719  1.0000
  H   H9        1.0  0.8795934783671057  0.5751856285086064  0.7727714416551948  1.0000
  H   H10       1.0  0.8715325410772864  0.12263136245694282  0.7065183017173808  1.0000
  H   H11       1.0  0.8806634638302738  0.08055929461745852  0.7917101832029445  1.0000
  H   H12       1.0  0.11421536614620448  0.5335827022766255  0.7017992477932965  1.0000
  H   H13       1.0  0.48619444326609346  0.23119828889869606  0.7961395460097123  1.0000
  H   H14       1.0  0.5407728319561258  0.9991764379184505  0.7097537869737067  1.0000
  H   H15       1.0  0.4141055416238827  0.9709192998419244  0.7153603941358356  1.0000
  H   H16       1.0  0.41501569852822223  0.09193036571742402  0.7464381306686079  1.0000
  H   H17       1.0  0.46565580970567316  0.9248977319137452  0.8019512138791003  1.0000
  H   H18       1.0  0.5974665003980704  0.941475838315398  0.7936908388860078  1.0000
  H   H19       1.0  0.11941101146910432  0.9700235041674148  0.7901919343707178  1.0000
  H   H20       1.0  0.07672598457386937  0.9159338539768384  0.8406781589103787  1.0000
  H   H21       1.0  0.1861049370959051  0.9684075380449501  0.84519327548972  1.0000
  H   H22       1.0  0.2923875195384937  0.7442692541102076  0.8456467120022637  1.0000
  H   H23       1.0  0.08770062125399397  0.5347146415366238  0.7883076400885187  1.0000
  H   H24       1.0  0.33535414035205957  0.7973976418597742  0.7956680009910502  1.0000
  H   H25       1.0  0.916361458110593  0.2814486881608076  0.2019088194221013  1.0000
  H   H26       1.0  0.7572651232821811  0.9232156029823603  0.7469853749883413  1.0000
  H   H27       1.0  0.8915799834132228  0.7852368822582464  0.7581587042257212  1.0000
  H   H28       1.0  0.8869098535152488  0.8734344481406354  0.7095329237296542  1.0000
  H   H29       1.0  0.8582659261400278  0.7047900760390746  0.6799613303241331  1.0000
  H   H30       1.0  0.718875814462805  0.8386526635491195  0.6738449565253931  1.0000
  H   H31       1.0  0.9255279489862216  0.015701428476113204  0.2632886157905645  1.0000
  H   H32       1.0  0.0642015834065433  0.012127425438926304  0.2443234324956975  1.0000
  H   H33       1.0  0.9274257740574824  0.08762329331612052  0.21089920833615855  1.0000
  H   H34       1.0  0.27054159602878514  0.7712829361191993  0.7174354109500314  1.0000
  H   H35       1.0  0.06351304049508837  0.8946288311272429  0.1718927727352266  1.0000
  H   H36       1.0  0.9301382922791602  0.8955780453929804  0.1919663540073273  1.0000
  H   H37       1.0  0.26564188913070547  0.31688650000455715  0.2567023269015749  1.0000
  H   H38       1.0  0.4054414297174063  0.3143330022958395  0.2400398261291414  1.0000
  H   H39       1.0  0.3991864138680724  0.23993342556822492  0.29131731297643876  1.0000
  H   H40       1.0  0.39497487554604754  0.43300845374513847  0.3124375274362806  1.0000
  H   H41       1.0  0.2612416811096736  0.4319002232499614  0.33070255049489117  1.0000
  H   H42       1.0  0.7739706868924897  0.4700873341946235  0.2900370852508232  1.0000
  H   H43       1.0  0.553452770840984  0.8615364659436295  0.2082464520978746  1.0000
  H   H44       1.0  0.5399767863653862  0.8548594883723911  0.2946018221860385  1.0000
  H   H45       1.0  0.6699835021050689  0.014840211822836106  0.3073267377851964  1.0000
  H   H46       1.0  0.6717387867381247  0.9761926149081079  0.22221596174394884  1.0000
  H   H47       1.0  0.2888573760116627  0.3295104152377135  0.5271387521104884  1.0000
  H   H48       1.0  0.05059924487370889  0.0010470923017962001  0.9760184357448907  1.0000
  C   C1        1.0  0.28142957335002444  0.6239198662285759  0.5671543113246004  1.0000
  C   C2        1.0  0.6474653886302946  0.6425262457297551  0.6540394509283587  1.0000
  C   C3        1.0  0.6525104232640329  0.24702150103714626  0.6135066708290539  1.0000
  C   C4        1.0  0.6182127935103879  0.6118412157558666  0.565019798696966  1.0000
  C   C5        1.0  0.7876454752038669  0.14695446738341642  0.7264582687635155  1.0000
  C   C6        1.0  0.7927290782965384  0.12374237315263065  0.7738031353380279  1.0000
  C   C7        1.0  0.5699113342512305  0.2082799165714988  0.7762999569863211  1.0000
  C   C8        1.0  0.5648510745478461  0.23132604701114456  0.7289749210264207  1.0000
  C   C9        1.0  0.6737366767424859  0.2002033132490197  0.703229808513612  1.0000
  C   C10       1.0  0.6840298063345501  0.1530676894874432  0.7993640648346982  1.0000
  C   C11       1.0  0.6910183502423661  0.12317552578095813  0.8470526915278002  1.0000
  C   C12       1.0  0.6399149796868286  0.6353426193724303  0.6118665710073828  1.0000
  C   C13       1.0  0.6660566122749925  0.22344175632103713  0.6548944409498318  1.0000
  C   C14       1.0  0.7007388642656381  0.09310132554397652  0.8877503991566726  1.0000
  C   C15       1.0  0.23261569984195762  0.6468935142361617  0.6138533100207724  1.0000
  C   C16       1.0  0.620282088351935  0.2945920328172137  0.5672248077606029  1.0000
  C   C17       1.0  0.14255199038795036  0.5851714838575364  0.7243477071787937  1.0000
  C   C18       1.0  0.12828179329314063  0.5856368233495887  0.7722345832241404  1.0000
  C   C19       1.0  0.21867967717278697  0.719978286726196  0.7817910527854082  1.0000
  C   C20       1.0  0.23080239108072925  0.7195649618430836  0.7335237694302421  1.0000
  C   C21       1.0  0.1937416370316781  0.6531417069003285  0.7042844041254597  1.0000
  C   C22       1.0  0.16458318027996194  0.6530675195011855  0.8013236102262697  1.0000
  C   C23       1.0  0.7833804637007732  0.6147137343121898  0.7622090336494125  1.0000
  C   C24       1.0  0.14114752533163263  0.6583459804449847  0.8497171055806376  1.0000
  C   C25       1.0  0.21208782021382427  0.6515434257838281  0.6555875852643426  1.0000
  C   C26       1.0  0.1147831479399172  0.6691208902961281  0.8910504507039931  1.0000
  C   C27       1.0  0.6356928295533845  0.6452720600011121  0.38909822433301133  1.0000
  C   C28       1.0  0.286347672374724  0.6185507663859725  0.434436149826233  1.0000
  C   C29       1.0  0.7250850958037488  0.5557953282811354  0.2721121877542529  1.0000
  C   C30       1.0  0.7295457663969246  0.5584132295269911  0.22360758361109132  1.0000
  C   C31       1.0  0.6007718204641465  0.7760216397472918  0.2264706315918588  1.0000
  C   C32       1.0  0.5939737906896595  0.7724290950919795  0.2746691349907096  1.0000
  C   C33       1.0  0.656173827456186  0.6618243208383918  0.2983337990342889  1.0000
  C   C34       1.0  0.6713511475691406  0.6776511828065281  0.7973349432839073  1.0000
  C   C35       1.0  0.6676162973420715  0.6699557356918862  0.1998321830574312  1.0000
  C   C36       1.0  0.675996975662521  0.6800474456107112  0.1509722840458636  1.0000
  C   C37       1.0  0.6463916938268424  0.65485079426702  0.3472850201220083  1.0000
  C   C38       1.0  0.6848497591395032  0.6974745631260149  0.10970495221001643  1.0000
  C   C39       1.0  0.6542259479443189  0.23739234753546876  0.3879945992573397  1.0000
  C   C40       1.0  0.6095759483229272  0.6212516593278468  0.4355494474390511  1.0000
  C   C41       1.0  0.6677045161901985  0.08041019567460952  0.2822396844767496  1.0000
  C   C42       1.0  0.6678558060811425  0.059302897189368806  0.2348032059391443  1.0000
  C   C43       1.0  0.6607651684773257  0.2513491278094691  0.2185511195016829  1.0000
  C   C44       1.0  0.6610700468464968  0.27215397315907813  0.2659796155372973  1.0000
  C   C45       1.0  0.7215551863382076  0.5460119001147277  0.7386653908856007  1.0000
  C   C46       1.0  0.6645923632450559  0.18715118851331175  0.29855220552089895  1.0000
  C   C47       1.0  0.6648551384273418  0.14416886728619002  0.20227492091304103  1.0000
  C   C48       1.0  0.670803247981695  0.11954907000921372  0.1540012272831035  1.0000
  C   C49       1.0  0.6609974498997601  0.21188507468828988  0.3467489188340381  1.0000
  C   C50       1.0  0.6807945738935075  0.0954465299239615  0.1125637790655745  1.0000
  C   C51       1.0  0.23562016632439517  0.6497408797037708  0.3886765236896181  1.0000
  C   C52       1.0  0.6283990477633027  0.2875995369445051  0.4343219429087384  1.0000
  C   C53       1.0  0.11640768082531142  0.7719997978872044  0.2764824773827712  1.0000
  C   C54       1.0  0.09139332262714825  0.777555991980357  0.22914442303017785  1.0000
  C   C55       1.0  0.21037272991238604  0.5562950949654423  0.22694504234319623  1.0000
  C   C56       1.0  0.6555127251570879  0.6521388082455959  0.7027263267462871  1.0000
  C   C57       1.0  0.23537041698592986  0.5506674886549308  0.2742944305542494  1.0000
  C   C58       1.0  0.18665577050917648  0.6614916812209088  0.2992443546924833  1.0000
  C   C59       1.0  0.14011539603229278  0.6667246284237792  0.20420493438982135  1.0000
  C   C60       1.0  0.11669465869997699  0.6686080341807498  0.1560538549974453  1.0000
  C   C61       1.0  0.2104119613361917  0.6594874586321711  0.3473655620332181  1.0000
  C   C62       1.0  0.09233937170633758  0.6780716226670906  0.1146795794508932  1.0000
  C   C63       1.0  0.727886895591723  0.0406603335454605  0.9334175965456027  1.0000
  C   C64       1.0  0.7190261514306968  0.7217081526547346  0.7273199421535921  1.0000
  C   C65       1.0  0.7120401543416933  0.7283594522673338  0.9340922066516413  1.0000
  C   C66       1.0  0.0592413449811103  0.6989197280062316  0.936616726193755  1.0000
  C   C67       1.0  0.6085010211673564  0.6089296339611893  0.7723858404352981  1.0000
  C   C68       1.0  0.7089038228733598  0.04677302944450191  0.0660288941755169  1.0000
  C   C69       1.0  0.7131458738813589  0.7210142713886685  0.0635878756424262  1.0000
  C   C70       1.0  0.043571412523014906  0.7095096776743759  0.0686474692561987  1.0000
  C   C71       1.0  0.6044396446545119  0.7853800016683227  0.761482739084407  1.0000
  C   C72       1.0  0.6882755122254948  0.7034756724679881  0.887655389645559  1.0000
  C   C73       1.0  0.5352739178201631  0.9154207067603153  0.7756650979900144  1.0000
  C   C74       1.0  0.4729850022727786  0.9988840347475546  0.7345396350717766  1.0000
  C   C75       1.0  0.2582538938818998  0.7917756319973678  0.8125062696055991  1.0000
  C   C76       1.0  0.15364455092810653  0.9192084666989546  0.8226782785850659  1.0000
  C   C77       1.0  0.7933084987392572  0.4437241796722946  0.1966062829362869  1.0000
  C   C78       1.0  0.5437648093402173  0.715401948147779  0.7377380215125697  1.0000
  C   C79       1.0  0.7826094287844183  0.777196672330554  0.700026068368885  1.0000
  C   C80       1.0  0.8322185666055333  0.8433863026525401  0.7304360071447606  1.0000
  C   C81       1.0  0.01501921076797426  0.8945734155361367  0.20419492930673044  1.0000
  C   C82       1.0  0.9818187456561772  0.008337864741740501  0.23246312753472156  1.0000
  C   C83       1.0  0.31140211714121335  0.43326963425683834  0.2990653718322848  1.0000
  C   C84       1.0  0.3471016201163407  0.3201788411544797  0.270005460873243  1.0000
  C   C85       1.0  0.6797231410626097  0.6904985279903714  0.8459016642206337  1.0000
  O   O1        1.0  0.5125350237592414  0.32354589127103145  0.5541306102687145  1.0000
  O   O2        1.0  0.8098577101076714  0.6497206985632362  0.9537789033860307  1.0000
  O   O3        1.0  0.024476635437849777  0.6253124950410155  0.9534081433086501  1.0000
  O   O4        1.0  0.2966975472765866  0.5283474961419117  0.5474381852406722  1.0000
  O   O5        1.0  0.017455316198961922  0.8140879850097069  0.0551713016406197  1.0000
  O   O6        1.0  0.8110340175970165  0.025987821755563797  0.048783762505358715  1.0000
  O   O7        1.0  0.6283056323725091  0.023584664051277602  0.04687488091178691  1.0000
  O   O8        1.0  0.6379432878782011  0.8199767348842001  0.0444206686214841  1.0000
  O   O9        1.0  0.8162534991352002  0.6426628535354908  0.0462188049339005  1.0000
  O   O10       1.0  0.026305832016674954  0.6312701921533089  0.0454969435072883  1.0000
  O   O11       1.0  0.835961446963985  0.8324658427425224  0.00037787700813400024  1.0000
  O   O12       1.0  0.5054340983470454  0.6961402953286965  0.45317503909088697  1.0000
  O   O13       1.0  0.31086929723421247  0.7013731241571364  0.5503672093102949  1.0000
  O   O14       1.0  0.5196975505985859  0.6895233832201202  0.545339262803708  1.0000
  O   O15       1.0  0.6965426928246004  0.5109511805554805  0.5469083815184916  1.0000
  O   O16       1.0  0.7023270758538016  0.3078564738100269  0.543804351031639  1.0000
  O   O17       1.0  0.529969369499483  0.30318349430392294  0.4534858163077544  1.0000
  O   O18       1.0  0.3187269697513245  0.5121864476239396  0.4474521559871505  1.0000
  O   O19       1.0  0.2989951085445242  0.6992738683647914  0.45794536974263883  1.0000
  O   O20       1.0  0.7662099771977681  0.429431841515445  0.1571742201548005  1.0000
  O   O21       1.0  0.8836034162837476  0.353753333177913  0.2216435182149539  1.0000
  O   O22       1.0  0.6890576288411623  0.5239791614229716  0.4545168699475397  1.0000
  O   O23       1.0  0.7065861423589722  0.3172695743380913  0.4513222303893941  1.0000
  O   O24       1.0  0.49925179765751415  0.5011785788535976  0.5005143843183859  1.0000
  O   O25       1.0  0.044000319987425485  0.7957111245189312  0.9551842180574042  1.0000
  O   O26       1.0  0.8352426199096924  0.0073655825471661005  0.9482006373533451  1.0000
  O   O27       1.0  0.6422275116819807  0.028513981032148205  0.9545254385725743  1.0000
  O   O28       1.0  0.6361252965000403  0.8308957485289099  0.9517709408539973  1.0000
  O   O29       1.0  0.33250687654672356  0.3276856777496988  0.49887021140629173  1.0000
  O   O30       1.0  0.0164760731623801  0.9921671714992613  0.005178045742368899  1.0000
