data_image0
_chemical_formula_structural       Ni3H20C20N14O12
_chemical_formula_sum              "Ni3 H20 C20 N14 O12"
_cell_length_a       7.299937358962545
_cell_length_b       9.767071471587712
_cell_length_c       11.771212735153249
_cell_angle_alpha    66.68807676962533
_cell_angle_beta     80.98002011675196
_cell_angle_gamma    74.1113703837699

_space_group_name_H-M_alt    "P 1"
_space_group_IT_number       1

loop_
  _space_group_symop_operation_xyz
  'x, y, z'

loop_
  _atom_site_type_symbol
  _atom_site_label
  _atom_site_symmetry_multiplicity
  _atom_site_fract_x
  _atom_site_fract_y
  _atom_site_fract_z
  _atom_site_occupancy
  Ni  Ni1       1.0  0.4457459241228179  0.5077133188445869  0.3772119684032162  1.0000
  Ni  Ni2       1.0  0.5542212289359725  0.49227514100445563  0.6229575319109769  1.0000
  Ni  Ni3       1.0  0.5001704100497406  0.4999909138718407  0.999738671225238  1.0000
  H   H1        1.0  0.8436082999713505  0.2981450077411765  0.09096799114031029  1.0000
  H   H2        1.0  0.15644174781714065  0.701884989562501  0.9089384593292351  1.0000
  H   H3        1.0  0.6850990035942814  0.20637702184925638  0.1213567573426175  1.0000
  H   H4        1.0  0.3147884248464479  0.7938163348431004  0.8785618693654698  1.0000
  H   H5        1.0  0.22567961234855705  0.4656785834394201  0.2438934266480572  1.0000
  H   H6        1.0  0.7744710760068187  0.5343838796180692  0.7561869831051098  1.0000
  H   H7        1.0  0.10042308771353699  0.5677879316622735  0.3258412625194609  1.0000
  H   H8        1.0  0.8995856516760413  0.43229633757334796  0.6741314564689276  1.0000
  H   H9        1.0  0.1139807422667687  0.0917540517914261  0.2355903458798565  1.0000
  H   H10       1.0  0.8861164947321216  0.9082552848655965  0.7644192462659519  1.0000
  H   H11       1.0  0.12866812984607634  0.23827803059946004  0.5124411379633642  1.0000
  H   H12       1.0  0.871300501538698  0.76177459863019  0.48755352796000306  1.0000
  H   H13       1.0  0.08528351558618402  0.24182431236471305  0.3684787013277671  1.0000
  H   H14       1.0  0.914712096226395  0.7581768960228175  0.631525799713863  1.0000
  H   H15       1.0  0.9749975393733906  0.7294989975938577  0.09591513522542534  1.0000
  H   H16       1.0  0.025026420775304814  0.2703216441054792  0.9041870440784835  1.0000
  H   H17       1.0  0.20251640590763023  0.8456124057700337  0.18591000585724518  1.0000
  H   H18       1.0  0.7975427620314194  0.15434563368837223  0.8141489777405156  1.0000
  H   H19       1.0  0.46745041378897423  0.7536523322879561  0.7141160188516763  1.0000
  H   H20       1.0  0.532538990152254  0.24639226230338812  0.2859242279020933  1.0000
  C   C1        1.0  0.7766960887070837  0.6197053799294351  0.3537835052505899  1.0000
  C   C2        1.0  0.2232351056503745  0.3802571067720065  0.6462221810403292  1.0000
  C   C3        1.0  0.7488922109949598  0.6294821398287881  0.2292164578196676  1.0000
  C   C4        1.0  0.25100118091167906  0.37039962709633306  0.7707572846889618  1.0000
  C   C5        1.0  0.8523340323167262  0.6797754599428673  0.11632685718822693  1.0000
  C   C6        1.0  0.1476179703368388  0.3201460481634443  0.8836561392641115  1.0000
  C   C7        1.0  0.7653428557621497  0.6450029954045036  0.03662812860215329  1.0000
  C   C8        1.0  0.23455228949750043  0.35512032562900947  0.963298971398082  1.0000
  C   C9        1.0  0.8101770466259878  0.6556847671363856  0.9084318609371567  1.0000
  C   C10       1.0  0.18995963885495826  0.34429070638249476  0.09155681597457739  1.0000
  C   C11       1.0  0.23320767923240746  0.8527329213649323  0.2703521513439213  1.0000
  C   C12       1.0  0.7668156867411041  0.1472465591887016  0.7296966036773966  1.0000
  C   C13       1.0  0.24375863306507742  0.9493358913903406  0.40864379723026906  1.0000
  C   C14       1.0  0.7562492822278557  0.05066645968687309  0.5913896920961791  1.0000
  C   C15       1.0  0.2250291951257637  0.0333450478936754  0.4858158334297968  1.0000
  C   C16       1.0  0.7749743656617838  0.9666757092287669  0.5142035925246162  1.0000
  C   C17       1.0  0.39703731111327295  0.8095962020280184  0.6265400986782268  1.0000
  C   C18       1.0  0.602957411939421  0.19042662080621403  0.3735016201927337  1.0000
  C   C19       1.0  0.33526403491809015  0.7935708343968957  0.450498803841036  1.0000
  C   C20       1.0  0.6646944324589298  0.2064215027668439  0.5495725982158746  1.0000
  N   N1        1.0  0.607046583494288  0.5706334823440714  0.2160965126409024  1.0000
  N   N2        1.0  0.3926920899847772  0.42939638664907426  0.7839658061671102  1.0000
  N   N3        1.0  0.6164208637393002  0.5801523041576431  0.0993859812062894  1.0000
  N   N4        1.0  0.38331985970694404  0.4200366837255983  0.900368546137649  1.0000
  N   N5        1.0  0.32616330684025746  0.7349988530515219  0.3625720189758042  1.0000
  N   N6        1.0  0.6738009032284537  0.2649796673830879  0.6375177590957151  1.0000
  N   N7        1.0  0.1805408049378485  0.9836043213786424  0.2937477919076059  1.0000
  N   N8        1.0  0.8195082413283574  0.016390535171545706  0.706278955992353  1.0000
  N   N9        1.0  0.13150633591259717  0.1801146701393534  0.4553804216895045  1.0000
  N   N10       1.0  0.8685044190783558  0.8199005048935035  0.5446256669598882  1.0000
  N   N11       1.0  0.305691930124425  0.9566432436865  0.5971698602189336  1.0000
  N   N12       1.0  0.6943147740768866  0.043385536500295516  0.4028602303644675  1.0000
  N   N13       1.0  0.4166775636554475  0.7201576285105844  0.561470403585105  1.0000
  N   N14       1.0  0.5832830625310449  0.27982780737978163  0.43860728158013973  1.0000
  O   O1        1.0  0.669730498332946  0.543943014933518  0.4403858251604973  1.0000
  O   O2        1.0  0.3303493295254469  0.4559255854567965  0.559687520861118  1.0000
  O   O3        1.0  0.7322465179853238  0.28982003166987624  0.055925818006798515  1.0000
  O   O4        1.0  0.2679427017203651  0.7101305670908218  0.9438992374876847  1.0000
  O   O5        1.0  0.9015505853756522  0.6767951370767804  0.3694491770799999  1.0000
  O   O6        1.0  0.09823972385626689  0.3233789575856179  0.6304097716599841  1.0000
  O   O7        1.0  0.21268058525196665  0.48441108960294327  0.3222245144199576  1.0000
  O   O8        1.0  0.7872158693839636  0.5155180218854698  0.6779220869303444  1.0000
  O   O9        1.0  0.698814071926826  0.6061620866686326  0.8661235825606539  1.0000
  O   O10       1.0  0.30148746479312655  0.3936247672806418  0.13385498477701668  1.0000
  O   O11       1.0  0.9497364338905782  0.7097222911295163  0.8440470064156216  1.0000
  O   O12       1.0  0.050360207256510074  0.29022976366212566  0.15593119684618267  1.0000
