data_image0
_chemical_formula_structural       Mg4P4H28C8O32
_chemical_formula_sum              "Mg4 P4 H28 C8 O32"
_cell_length_a       5.700043372973318
_cell_length_b       7.787043270571308
_cell_length_c       15.471286564922565
_cell_angle_alpha    90.00521519189044
_cell_angle_beta     89.99717304198022
_cell_angle_gamma    110.3910233613797

_space_group_name_H-M_alt    "P 1"
_space_group_IT_number       1

loop_
  _space_group_symop_operation_xyz
  'x, y, z'

loop_
  _atom_site_type_symbol
  _atom_site_label
  _atom_site_symmetry_multiplicity
  _atom_site_fract_x
  _atom_site_fract_y
  _atom_site_fract_z
  _atom_site_occupancy
  Mg  Mg1       1.0  0.7606533569097138  0.021243344169143093  0.6347206670253486  1.0000
  Mg  Mg2       1.0  0.23936344161661083  0.47877367412603183  0.1347179599477641  1.0000
  Mg  Mg3       1.0  0.2393475047236961  0.9787484980886346  0.3652781107762523  1.0000
  Mg  Mg4       1.0  0.7606458166199984  0.5212359784206057  0.8652801717836525  1.0000
  P   P1        1.0  0.5175857523171601  0.3401301091593965  0.6803648788401377  1.0000
  P   P2        1.0  0.4824063678893893  0.1598653605930451  0.18036803007646546  1.0000
  P   P3        1.0  0.4824146442255923  0.6598644684613859  0.3196358380802309  1.0000
  P   P4        1.0  0.5175972582157656  0.8401360670405182  0.8196313942375397  1.0000
  H   H1        1.0  0.4520022436020242  0.7180493307120629  0.5536373094348052  1.0000
  H   H2        1.0  0.5480157890843956  0.781977605466011  0.053632795298248916  1.0000
  H   H3        1.0  0.5479898344401591  0.2819424873613272  0.4463634074348377  1.0000
  H   H4        1.0  0.4519968016558522  0.2180279514983781  0.9463640436540359  1.0000
  H   H5        1.0  0.5522250698777285  0.861406303493105  0.4796652037833056  1.0000
  H   H6        1.0  0.4477876508505004  0.638605302858977  0.9796620308771369  1.0000
  H   H7        1.0  0.4477646057187742  0.13858413955826177  0.520334220345241  1.0000
  H   H8        1.0  0.5522135726239341  0.3613947499351511  0.020338039771751006  1.0000
  H   H9        1.0  0.03503866765593976  0.8329044681216973  0.5744456964090574  1.0000
  H   H10       1.0  0.9649597891260271  0.6671044521516336  0.0744434420178663  1.0000
  H   H11       1.0  0.9649625562502635  0.16709558424636833  0.4255498497292152  1.0000
  H   H12       1.0  0.035033297015068916  0.332896946119817  0.9255546895692961  1.0000
  H   H13       1.0  0.21514343067867248  0.9884280877604608  0.634536393549425  1.0000
  H   H14       1.0  0.7848609429214832  0.5115880934177569  0.13453667388478863  1.0000
  H   H15       1.0  0.7848582578864196  0.011569229670662701  0.3654617379806879  1.0000
  H   H16       1.0  0.2151356565820919  0.4884133146004857  0.8654614577055568  1.0000
  H   H17       1.0  0.009278896445380309  0.2653175521763417  0.7743560901919865  1.0000
  H   H18       1.0  0.9907124113162596  0.2346724071671602  0.2743624780420363  1.0000
  H   H19       1.0  0.9907017117598331  0.7346797069566192  0.22564398039506273  1.0000
  H   H20       1.0  0.009288631052619793  0.7653235405413954  0.7256388852591799  1.0000
  H   H21       1.0  0.22489814271850156  0.5036703988632923  0.6934611436063634  1.0000
  H   H22       1.0  0.7750978780858945  0.9963295221338554  0.19345021688116762  1.0000
  H   H23       1.0  0.7750921782723664  0.4963214147018959  0.3065434514136456  1.0000
  H   H24       1.0  0.2249164694589609  0.0036760395821958006  0.8065453293553875  1.0000
  H   H25       1.0  0.7326126218098779  0.5063668425907508  0.5676104209817581  1.0000
  H   H26       1.0  0.2673638632859792  0.9936174651921306  0.06760176783215852  1.0000
  H   H27       1.0  0.26737565906976357  0.49363180600183637  0.4323890032751693  1.0000
  H   H28       1.0  0.7326417006059672  0.006388072400405101  0.932396363831103  1.0000
  C   C1        1.0  0.20780047240460686  0.3681447303582389  0.6676201549601473  1.0000
  C   C2        1.0  0.7922056284501265  0.13185794853077232  0.1676203686067623  1.0000
  C   C3        1.0  0.7921957646411357  0.6318484677323112  0.332383147369498  1.0000
  C   C4        1.0  0.20780298377530937  0.8681503341106946  0.8323790558197788  1.0000
  C   C5        1.0  0.1374824618637973  0.36022247195976576  0.5726556626451185  1.0000
  C   C6        1.0  0.8625272203392458  0.13979101454420118  0.07265689392280453  1.0000
  C   C7        1.0  0.8625091510260465  0.6397720815374941  0.4273476397019494  1.0000
  C   C8        1.0  0.13748064311882063  0.8602268436045223  0.9273418842956576  1.0000
  O   O1        1.0  0.4943608556239242  0.15774549083681674  0.635546054724607  1.0000
  O   O2        1.0  0.5056371313059955  0.3422470042707175  0.1355575917483307  1.0000
  O   O3        1.0  0.5056366735675227  0.8422504469423445  0.3644533694974612  1.0000
  O   O4        1.0  0.4943623356105605  0.6577530435282811  0.864441186181651  1.0000
  O   O5        1.0  0.5578276185929667  0.8475648620715007  0.5429247582406449  1.0000
  O   O6        1.0  0.44218413995631073  0.6524572972246433  0.0429224350474442  1.0000
  O   O7        1.0  0.4421662163154991  0.1524269606926865  0.45707401955461086  1.0000
  O   O8        1.0  0.5578185563376081  0.3475496007697317  0.9570769893521529  1.0000
  O   O9        1.0  0.04229324135339847  0.894822053556915  0.6310599425987107  1.0000
  O   O10       1.0  0.9577038397709288  0.6051989232078225  0.1310544275918346  1.0000
  O   O11       1.0  0.9577066906538222  0.10517525887907908  0.36893689621250303  1.0000
  O   O12       1.0  0.042292294765339  0.3948052200516941  0.8689443503999572  1.0000
  O   O13       1.0  0.5710078936300106  0.845485477901434  0.7243201232587566  1.0000
  O   O14       1.0  0.4289919492154298  0.6545148103900189  0.2243249526732001  1.0000
  O   O15       1.0  0.4290017512245399  0.15450638890592225  0.2756805936267526  1.0000
  O   O16       1.0  0.5710220359332752  0.34548254133748196  0.7756751179439975  1.0000
  O   O17       1.0  0.02318108495647663  0.22369995851273222  0.7138116757665998  1.0000
  O   O18       1.0  0.9768202800810288  0.2762977498027936  0.21382258610017155  1.0000
  O   O19       1.0  0.9768162629443751  0.7762918743634444  0.2861909801837754  1.0000
  O   O20       1.0  0.02318815085381229  0.7237064279356956  0.7861800700546839  1.0000
  O   O21       1.0  0.9727930532621444  0.21523016010910825  0.5439441320100472  1.0000
  O   O22       1.0  0.027209527887869466  0.2847847254769816  0.043947214105372716  1.0000
  O   O23       1.0  0.027196338040838024  0.7847671236951683  0.45605917037823224  1.0000
  O   O24       1.0  0.9727978704795318  0.7152358680347461  0.9560535032318571  1.0000
  O   O25       1.0  0.25938175131351215  0.49850322207177555  0.5276280825294323  1.0000
  O   O26       1.0  0.7406268120910298  0.0015072296353792992  0.0276234440042629  1.0000
  O   O27       1.0  0.740606529134361  0.5014954269468674  0.4723758662381031  1.0000
  O   O28       1.0  0.2593902996171594  0.9985079177607902  0.9723759805379971  1.0000
  O   O29       1.0  0.7212020619873132  0.5058955031157097  0.6349648540568325  1.0000
  O   O30       1.0  0.27879189629706497  0.9940988376705419  0.1349581746589266  1.0000
  O   O31       1.0  0.2787932455555975  0.49410316503132623  0.3650352165651044  1.0000
  O   O32       1.0  0.7212163540256784  0.005901234495439701  0.8650406032789919  1.0000
