data_image0
_chemical_formula_structural       Cu2H10C14I2N4O2
_chemical_formula_sum              "Cu2 H10 C14 I2 N4 O2"
_cell_length_a       4.147102690107414
_cell_length_b       7.910895958076085
_cell_length_c       12.727013493124108
_cell_angle_alpha    74.55676090159552
_cell_angle_beta     83.87956560455045
_cell_angle_gamma    80.02356343031869

_space_group_name_H-M_alt    "P 1"
_space_group_IT_number       1

loop_
  _space_group_symop_operation_xyz
  'x, y, z'

loop_
  _atom_site_type_symbol
  _atom_site_label
  _atom_site_symmetry_multiplicity
  _atom_site_fract_x
  _atom_site_fract_y
  _atom_site_fract_z
  _atom_site_occupancy
  Cu  Cu1       1.0  0.281920124581589  0.889446646349171  0.02726358353667988  1.0000
  Cu  Cu2       1.0  0.7181057031637437  0.1105534172620608  0.9727360684094818  1.0000
  H   H1        1.0  0.6147606734852146  0.5146986752801651  0.12949514072952437  1.0000
  H   H2        1.0  0.38524932235584686  0.48529740738137406  0.8705104461315686  1.0000
  H   H3        1.0  0.8097824663489346  0.6501168652141942  0.4150774979602261  1.0000
  H   H4        1.0  0.19019577285320116  0.3498885603531576  0.5849198289186361  1.0000
  H   H5        1.0  0.8796198002631712  0.8763050735904301  0.23369556078304754  1.0000
  H   H6        1.0  0.12037819541684769  0.12369901254420768  0.7662997092215491  1.0000
  H   H7        1.0  0.774408789721747  0.255922572779042  0.5008033915083487  1.0000
  H   H8        1.0  0.22558997164383496  0.744078848610762  0.49919543248347503  1.0000
  H   H9        1.0  0.290409804141916  0.9873326518054313  0.3264164540438586  1.0000
  H   H10       1.0  0.7095917658425395  0.012667434902304799  0.6735840606652843  1.0000
  C   C1        1.0  0.43228230655315514  0.5458166995962302  0.1927600649668832  1.0000
  C   C2        1.0  0.5677092426313735  0.4541847058887071  0.8072453051688342  1.0000
  C   C3        1.0  0.38593194442919554  0.4218928970392212  0.29349804803128887  1.0000
  C   C4        1.0  0.6140640327477199  0.5781098504699713  0.7065014429863439  1.0000
  C   C5        1.0  0.987407246064002  0.6200671644504254  0.3503463754619531  1.0000
  C   C6        1.0  0.012590523175809666  0.3799289640100909  0.6496502118081295  1.0000
  C   C7        1.0  0.026293492918071534  0.7448021092171828  0.25202300303120506  1.0000
  C   C8        1.0  0.9736972580072845  0.25520197242949644  0.7479756694597839  1.0000
  C   C9        1.0  0.6499202462469426  0.14495337553594112  0.5021521552027153  1.0000
  C   C10       1.0  0.3500840997827695  0.8550453879066422  0.4978469065662382  1.0000
  C   C11       1.0  0.5317208545641919  0.13277931866977605  0.4064918863284959  1.0000
  C   C12       1.0  0.46828386616490997  0.8672181152546157  0.5935081665196976  1.0000
  C   C13       1.0  0.38300240367490096  0.9897922490952807  0.4029088699673623  1.0000
  C   C14       1.0  0.6170015757988381  0.010207841011258302  0.5970899866367319  1.0000
  I   I1        1.0  0.8382212983623348  0.8027120616236301  0.9211318696882529  1.0000
  I   I2        1.0  0.16178456275171266  0.19728137803773646  0.07887272822641482  1.0000
  N   N1        1.0  0.25211882212984443  0.7069757409821733  0.1732161040424316  1.0000
  N   N2        1.0  0.7478858985992503  0.2930216929422187  0.8267839488057689  1.0000
  N   N3        1.0  0.1680472398047002  0.4574292933672551  0.3719831550887918  1.0000
  N   N4        1.0  0.8319314148138234  0.5425747884107676  0.6280190924411855  1.0000
  O   O1        1.0  0.5776235339469339  0.26097487526461555  0.3081982745763057  1.0000
  O   O2        1.0  0.42237319262874  0.739025213208194  0.691803198599807  1.0000
