data_image0
_chemical_formula_structural       Cd2H28C38N8O8
_chemical_formula_sum              "Cd2 H28 C38 N8 O8"
_cell_length_a       9.143869088864344
_cell_length_b       11.188567105318251
_cell_length_c       12.336970138873765
_cell_angle_alpha    104.93121299425381
_cell_angle_beta     107.3625467751472
_cell_angle_gamma    108.44392228209094

_space_group_name_H-M_alt    "P 1"
_space_group_IT_number       1

loop_
  _space_group_symop_operation_xyz
  'x, y, z'

loop_
  _atom_site_type_symbol
  _atom_site_label
  _atom_site_symmetry_multiplicity
  _atom_site_fract_x
  _atom_site_fract_y
  _atom_site_fract_z
  _atom_site_occupancy
  Cd  Cd1       1.0  0.1271590119669811  0.4299303227080102  0.332341180097103  1.0000
  Cd  Cd2       1.0  0.8728402826817572  0.570069676337276  0.6676589617041913  1.0000
  H   H1        1.0  0.44430107396229357  0.2833220361122173  0.06150475821429779  1.0000
  H   H2        1.0  0.5556976776663662  0.7166769334520919  0.9384942177996364  1.0000
  H   H3        1.0  0.7572610290633435  0.018893633716707797  0.3594074962016833  1.0000
  H   H4        1.0  0.24273656926424544  0.981105326178522  0.6405904136001013  1.0000
  H   H5        1.0  0.29273180212239686  0.1734696803815154  0.5666505789194574  1.0000
  H   H6        1.0  0.7072652591708888  0.8265282568930912  0.4333469785738231  1.0000
  H   H7        1.0  0.3589950954196156  0.8584444604432377  0.2753971047907627  1.0000
  H   H8        1.0  0.6410070308940233  0.14155656684012283  0.7246038947856235  1.0000
  H   H9        1.0  0.49316255505427636  0.8836059757430091  0.6462283726554007  1.0000
  H   H10       1.0  0.5068412436374032  0.11639606324899889  0.3537716050050789  1.0000
  H   H11       1.0  0.8309615248380952  0.1782335263157648  0.06650795463041698  1.0000
  H   H12       1.0  0.169037831085781  0.8217644165762932  0.933490108329458  1.0000
  H   H13       1.0  0.6854424109007695  0.012405771549573799  0.8460192849588208  1.0000
  H   H14       1.0  0.3145574880431852  0.987593200823461  0.15397994378841415  1.0000
  H   H15       1.0  0.8495867473719445  0.9692183606511123  0.7257808204383309  1.0000
  H   H16       1.0  0.15041376185300243  0.0307795919100329  0.274218308733694  1.0000
  H   H17       1.0  0.16381181680213788  0.08267680050403922  0.8201180908886628  1.0000
  H   H18       1.0  0.8361875451075208  0.9173211492483729  0.1798807855500612  1.0000
  H   H19       1.0  0.49570669949564217  0.5387527064426862  0.3426901123059238  1.0000
  H   H20       1.0  0.5042926011388786  0.461247299462947  0.657310842974219  1.0000
  H   H21       1.0  0.5200033457311903  0.39751791708247447  0.3714576114644004  1.0000
  H   H22       1.0  0.47999541188325173  0.6024810593421818  0.6285421780283897  1.0000
  H   H23       1.0  0.7550773289014572  0.34649255440950805  0.350180117931039  1.0000
  H   H24       1.0  0.24492250278158434  0.6535084672564012  0.6498203761787522  1.0000
  H   H25       1.0  0.9509617233098314  0.622999152937581  0.19726547225994298  1.0000
  H   H26       1.0  0.049039255688505555  0.377001871537054  0.8027352745831492  1.0000
  H   H27       1.0  0.6464536246679059  0.6246991007558405  0.19972695379164654  1.0000
  H   H28       1.0  0.35354680532457666  0.37530088737747047  0.800271813785237  1.0000
  C   C1        1.0  0.055837293872372074  0.22093654233248822  0.4133084936914884  1.0000
  C   C2        1.0  0.9441597674209135  0.7790613949421185  0.5866890638017991  1.0000
  C   C3        1.0  0.8626422994298437  0.008945467305572701  0.4204036682792349  1.0000
  C   C4        1.0  0.13735759352833557  0.9910534982071156  0.5795947469891446  1.0000
  C   C5        1.0  0.027652719778466  0.10727775188247787  0.4586940233454015  1.0000
  C   C6        1.0  0.9723443415148125  0.8927201853921286  0.5413035341478859  1.0000
  C   C7        1.0  0.16498566911084822  0.09752464854459221  0.5386556553596762  1.0000
  C   C8        1.0  0.8350130765320359  0.9024743141593703  0.4613425071754093  1.0000
  C   C9        1.0  0.3296896352553846  0.7047121744037881  0.40763811934250066  1.0000
  C   C10       1.0  0.670314706456381  0.29529089406918985  0.5923630241053317  1.0000
  C   C11       1.0  0.4190252538135228  0.8572558842936503  0.4564492433409413  1.0000
  C   C12       1.0  0.5809797161365681  0.14274618494849278  0.5435542409682412  1.0000
  C   C13       1.0  0.42194996860249734  0.9221852765553533  0.3735136938326135  1.0000
  C   C14       1.0  0.5780528472246048  0.0778126953439511  0.6264875677637036  1.0000
  C   C15       1.0  0.4976446013403761  0.9360774162584846  0.583298781097433  1.0000
  C   C16       1.0  0.502358745535247  0.0639215714010888  0.4167020193285397  1.0000
  C   C17       1.0  0.0785558399312407  0.22504330446166418  0.06486671401413699  1.0000
  C   C18       1.0  0.9214429116974189  0.7749556651026381  0.935132261999797  1.0000
  C   C19       1.0  0.9018298701942272  0.1591056773692472  0.012189368305833231  1.0000
  C   C20       1.0  0.09817117606503006  0.8408932978125138  0.987810113174696  1.0000
  C   C21       1.0  0.8231875238526599  0.0669053588891018  0.890038337557442  1.0000
  C   C22       1.0  0.176812375091295  0.9330936134839334  0.10996089118979309  1.0000
  C   C23       1.0  0.9166869221932785  0.04135377308347191  0.8215673558223174  1.0000
  C   C24       1.0  0.08331297675067639  0.9586451992895634  0.1784318729249179  1.0000
  C   C25       1.0  0.09315807830785872  0.1057285805569279  0.873394530114851  1.0000
  C   C26       1.0  0.90684351097147  0.8942714241058097  0.12660611715303105  1.0000
  C   C27       1.0  0.17180046205277225  0.19729027428152074  0.996193920119353  1.0000
  C   C28       1.0  0.8281988266101907  0.8027097179034116  0.003805408203085352  1.0000
  C   C29       1.0  0.34545691684267876  0.34788833998589297  0.1886077934197559  1.0000
  C   C30       1.0  0.6545429088545874  0.6521126748196623  0.8113918872111797  1.0000
  C   C31       1.0  0.5042467605103766  0.44295690315082936  0.3018367579102089  1.0000
  C   C32       1.0  0.4957536814536567  0.5570430987031826  0.698163636624379  1.0000
  C   C33       1.0  0.7673788157500496  0.4190284379461671  0.305795339531933  1.0000
  C   C34       1.0  0.2326238595694434  0.5809736256785172  0.6942076393106618  1.0000
  C   C35       1.0  0.8631724474294344  0.5640489286189022  0.22686933136684923  1.0000
  C   C36       1.0  0.13682961760906667  0.4359541548176793  0.7731337470509486  1.0000
  C   C37       1.0  0.7135796400277526  0.565636079283152  0.22696949094593316  1.0000
  C   C38       1.0  0.28642302930596497  0.4343659774811854  0.7730326744178058  1.0000
  N   N1        1.0  0.19092654098183456  0.31949488825875244  0.18325354623809884  1.0000
  N   N2        1.0  0.8090727416953529  0.6805050970658328  0.8167449686054908  1.0000
  N   N3        1.0  0.3407061418314044  0.2767957066036501  0.07838084991615088  1.0000
  N   N4        1.0  0.6592931468315585  0.723204285581275  0.9216184784062875  1.0000
  N   N5        1.0  0.6546624887025488  0.47319796360545047  0.2771941894192053  1.0000
  N   N6        1.0  0.3453390273300911  0.5268040834898073  0.7228069097323838  1.0000
  N   N7        1.0  0.8943635797110759  0.4718569053957393  0.27578215337143763  1.0000
  N   N8        1.0  0.1056373439979056  0.5281461820924633  0.7242214857919151  1.0000
  O   O1        1.0  0.2065788062301835  0.31574543940222105  0.458081360370258  1.0000
  O   O2        1.0  0.7934176447821033  0.684253517684283  0.5419162966982327  1.0000
  O   O3        1.0  0.9302912626084847  0.21926760283265884  0.33149007047600776  1.0000
  O   O4        1.0  0.06970465735528114  0.7807303384935693  0.6685080477628347  1.0000
  O   O5        1.0  0.3147748607563017  0.6476229279598725  0.4845753623400881  1.0000
  O   O6        1.0  0.6852255752219634  0.35237706703378535  0.5154242187156441  1.0000
  O   O7        1.0  0.2696450759782253  0.6366389607145563  0.2926014426366095  1.0000
  O   O8        1.0  0.7303588079317009  0.3633610495656328  0.7073997100978603  1.0000
