data_image0
_chemical_formula_structural       Cu4H28C28N12Cl4O4
_chemical_formula_sum              "Cu4 H28 C28 N12 Cl4 O4"
_cell_length_a       7.023776467809497
_cell_length_b       11.233459356217109
_cell_length_c       11.4229514121989
_cell_angle_alpha    69.96108858445777
_cell_angle_beta     87.07458162966086
_cell_angle_gamma    86.18418449360108

_space_group_name_H-M_alt    "P 1"
_space_group_IT_number       1

loop_
  _space_group_symop_operation_xyz
  'x, y, z'

loop_
  _atom_site_type_symbol
  _atom_site_label
  _atom_site_symmetry_multiplicity
  _atom_site_fract_x
  _atom_site_fract_y
  _atom_site_fract_z
  _atom_site_occupancy
  Cu  Cu1       1.0  0.8289256144780522  0.9171077488658739  0.3730362784491917  1.0000
  Cu  Cu2       1.0  0.17108386962124905  0.08290032721554043  0.6269519926946072  1.0000
  Cu  Cu3       1.0  0.3612637638805295  0.8331105964155157  0.5368882426264605  1.0000
  Cu  Cu4       1.0  0.6387447403102086  0.16688697360980603  0.463121059908154  1.0000
  H   H1        1.0  0.999587817666686  0.7096590908214182  0.27083502105455887  1.0000
  H   H2        1.0  0.0004364607960524935  0.2903395028209204  0.7291665959435392  1.0000
  H   H3        1.0  0.9818414285889924  0.6731330901805066  0.06492851040350449  1.0000
  H   H4        1.0  0.018182501656340787  0.3268692956281285  0.9350727265742902  1.0000
  H   H5        1.0  0.8156653788200925  0.8402607205090646  0.8898243743037069  1.0000
  H   H6        1.0  0.18433781846204053  0.15973304594258764  0.11018368292476309  1.0000
  H   H7        1.0  0.6895299779576333  0.04237004492676281  0.9202991910533455  1.0000
  H   H8        1.0  0.31046814283909185  0.957618029905376  0.07970561811928427  1.0000
  H   H9        1.0  0.37346728153845266  0.3705729016399744  0.5233127899116211  1.0000
  H   H10       1.0  0.6265248040273477  0.629436999330885  0.47668050193799144  1.0000
  H   H11       1.0  0.25696523368442564  0.5948487011499425  0.404416000002058  1.0000
  H   H12       1.0  0.7430354471994247  0.40516123300657375  0.595575344317524  1.0000
  H   H13       1.0  0.35902632673038665  0.690044695763021  0.178429742601125  1.0000
  H   H14       1.0  0.6409690333993578  0.3099623933099025  0.8215574108194372  1.0000
  H   H15       1.0  0.5532580487748647  0.5545947521447799  0.07809485567430842  1.0000
  H   H16       1.0  0.4467337516671464  0.44540186053250613  0.9219028683305054  1.0000
  H   H17       1.0  0.7388367285434042  0.9701950954466128  0.6888433213087237  1.0000
  H   H18       1.0  0.2611611231273868  0.029819635101340204  0.3111298510714207  1.0000
  H   H19       1.0  0.7134002084238131  0.8274534062455247  0.6568642711932996  1.0000
  H   H20       1.0  0.28659974550049566  0.17254413702397645  0.34314522466345915  1.0000
  H   H21       1.0  0.9424036516023689  0.8930406039088014  0.6386477844270644  1.0000
  H   H22       1.0  0.05759958205105418  0.10695220726770319  0.361362341290338  1.0000
  H   H23       1.0  0.09847799463651086  0.42175462974925193  0.11651898784474918  1.0000
  H   H24       1.0  0.9015180999493919  0.5782391176208108  0.8834883533815725  1.0000
  H   H25       1.0  0.02369862351473267  0.31958836201073393  0.2686664768215436  1.0000
  H   H26       1.0  0.9762857138181997  0.680408180146202  0.7313445648441571  1.0000
  H   H27       1.0  0.9201454111423855  0.47713463191060146  0.20695671874386792  1.0000
  H   H28       1.0  0.07984326373598796  0.5228638534640809  0.7930448266592405  1.0000
  C   C1        1.0  0.7199375484237646  0.09362493182497639  0.13898405629890934  1.0000
  C   C2        1.0  0.28006146382836034  0.906368834108456  0.8610205891748776  1.0000
  C   C3        1.0  0.6702288036949111  0.3046475502029793  0.1914453726996612  1.0000
  C   C4        1.0  0.32976453958569607  0.6953471628131567  0.8085547018548026  1.0000
  C   C5        1.0  0.7834289864618923  0.9808829735295034  0.10978580712330914  1.0000
  C   C6        1.0  0.21656275156788496  0.019111709307949802  0.8902213164830286  1.0000
  C   C7        1.0  0.9347607110634041  0.7800395738279919  0.18940893670616513  1.0000
  C   C8        1.0  0.06525249273568078  0.21995518875869643  0.8105941951790427  1.0000
  C   C9        1.0  0.9208195897449866  0.760058516624632  0.07656280569706544  1.0000
  C   C10       1.0  0.07919167278131307  0.23994385155472742  0.9234325815363744  1.0000
  C   C11       1.0  0.8306834689893704  0.8543815581439915  0.9784500778042966  1.0000
  C   C12       1.0  0.16932591281128137  0.145622661472693  0.021556115438592385  1.0000
  C   C13       1.0  0.760769283707617  0.9666539654440812  0.9946114390429127  1.0000
  C   C14       1.0  0.23923367798612105  0.0333436092484831  0.005391852645559004  1.0000
  C   C15       1.0  0.566157662903208  0.39392945571080423  0.24926128906804482  1.0000
  C   C16       1.0  0.43382861405246576  0.6060642829485872  0.7507401379732102  1.0000
  C   C17       1.0  0.4086261606703514  0.4160353075065971  0.4247963070488153  1.0000
  C   C18       1.0  0.5913708739376772  0.5839670192946471  0.5751985252842642  1.0000
  C   C19       1.0  0.34523393216787907  0.5398507280316664  0.3578079487112546  1.0000
  C   C20       1.0  0.6547610623838337  0.46015822979757115  0.6421864700826417  1.0000
  C   C21       1.0  0.4006137230831114  0.5920923617572954  0.23251542183800197  1.0000
  C   C22       1.0  0.599396091872968  0.40790999874784  0.7674808747197374  1.0000
  C   C23       1.0  0.5115820387225154  0.5174334589832271  0.17668631333193469  1.0000
  C   C24       1.0  0.4884134079953099  0.48257076104932406  0.8233079226593816  1.0000
  C   C25       1.0  0.788713502280089  0.9164198485255355  0.628152598233356  1.0000
  C   C26       1.0  0.2112939147532912  0.0835777652643088  0.3718435799625225  1.0000
  C   C27       1.0  0.9774819346063095  0.39452894450077763  0.18298111840671535  1.0000
  C   C28       1.0  0.022511088147879766  0.6054676437015091  0.8170244673132032  1.0000
  N   N1        1.0  0.7058604462422479  0.1837864972367171  0.2902002859914532  1.0000
  N   N2        1.0  0.29414286718402843  0.8162101671896026  0.7097927947308094  1.0000
  N   N3        1.0  0.7490795847165044  0.0885031803640501  0.2564759763726626  1.0000
  N   N4        1.0  0.2509157406919939  0.9115000618889016  0.7435264678351743  1.0000
  N   N5        1.0  0.5965546227240495  0.18533571237697544  0.07040134637122718  1.0000
  N   N6        1.0  0.4034481622783942  0.8146647184962675  0.9295983711622426  1.0000
  N   N7        1.0  0.5441534146134044  0.2816385540528685  0.10148004898314156  1.0000
  N   N8        1.0  0.45584562367965004  0.7183580969955443  0.8985131284001894  1.0000
  N   N9        1.0  0.868111701651685  0.8880883128705152  0.2055714662938611  1.0000
  N   N10       1.0  0.13189171220816578  0.11190452402536981  0.7944316425920305  1.0000
  N   N11       1.0  0.519542460122757  0.3451078221937679  0.37176787835039693  1.0000
  N   N12       1.0  0.48044301644939924  0.6548944464285995  0.6282333514731278  1.0000
  Cl  Cl1       1.0  0.46858353655121476  0.8419995258672301  0.3479975050451926  1.0000
  Cl  Cl2       1.0  0.5314033753957118  0.15799890682431791  0.6520172291373639  1.0000
  Cl  Cl3       1.0  0.9940512703438599  0.743493759900197  0.4865707550827523  1.0000
  Cl  Cl4       1.0  0.005927863347778793  0.256517043352396  0.5134242666768997  1.0000
  O   O1        1.0  0.7505040921117041  0.9917903827168574  0.5019676591714342  1.0000
  O   O2        1.0  0.2495100343488942  0.008211035891037  0.49803060921416886  1.0000
  O   O3        1.0  0.8372871187985563  0.35165177102095413  0.12032591811827589  1.0000
  O   O4        1.0  0.16271195235066216  0.6483410428522519  0.8796799187405071  1.0000
