data_image0
_chemical_formula_structural       Ag2H36C34S6O6F6
_chemical_formula_sum              "Ag2 H36 C34 S6 O6 F6"
_cell_length_a       9.664859427225819
_cell_length_b       10.089861259528556
_cell_length_c       11.733339196470245
_cell_angle_alpha    78.31809324984015
_cell_angle_beta     65.95041814918967
_cell_angle_gamma    68.71534094838252

_space_group_name_H-M_alt    "P 1"
_space_group_IT_number       1

loop_
  _space_group_symop_operation_xyz
  'x, y, z'

loop_
  _atom_site_type_symbol
  _atom_site_label
  _atom_site_symmetry_multiplicity
  _atom_site_fract_x
  _atom_site_fract_y
  _atom_site_fract_z
  _atom_site_occupancy
  Ag  Ag1       1.0  0.25959600161933594  0.4461486102937399  0.9317583072710248  1.0000
  Ag  Ag2       1.0  0.7404070742013004  0.5538535988247162  0.06824033980134912  1.0000
  H   H1        1.0  0.14361877866858921  0.39079943530919087  0.7597576228227821  1.0000
  H   H2        1.0  0.8563827882197756  0.6092006374940055  0.24024104739903152  1.0000
  H   H3        1.0  0.9917262230810308  0.2885356614184076  0.6950237257529607  1.0000
  H   H4        1.0  0.008273456603298292  0.7114665393164828  0.30497606045623366  1.0000
  H   H5        1.0  0.10896757186248612  0.03665701426885449  0.6313154275488201  1.0000
  H   H6        1.0  0.8910260703692429  0.9633462383283415  0.3686861990225694  1.0000
  H   H7        1.0  0.38332149658936737  0.8956141079436793  0.6229806444095232  1.0000
  H   H8        1.0  0.6166732769494914  0.10438274684950952  0.37702171106927557  1.0000
  H   H9        1.0  0.5366622480877368  0.9979649810231805  0.6840494663341232  1.0000
  H   H10       1.0  0.4633336557119065  0.002028674378024699  0.3159547690892168  1.0000
  H   H11       1.0  0.648465927674117  0.04865850494257979  0.7874037639908592  1.0000
  H   H12       1.0  0.3515322395392103  0.9513415547589619  0.212600308735226  1.0000
  H   H13       1.0  0.6292337787085956  0.17671542101554388  0.8810663917080247  1.0000
  H   H14       1.0  0.37076627749340935  0.823285712940809  0.11893430537384822  1.0000
  H   H15       1.0  0.3748159782478596  0.1471250147028158  0.03574843065725021  1.0000
  H   H16       1.0  0.6251837010673144  0.8528739857328062  0.9642519098617939  1.0000
  H   H17       1.0  0.37470353619688984  0.030599395187501002  0.9414454471611291  1.0000
  H   H18       1.0  0.625298027152738  0.9694006728976132  0.058557486428121336  1.0000
  H   H19       1.0  0.8330786028450066  0.8085913154589406  0.7914752197631358  1.0000
  H   H20       1.0  0.16692258786427064  0.19140662476714  0.20852224122235435  1.0000
  H   H21       1.0  0.8877643076618045  0.8724171202318728  0.5646367789377322  1.0000
  H   H22       1.0  0.11223877095925162  0.1275786930061358  0.43535871338688276  1.0000
  H   H23       1.0  0.16829324637576093  0.8082502341826442  0.4112970792618782  1.0000
  H   H24       1.0  0.8317120963361688  0.1917455846444014  0.5886976536381923  1.0000
  H   H25       1.0  0.39227176118253493  0.6865244083058429  0.48632837645013877  1.0000
  H   H26       1.0  0.6077294274035056  0.3134735290893857  0.5136716425558203  1.0000
  H   H27       1.0  0.3379065171092961  0.6271185127256376  0.7137062988653112  1.0000
  H   H28       1.0  0.6620954262967513  0.3728804932990286  0.28629328222918105  1.0000
  H   H29       1.0  0.11502472183239831  0.7550132024537036  0.06073804707058631  1.0000
  H   H30       1.0  0.8849757137182835  0.24498686849859305  0.9392601501900157  1.0000
  H   H31       1.0  0.215239182775342  0.8002940701664228  0.9016429802685831  1.0000
  H   H32       1.0  0.7847601189758182  0.1997091954597678  0.0983576004149142  1.0000
  H   H33       1.0  0.8602729276141333  0.9385106442244363  0.058985509854274296  1.0000
  H   H34       1.0  0.13972788266957542  0.06148515776282441  0.9410158579358235  1.0000
  H   H35       1.0  0.9503930408994423  0.9815392270157445  0.8968676893975808  1.0000
  H   H36       1.0  0.04960324227943151  0.018459765036311596  0.1031337902582834  1.0000
  C   C1        1.0  0.2943845410914889  0.3972152968697529  0.34864031053979966  1.0000
  C   C2        1.0  0.7056128759174668  0.6027869001633307  0.6513585297469715  1.0000
  C   C3        1.0  0.3486001554091943  0.20021141013188531  0.7288766144906019  1.0000
  C   C4        1.0  0.6513991463114053  0.7997854558393841  0.2711242221390932  1.0000
  C   C5        1.0  0.19625522601153017  0.2822640128533322  0.7293316901685927  1.0000
  C   C6        1.0  0.8037440753704747  0.7177360524735903  0.2706694448247475  1.0000
  C   C7        1.0  0.1110976620227859  0.22438463464922628  0.6923950839261366  1.0000
  C   C8        1.0  0.8889027728201455  0.7756154353594554  0.3076039660079528  1.0000
  C   C9        1.0  0.17670051400133963  0.0841917171811488  0.6564853561844899  1.0000
  C   C10       1.0  0.823298412278476  0.9158094168115409  0.34351316258919684  1.0000
  C   C11       1.0  0.33014977911393123  0.0039439945245263  0.6530679588379726  1.0000
  C   C12       1.0  0.6698483912689782  0.9960528695958429  0.34693240483050397  1.0000
  C   C13       1.0  0.41689720592336954  0.06176066604843561  0.6879973175740587  1.0000
  C   C14       1.0  0.5831009630440463  0.9382361961846967  0.3120047514414068  1.0000
  C   C15       1.0  0.5617921251378989  0.1281611683347492  0.8554086739882008  1.0000
  C   C16       1.0  0.4382071755363627  0.8718388960485585  0.1445933136786265  1.0000
  C   C17       1.0  0.4525408793445821  0.0638895292996366  0.9689988573547479  1.0000
  C   C18       1.0  0.5474614395328034  0.9361116083585297  0.031002785649555314  1.0000
  C   C19       1.0  0.08212603982027394  0.7162485476192018  0.7660906295605513  1.0000
  C   C20       1.0  0.9178770373852885  0.28374726373157705  0.2339065681110455  1.0000
  C   C21       1.0  0.9552393073522084  0.7858996198586965  0.724720204057114  1.0000
  C   C22       1.0  0.04476263639242721  0.2140961868103233  0.2752790786737335  1.0000
  C   C23       1.0  0.9866901891586224  0.8203294073332614  0.5970815870550368  1.0000
  C   C24       1.0  0.013309868089727712  0.1796685282110673  0.40291795898970406  1.0000
  C   C25       1.0  0.14359687194148318  0.7850565584394432  0.5113263940514654  1.0000
  C   C26       1.0  0.8564058291155591  0.21494351998912717  0.48866933843761007  1.0000
  C   C27       1.0  0.26989224373189574  0.7156339400312959  0.5533322680452882  1.0000
  C   C28       1.0  0.7301066828865148  0.28436399460574086  0.4466659523647534  1.0000
  C   C29       1.0  0.239817197371302  0.6812097125602676  0.6804817529703441  1.0000
  C   C30       1.0  0.7601843684707249  0.31879355865496706  0.31951806828860185  1.0000
  C   C31       1.0  0.09819261507667681  0.7995738911769481  0.9721102621676178  1.0000
  C   C32       1.0  0.9018063104953883  0.2004272418721271  0.02788910927955605  1.0000
  C   C33       1.0  0.9730067689158729  0.9455764497292024  0.984606184887639  1.0000
  C   C34       1.0  0.026991778353867298  0.05442254791189781  0.015394535343674  1.0000
  S   S1        1.0  0.45686043016059574  0.27695567782258484  0.7734140006477758  1.0000
  S   S2        1.0  0.5431403808308631  0.723040125108291  0.22658651446882763  1.0000
  S   S3        1.0  0.040944768610771134  0.6685650436119417  0.9289030175175267  1.0000
  S   S4        1.0  0.9590571740875264  0.3314339614691021  0.07109741625045274  1.0000
  S   S5        1.0  0.3573528090816326  0.46317037531057537  0.18058981073489383  1.0000
  S   S6        1.0  0.6426476233300279  0.5368392908778147  0.8194118396371053  1.0000
  O   O1        1.0  0.2815607505107635  0.3964613832121485  0.13206725465435912  1.0000
  O   O2        1.0  0.7184366687131102  0.6035600156165373  0.8679282597733502  1.0000
  O   O3        1.0  0.2899520626944607  0.617432352698124  0.1850558571441709  1.0000
  O   O4        1.0  0.7100544000923393  0.3825762521917823  0.814952479600521  1.0000
  O   O5        1.0  0.5310762126981601  0.4055454845325599  0.1355623103631842  1.0000
  O   O6        1.0  0.4689242179288515  0.5944609794693247  0.8644415996656319  1.0000
  F   F1        1.0  0.1343658364615834  0.44739746097498323  0.4064079889581932  1.0000
  F   F2        1.0  0.8656274338375383  0.5526036647068012  0.5935873123359414  1.0000
  F   F3        1.0  0.3396616744355114  0.2520138825335181  0.35997706443662736  1.0000
  F   F4        1.0  0.6603410315757544  0.7479862025003783  0.6400126993380297  1.0000
  F   F5        1.0  0.3629643473387675  0.43905264935113314  0.40996598983457494  1.0000
  F   F6        1.0  0.6370266478535741  0.5609388566331576  0.5900436712424763  1.0000
