data_image0
_chemical_formula_structural       Ag8H16C32S4O28
_chemical_formula_sum              "Ag8 H16 C32 S4 O28"
_cell_length_a       7.825986581002907
_cell_length_b       11.184963097504356
_cell_length_c       12.497284341664582
_cell_angle_alpha    115.68183336013024
_cell_angle_beta     90.00009327904208
_cell_angle_gamma    89.9999301537313

_space_group_name_H-M_alt    "P 1"
_space_group_IT_number       1

loop_
  _space_group_symop_operation_xyz
  'x, y, z'

loop_
  _atom_site_type_symbol
  _atom_site_label
  _atom_site_symmetry_multiplicity
  _atom_site_fract_x
  _atom_site_fract_y
  _atom_site_fract_z
  _atom_site_occupancy
  Ag  Ag1       1.0  0.5856618043038964  0.17901507356169327  0.25951378509029865  1.0000
  Ag  Ag2       1.0  0.08565952069844937  0.3209817250743612  0.24048480915310927  1.0000
  Ag  Ag3       1.0  0.41433906216920496  0.8209835619314846  0.7404859746453949  1.0000
  Ag  Ag4       1.0  0.9143387901855891  0.6790188945318434  0.7595157167223404  1.0000
  Ag  Ag5       1.0  0.3735352961741755  0.40734688425409626  0.49042376028721424  1.0000
  Ag  Ag6       1.0  0.8735345243502336  0.09265276103216992  0.009575425984948495  1.0000
  Ag  Ag7       1.0  0.6264655702982509  0.5926507570579035  0.5095748153818676  1.0000
  Ag  Ag8       1.0  0.12646634212035932  0.9073498405609899  0.9904250650362202  1.0000
  H   H1        1.0  0.026834248476710308  0.40355876225315507  0.7091691926228733  1.0000
  H   H2        1.0  0.52683420190359  0.09644189644181012  0.7908311784963047  1.0000
  H   H3        1.0  0.9731653402018596  0.5964408652965362  0.29083095018270194  1.0000
  H   H4        1.0  0.4731641089818552  0.9035577332331142  0.20916976530492795  1.0000
  H   H5        1.0  0.2449910899411734  0.2775598530053287  0.8716659182597792  1.0000
  H   H6        1.0  0.7449916787245244  0.22244170120436732  0.6283350206969585  1.0000
  H   H7        1.0  0.7550072209418203  0.7224407644759337  0.12833380661947297  1.0000
  H   H8        1.0  0.2550079099533137  0.7775599104577893  0.3716658882494456  1.0000
  H   H9        1.0  0.22971876648707482  0.7018024348774857  0.07564568216866258  1.0000
  H   H10       1.0  0.7297161601224857  0.7981992433041467  0.4243543743513384  1.0000
  H   H11       1.0  0.7702820999832128  0.29819818047825924  0.9243532417154723  1.0000
  H   H12       1.0  0.27028342855572157  0.20180137630178052  0.5756461515246514  1.0000
  H   H13       1.0  0.38575811191814313  0.6760712881779085  0.23749650809889292  1.0000
  H   H14       1.0  0.8857575951433319  0.8239293288946427  0.2625032975083527  1.0000
  H   H15       1.0  0.6142440323452761  0.3239293250526103  0.7625016147895848  1.0000
  H   H16       1.0  0.1142432713300749  0.1760712928359425  0.7374980293643814  1.0000
  C   C1        1.0  0.44885581069355146  0.46576505549460023  0.2679050575915056  1.0000
  C   C2        1.0  0.948858275294789  0.0342345628340581  0.23209659546296274  1.0000
  C   C3        1.0  0.5511463335705358  0.5342365519170967  0.7320942493635838  1.0000
  C   C4        1.0  0.051143868973156315  0.965765066840014  0.7679043483398901  1.0000
  C   C5        1.0  0.38359743766335447  0.46431183717728447  0.1538269596427284  1.0000
  C   C6        1.0  0.8836001965718339  0.03568879783656342  0.34617341921962447  1.0000
  C   C7        1.0  0.6164034288048582  0.5356887739285767  0.8461703622490118  1.0000
  C   C8        1.0  0.1164019476961045  0.9643108318375084  0.6538275245832209  1.0000
  C   C9        1.0  0.34689148255102964  0.35114799477836556  0.04737152465916945  1.0000
  C   C10       1.0  0.8468904878501177  0.1488526564798676  0.45262882311366326  1.0000
  C   C11       1.0  0.653109383919258  0.6488526205773867  0.9526273992249726  1.0000
  C   C12       1.0  0.15310910082845205  0.8511469710698238  0.5473713196919049  1.0000
  C   C13       1.0  0.2680616938621582  0.3653527516605167  0.9537174587775323  1.0000
  C   C14       1.0  0.7680622221541497  0.13464680610229607  0.546281932581685  1.0000
  C   C15       1.0  0.7319391726084917  0.6346468716389994  0.046281082036181094  1.0000
  C   C16       1.0  0.23193864431962646  0.86535282357206  0.4537190112206276  1.0000
  C   C17       1.0  0.22074999106161639  0.4908446908007917  0.9639918339514251  1.0000
  C   C18       1.0  0.7207494335467645  0.0091548900241492  0.5360083183331169  1.0000
  C   C19       1.0  0.779249597615916  0.5091549346239506  0.03600750785795281  1.0000
  C   C20       1.0  0.27925015513284285  0.9908447396504914  0.4639926254686558  1.0000
  C   C21       1.0  0.2626846529848592  0.6035613740291411  0.06733281451543152  1.0000
  C   C22       1.0  0.7626857304107234  0.8964393017568854  0.43266848884841375  1.0000
  C   C23       1.0  0.7373123801043351  0.3964382513961767  0.9326665272928593  1.0000
  C   C24       1.0  0.2373138582695589  0.10356132209893332  0.5673336390199708  1.0000
  C   C25       1.0  0.3466154167930284  0.589051651345571  0.15890023806596076  1.0000
  C   C26       1.0  0.8466162306622635  0.9109489872984684  0.3411011363825267  1.0000
  C   C27       1.0  0.653385449677259  0.41094896401018133  0.8410986858181813  1.0000
  C   C28       1.0  0.15338463581114328  0.0890516344321171  0.6589001904902004  1.0000
  C   C29       1.0  0.1277200472615263  0.5063036261622146  0.8671168869567578  1.0000
  C   C30       1.0  0.6277188973113114  0.9936979629581868  0.6328833775934085  1.0000
  C   C31       1.0  0.8722795414159992  0.4936959992625276  0.13288245485261288  1.0000
  C   C32       1.0  0.37227813577959523  0.006302658773250901  0.36711794927769853  1.0000
  S   S1        1.0  0.4074871494428223  0.1864837637226913  0.023108302997975692  1.0000
  S   S2        1.0  0.9074897642646889  0.3135168607192186  0.4768920960975933  1.0000
  S   S3        1.0  0.5925098836449649  0.8135168516338996  0.9768906208845393  1.0000
  S   S4        1.0  0.0925123800032495  0.6864827689548534  0.5231088477052593  1.0000
  O   O1        1.0  0.38207329165454246  0.38103040754200634  0.29975194775134634  1.0000
  O   O2        1.0  0.882075525700877  0.1189692382151506  0.20024884774569776  1.0000
  O   O3        1.0  0.6179275748157449  0.6189702078137386  0.7002469761327886  1.0000
  O   O4        1.0  0.11792406297769283  0.8810303893345406  0.7997512950598773  1.0000
  O   O5        1.0  0.5539224341184124  0.5558015106746907  0.3267424750552692  1.0000
  O   O6        1.0  0.0539235942106302  0.9441982675639693  0.17325906942424035  1.0000
  O   O7        1.0  0.44607843235254313  0.4442000988622397  0.6732576328954847  1.0000
  O   O8        1.0  0.9460772722627837  0.0558023541666159  0.8267422574484866  1.0000
  O   O9        1.0  0.28184688000150976  0.14072388341278944  0.08451438002132505  1.0000
  O   O10       1.0  0.7818479774909405  0.35927680087917935  0.4154875146555809  1.0000
  O   O11       1.0  0.7181514308817966  0.8592787203058806  0.9154869119949609  1.0000
  O   O12       1.0  0.21815161118903606  0.6407218367392248  0.5845130460757773  1.0000
  O   O13       1.0  0.5817080480407741  0.19957184959859825  0.07258955028963494  1.0000
  O   O14       1.0  0.08170884224778519  0.3004279290800795  0.42741099081391093  1.0000
  O   O15       1.0  0.41829026284191423  0.8004267816452499  0.9274086074525838  1.0000
  O   O16       1.0  0.91829074642974  0.6995716963446696  0.5725883509954669  1.0000
  O   O17       1.0  0.40261995608404527  0.10572205453530611  0.8932018235438333  1.0000
  O   O18       1.0  0.9026214671245116  0.3942784357372063  0.6067980648496912  1.0000
  O   O19       1.0  0.5973757992085355  0.894278558696634  0.10679629934194436  1.0000
  O   O20       1.0  0.09738195493729052  0.6057192076991739  0.39320131181667506  1.0000
  O   O21       1.0  0.09495354896478152  0.39314554180293027  0.7740394139664344  1.0000
  O   O22       1.0  0.5949533154436395  0.10685508674711032  0.7259610148459713  1.0000
  O   O23       1.0  0.9050447619185819  0.606854083622096  0.2259599278423963  1.0000
  O   O24       1.0  0.40504499544039857  0.8931455328591014  0.2740395110294783  1.0000
  O   O25       1.0  0.0830278343512987  0.6172751878455857  0.8767726919215162  1.0000
  O   O26       1.0  0.5830281304847986  0.8827254311209459  0.6232279527031892  1.0000
  O   O27       1.0  0.9169717543258642  0.3827254296353929  0.1232270329582832  1.0000
  O   O28       1.0  0.41697145819443904  0.11727519060992361  0.3767733741689979  1.0000
