data_image0
_chemical_formula_structural       Sm4H32C24S4N4O36
_chemical_formula_sum              "Sm4 H32 C24 S4 N4 O36"
_cell_length_a       6.925178525062479
_cell_length_b       8.788641195871415
_cell_length_c       18.673268787073063
_cell_angle_alpha    90.00002367149061
_cell_angle_beta     90.00031022487593
_cell_angle_gamma    99.84874031571877

_space_group_name_H-M_alt    "P 1"
_space_group_IT_number       1

loop_
  _space_group_symop_operation_xyz
  'x, y, z'

loop_
  _atom_site_type_symbol
  _atom_site_label
  _atom_site_symmetry_multiplicity
  _atom_site_fract_x
  _atom_site_fract_y
  _atom_site_fract_z
  _atom_site_occupancy
  Sm  Sm1       1.0  0.7715283744192548  0.6013092009942016  0.5485555654087407  1.0000
  Sm  Sm2       1.0  0.22847440471708322  0.8986923296145691  0.04855528528051421  1.0000
  Sm  Sm3       1.0  0.22847327687739488  0.39869235389466706  0.45144452686399467  1.0000
  Sm  Sm4       1.0  0.7715255478146545  0.1013080743782098  0.9514448069904167  1.0000
  H   H1        1.0  0.6675827241552952  0.649146958642348  0.7984795714663023  1.0000
  H   H2        1.0  0.3324187747356717  0.8508518547441072  0.2984789548730334  1.0000
  H   H3        1.0  0.33241748400088506  0.3508546001953405  0.20152052080499067  1.0000
  H   H4        1.0  0.6675794790311471  0.14914739835258226  0.7015211373960782  1.0000
  H   H5        1.0  0.03090279097785505  0.6510772799913697  0.6923946684552433  1.0000
  H   H6        1.0  0.9691015081561006  0.8489281423863277  0.19239532728950345  1.0000
  H   H7        1.0  0.9690971615579684  0.3489231240021978  0.3076059593405632  1.0000
  H   H8        1.0  0.030896745610718306  0.1510711107103546  0.8076047649796154  1.0000
  H   H9        1.0  0.09507310003849061  0.7313393262018907  0.8197425566176906  1.0000
  H   H10       1.0  0.904929490395773  0.7686630142928266  0.3197430713815167  1.0000
  H   H11       1.0  0.9049254093527778  0.26866108173970826  0.18025753565179065  1.0000
  H   H12       1.0  0.09506901899548843  0.23133739364877215  0.6802570208879717  1.0000
  H   H13       1.0  0.432172976685223  0.7259381168291769  0.8704437117219967  1.0000
  H   H14       1.0  0.5678305529063152  0.7740585946917449  0.3704430165133773  1.0000
  H   H15       1.0  0.5678267202220653  0.27406113231869256  0.12955638054856425  1.0000
  H   H16       1.0  0.4321677008604965  0.22594065840494443  0.6295570757557416  1.0000
  H   H17       1.0  0.46042594275908755  0.8211730530686553  0.5206667458142249  1.0000
  H   H18       1.0  0.5395730130175879  0.6788260936778843  0.020666511141634203  1.0000
  H   H19       1.0  0.5395720553832818  0.17882504518312461  0.47933334645452436  1.0000
  H   H20       1.0  0.46042693951414987  0.32117431031489463  0.9793335811292893  1.0000
  H   H21       1.0  0.6718972182608243  0.9166848577998225  0.5201849945113467  1.0000
  H   H22       1.0  0.32810342892160094  0.583315438424485  0.020184317664863706  1.0000
  H   H23       1.0  0.3281027342749995  0.08331554619374512  0.4798156332844601  1.0000
  H   H24       1.0  0.6718965236101296  0.4166849655682939  0.979815774606067  1.0000
  H   H25       1.0  0.9106329953747122  0.927933863801101  0.6165047394517346  1.0000
  H   H26       1.0  0.0893705656525228  0.5720667119227586  0.11650572415262422  1.0000
  H   H27       1.0  0.0893669571570257  0.07206654019167757  0.3834953528191961  1.0000
  H   H28       1.0  0.9106308300196775  0.4279336881212005  0.883494368119749  1.0000
  H   H29       1.0  0.08114413028500422  0.8716197116419766  0.5719530527696366  1.0000
  H   H30       1.0  0.9188575629778198  0.6283818917715536  0.07195463943395451  1.0000
  H   H31       1.0  0.9188555666140984  0.12837953750431552  0.4280459684511656  1.0000
  H   H32       1.0  0.08114264518245308  0.37161966706692334  0.9280459883622146  1.0000
  C   C1        1.0  0.5176895366631626  0.6220827387939851  0.7014953276388313  1.0000
  C   C2        1.0  0.4823142995648553  0.8779134676552616  0.20149501662825034  1.0000
  C   C3        1.0  0.4823142340451696  0.377915343663318  0.29850530016057775  1.0000
  C   C4        1.0  0.517684209826406  0.12208694028632999  0.7985050756412309  1.0000
  C   C5        1.0  0.3238205427504397  0.6155146628833918  0.6719454054897869  1.0000
  C   C6        1.0  0.6761853079255147  0.8844860720389108  0.17194548422853737  1.0000
  C   C7        1.0  0.6761811085462169  0.38448689200548364  0.3280546867829558  1.0000
  C   C8        1.0  0.32381387772878156  0.11551086741835803  0.8280540725164088  1.0000
  C   C9        1.0  0.17644338970593765  0.6556814275193972  0.7150625117792659  1.0000
  C   C10       1.0  0.8235585342667663  0.8443182912866052  0.21506180703453748  1.0000
  C   C11       1.0  0.8235551196853237  0.34431898042220155  0.2849375804902152  1.0000
  C   C12       1.0  0.1764414182649645  0.1556821127061738  0.7849382852363933  1.0000
  C   C13       1.0  0.21044782144066693  0.7010221820356294  0.7863398405121061  1.0000
  C   C14       1.0  0.7895561227498931  0.7989754328845109  0.2863395944090216  1.0000
  C   C15       1.0  0.789550943575044  0.298979380750879  0.21366025175774445  1.0000
  C   C16       1.0  0.21044136414357684  0.20102035567744994  0.7136604978589888  1.0000
  C   C17       1.0  0.39250420726921226  0.6974433887671837  0.8150104179966535  1.0000
  C   C18       1.0  0.6074980552777021  0.8025577829554182  0.3150098077730662  1.0000
  C   C19       1.0  0.6074960008828824  0.302558170069716  0.18498913874976355  1.0000
  C   C20       1.0  0.39250045411355927  0.19744262498618073  0.6849902844964151  1.0000
  C   C21       1.0  0.27611823713206013  0.5615760022496091  0.5979127867032761  1.0000
  C   C22       1.0  0.7238852956317102  0.9384256736055292  0.09791243590664321  1.0000
  C   C23       1.0  0.7238826472912477  0.43842208810453104  0.4020873055683652  1.0000
  C   C24       1.0  0.2761144012755778  0.0615735755423472  0.9020876563639179  1.0000
  S   S1        1.0  0.15455892739421986  0.8025955590620059  0.43571023530608954  1.0000
  S   S2        1.0  0.8454417805741484  0.6974036660598132  0.9357101465576535  1.0000
  S   S3        1.0  0.8454422126535377  0.1974036861370507  0.564289856965921  1.0000
  S   S4        1.0  0.1545581719534965  0.30259673793217706  0.064289410188394  1.0000
  N   N1        1.0  0.5360705962982023  0.6580658908000175  0.7735695008352155  1.0000
  N   N2        1.0  0.46393536291694903  0.8419351471258167  0.2735691460537596  1.0000
  N   N3        1.0  0.4639310549984473  0.34193566408885095  0.2264305914375201  1.0000
  N   N4        1.0  0.5360631464743121  0.158065260815782  0.7264309462157217  1.0000
  O   O1        1.0  0.6713027378642168  0.5987698745188015  0.6691829791732504  1.0000
  O   O2        1.0  0.32870239436434195  0.9012343207576523  0.16918290037229167  1.0000
  O   O3        1.0  0.3287006121932592  0.40123283126537507  0.33081657757642813  1.0000
  O   O4        1.0  0.6712963706472906  0.0987672420280674  0.830816656372676  1.0000
  O   O5        1.0  0.40633119676738255  0.5099897444632974  0.5600063191840265  1.0000
  O   O6        1.0  0.5936695471925192  0.990008359255917  0.06000571741079602  1.0000
  O   O7        1.0  0.5936699432803678  0.4900095007357593  0.4399937730879771  1.0000
  O   O8        1.0  0.4063318484755953  0.009992040787260204  0.9399938393366939  1.0000
  O   O9        1.0  0.10620575558019854  0.5614480947935406  0.5717677563557828  1.0000
  O   O10       1.0  0.8938014517908572  0.938552337434544  0.07176935263724003  1.0000
  O   O11       1.0  0.8937956400838232  0.4385523052488479  0.4282312648668309  1.0000
  O   O12       1.0  0.1061985007408737  0.0614480665582349  0.9282307396336907  1.0000
  O   O13       1.0  0.5987016100043974  0.8115099094476081  0.5303272167073417  1.0000
  O   O14       1.0  0.40129893641491066  0.688489261778159  0.030326706819813906  1.0000
  O   O15       1.0  0.4012980869110621  0.18848933970183882  0.4696739466129786  1.0000
  O   O16       1.0  0.5987010161168201  0.31151114221462006  0.9696733854511098  1.0000
  O   O17       1.0  0.9676174539796775  0.8353470815656153  0.6035199158842917  1.0000
  O   O18       1.0  0.03238905068479887  0.6646546028933573  0.1035202687359913  1.0000
  O   O19       1.0  0.032383686063980115  0.16465216363264554  0.3964796408628359  1.0000
  O   O20       1.0  0.9676126006118507  0.33534695199551134  0.8964798235367442  1.0000
  O   O21       1.0  0.9427120230287187  0.7564393228268288  0.4513895823860567  1.0000
  O   O22       1.0  0.057286549317559825  0.7435622660238437  0.951390065316133  1.0000
  O   O23       1.0  0.05728648636254262  0.24356108511476296  0.5486105098834317  1.0000
  O   O24       1.0  0.9427134032100851  0.25643813796814646  0.04860949142991441  1.0000
  O   O25       1.0  0.25069604537838336  0.8907432965653044  0.4993173075831336  1.0000
  O   O26       1.0  0.7493030031386921  0.6092572784791204  0.9993170091876635  1.0000
  O   O27       1.0  0.7493027196373346  0.10925826622119672  0.5006827846867168  1.0000
  O   O28       1.0  0.25069669376450326  0.3907419706679677  0.0006825475580143001  1.0000
  O   O29       1.0  0.2508893440657403  0.6663498043254635  0.4227848902105934  1.0000
  O   O30       1.0  0.7491094677812952  0.8336482318638261  0.9227846347119311  1.0000
  O   O31       1.0  0.749110352841548  0.33364944482240594  0.5772152020599677  1.0000
  O   O32       1.0  0.25089048474634973  0.16635217212816403  0.07721492203411633  1.0000
  O   O33       1.0  0.18200343573984418  0.9029625947528858  0.3713107282087052  1.0000
  O   O34       1.0  0.8179965445501337  0.5970375957022042  0.8713111006300664  1.0000
  O   O35       1.0  0.8179950736473315  0.09703781318792441  0.6286888285358929  1.0000
  O   O36       1.0  0.1820034079775112  0.4029628082897859  0.1286884561159809  1.0000
