data_image0
_chemical_formula_structural       Zn2H24C28S4N12O8
_chemical_formula_sum              "Zn2 H24 C28 S4 N12 O8"
_cell_length_a       8.954474180890259
_cell_length_b       11.861923576682338
_cell_length_c       11.675925534177617
_cell_angle_alpha    89.99990315574625
_cell_angle_beta     89.99942757962386
_cell_angle_gamma    106.12948735207213

_space_group_name_H-M_alt    "P 1"
_space_group_IT_number       1

loop_
  _space_group_symop_operation_xyz
  'x, y, z'

loop_
  _atom_site_type_symbol
  _atom_site_label
  _atom_site_symmetry_multiplicity
  _atom_site_fract_x
  _atom_site_fract_y
  _atom_site_fract_z
  _atom_site_occupancy
  Zn  Zn1       1.0  2.1300804320000003e-06  3.1433605301000007e-06  0.9999943872436321  1.0000
  Zn  Zn2       1.0  0.4999962958414769  0.5000000555012251  0.5000000050673137  1.0000
  H   H1        1.0  0.7710992500165404  0.8165434963357471  0.9283647475244976  1.0000
  H   H2        1.0  0.7289031438135608  0.6834575037915299  0.4283686807381457  1.0000
  H   H3        1.0  0.22889766889230148  0.18346717644799074  0.0716326931954541  1.0000
  H   H4        1.0  0.2710998315486677  0.31653262005059446  0.5716364681436518  1.0000
  H   H5        1.0  0.9341899397254351  0.8142743139823311  0.8680879591573644  1.0000
  H   H6        1.0  0.5658132784712391  0.685730440126477  0.3680914285734289  1.0000
  H   H7        1.0  0.06580358366505829  0.18572150309807262  0.1319137639034835  1.0000
  H   H8        1.0  0.43419508930334416  0.31427375135044144  0.6319128638130493  1.0000
  H   H9        1.0  0.8790196556834928  0.6074008000353219  0.2412164071927947  1.0000
  H   H10       1.0  0.6209832398625323  0.8925862961847884  0.7412332020128716  1.0000
  H   H11       1.0  0.12096734442540938  0.3925956283218639  0.7587750383347754  1.0000
  H   H12       1.0  0.37902845558362236  0.10740676643822412  0.2587830808540303  1.0000
  H   H13       1.0  0.8159661374841674  0.7637254443339286  0.12531564594196  1.0000
  H   H14       1.0  0.6840359413133043  0.7362612490968132  0.6253347802286343  1.0000
  H   H15       1.0  0.18402485649502862  0.23626940791318424  0.8746715172557843  1.0000
  H   H16       1.0  0.3159694971004186  0.2637333012507881  0.374678076808479  1.0000
  H   H17       1.0  0.2752860217238648  0.9663807312100944  0.1277756069640006  1.0000
  H   H18       1.0  0.22471101229311322  0.5336195006518523  0.6277819116619838  1.0000
  H   H19       1.0  0.7247083670586675  0.0336142536349939  0.8722149820732099  1.0000
  H   H20       1.0  0.775290299518062  0.46638354914602353  0.3722232372156853  1.0000
  H   H21       1.0  0.3578762691281483  0.8206879918306812  0.24623025764695683  1.0000
  H   H22       1.0  0.14211841535943384  0.679313374290679  0.7462352467348197  1.0000
  H   H23       1.0  0.6421119290070719  0.17930501907511606  0.7537603314156345  1.0000
  H   H24       1.0  0.8578865575675109  0.3206906845737336  0.2537716150542693  1.0000
  C   C1        1.0  0.12540351274072495  0.70064305328377  0.25279860770339724  1.0000
  C   C2        1.0  0.37459460231194447  0.7993514902725778  0.752805897904814  1.0000
  C   C3        1.0  0.874583753661632  0.2993542515357603  0.7471936942855848  1.0000
  C   C4        1.0  0.6254116350201073  0.20064568947449155  0.24720438973763245  1.0000
  C   C5        1.0  0.9709214954302751  0.685383679576212  0.2181771319216494  1.0000
  C   C6        1.0  0.5290814078940115  0.8146061135730348  0.7181921902473078  1.0000
  C   C7        1.0  0.029071429026167623  0.3146138462558526  0.7818143135822739  1.0000
  C   C8        1.0  0.4709251621419241  0.1853884809808122  0.2818189538591156  1.0000
  C   C9        1.0  0.9352964781783225  0.7726190250609761  0.1531562280918024  1.0000
  C   C10       1.0  0.5647036585030989  0.7273735360100345  0.6531694418218592  1.0000
  C   C11       1.0  0.06469817692930492  0.22737683625683053  0.846830935091063  1.0000
  C   C12       1.0  0.43529718710628623  0.2726242991992934  0.346837419988141  1.0000
  C   C13       1.0  0.19060950062824122  0.8863616216941138  0.1559356493338697  1.0000
  C   C14       1.0  0.30938744994145395  0.6136358884064351  0.655942886252582  1.0000
  C   C15       1.0  0.8093864859593012  0.11363862193953622  0.8440540832297714  1.0000
  C   C16       1.0  0.6906116650800342  0.38636361133792724  0.3440596932469475  1.0000
  C   C17       1.0  0.23663544717396687  0.8050649539707706  0.22202965671291253  1.0000
  C   C18       1.0  0.26336332247200284  0.6949340769255841  0.7220371148647331  1.0000
  C   C19       1.0  0.7633615375252204  0.1949275340831917  0.777962645242667  1.0000
  C   C20       1.0  0.7366391209360615  0.305069017070231  0.2779697469348577  1.0000
  C   C21       1.0  0.17268117752413298  0.6122450713778989  0.31730901568348463  1.0000
  C   C22       1.0  0.3273223747569816  0.8877554713909035  0.8173122428418793  1.0000
  C   C23       1.0  0.8273150752809215  0.3877560486931628  0.6826918508994098  1.0000
  C   C24       1.0  0.6726894542187195  0.11224539102427399  0.182697188312936  1.0000
  C   C25       1.0  0.15194704766648928  0.44460971191126936  0.4046641910607109  1.0000
  C   C26       1.0  0.3480533197657819  0.05539570224107139  0.9046540965058938  1.0000
  C   C27       1.0  0.8480494714320129  0.5553922846221299  0.5953375319836027  1.0000
  C   C28       1.0  0.6519547153618817  0.9446110744477705  0.09534163124823179  1.0000
  S   S1        1.0  0.067447932687287  0.31066344472886  0.4566091148647047  1.0000
  S   S2        1.0  0.4325529986624018  0.1893460998486063  0.9565904450176107  1.0000
  S   S3        1.0  0.9325576393129325  0.6893389054295866  0.5433891822919392  1.0000
  S   S4        1.0  0.5674515088980173  0.8106674675720813  0.0433941487235359  1.0000
  N   N1        1.0  0.043098835843011274  0.8710202285649943  0.12068934378280723  1.0000
  N   N2        1.0  0.45690349470481095  0.6289750440732718  0.6207022742720625  1.0000
  N   N3        1.0  0.9568953530565028  0.12897041816219706  0.8793003887955493  1.0000
  N   N4        1.0  0.5431004130166954  0.37102550893141023  0.3793054439871284  1.0000
  N   N5        1.0  0.3109264345030596  0.6178260268136812  0.35720852907678596  1.0000
  N   N6        1.0  0.1890738658185852  0.8821802809023467  0.8572094014449904  1.0000
  N   N7        1.0  0.6890654917341551  0.3821792545627646  0.6427949069088044  1.0000
  N   N8        1.0  0.8109325050240273  0.11782469863064901  0.1427966038748281  1.0000
  N   N9        1.0  0.2988961426765542  0.5127720277749434  0.4116223342936394  1.0000
  N   N10       1.0  0.20110668199210827  0.9872376103311636  0.911615235078628  1.0000
  N   N11       1.0  0.7011031058111925  0.48723527174080067  0.5883819581253391  1.0000
  N   N12       1.0  0.7989016194163484  0.012770042815859008  0.08838306206321532  1.0000
  O   O1        1.0  0.06750633791260438  0.5068291062656343  0.34221887978689136  1.0000
  O   O2        1.0  0.4324953819999705  0.9931738567097881  0.8422125628104526  1.0000
  O   O3        1.0  0.9324871190674529  0.4931701724703431  0.6577828432713987  1.0000
  O   O4        1.0  0.5675169132344706  0.0068322203126243  0.157787447243642  1.0000
  O   O5        1.0  0.8641568363631363  0.8624034071786613  0.8854452712429718  1.0000
  O   O6        1.0  0.6358444611078937  0.637599465618287  0.38544999395070795  1.0000
  O   O7        1.0  0.135844209217872  0.13759876617764633  0.11455045654174262  1.0000
  O   O8        1.0  0.3641572498429113  0.3623975373391063  0.6145525855408849  1.0000
