data_image0
_chemical_formula_structural       Mn2B2H24C26N16O4
_chemical_formula_sum              "Mn2 B2 H24 C26 N16 O4"
_cell_length_a       8.49236471383852
_cell_length_b       9.778403416925617
_cell_length_c       10.511457168247926
_cell_angle_alpha    98.70218552319726
_cell_angle_beta     97.44326896912962
_cell_angle_gamma    106.03034291925519

_space_group_name_H-M_alt    "P 1"
_space_group_IT_number       1

loop_
  _space_group_symop_operation_xyz
  'x, y, z'

loop_
  _atom_site_type_symbol
  _atom_site_label
  _atom_site_symmetry_multiplicity
  _atom_site_fract_x
  _atom_site_fract_y
  _atom_site_fract_z
  _atom_site_occupancy
  Mn  Mn1       1.0  0.2141256112405543  0.7211138428079735  0.17797418417642777  1.0000
  Mn  Mn2       1.0  0.7849504222113737  0.2634694925790484  0.8207931317596506  1.0000
  B   B1        1.0  0.8541841097297153  0.11874819261195312  0.3109580623283676  1.0000
  B   B2        1.0  0.14330037707728133  0.8907031925621849  0.6911387205495247  1.0000
  H   H1        1.0  0.5431714478659658  0.9511973529610885  0.14175560990942424  1.0000
  H   H2        1.0  0.4632312240628096  0.024781456490799793  0.8554441074043527  1.0000
  H   H3        1.0  0.8152716576105803  0.9230394092905527  0.497926270782749  1.0000
  H   H4        1.0  0.19865478667007613  0.10855781312547923  0.5213775609115674  1.0000
  H   H5        1.0  0.9033703567176659  0.10472640901916462  0.043219079395768724  1.0000
  H   H6        1.0  0.126212601884319  0.9073965896813193  0.9636079513565365  1.0000
  H   H7        1.0  0.9371466352979496  0.8504934510158576  0.28110634652529143  1.0000
  H   H8        1.0  0.06347554627867423  0.15966746178803962  0.7243369862379083  1.0000
  H   H9        1.0  0.5218544780474874  0.6948870418703523  0.42972735387773753  1.0000
  H   H10       1.0  0.5130710972304015  0.3077916545725969  0.5888092802103417  1.0000
  H   H11       1.0  0.3678624209262296  0.11102241234960532  0.17964719265127377  1.0000
  H   H12       1.0  0.6288191450393299  0.8970506659071444  0.8208072232261685  1.0000
  H   H13       1.0  0.6348761320965864  0.29987327140634074  0.2873975807956414  1.0000
  H   H14       1.0  0.3367167203535858  0.6872614171017165  0.687336751384436  1.0000
  H   H15       1.0  0.5697875042485238  0.3534322804038865  0.036296467747980926  1.0000
  H   H16       1.0  0.436345792045671  0.638797017638936  0.9354509681985448  1.0000
  H   H17       1.0  0.16644146530884296  0.2808888490262121  0.23914904074862878  1.0000
  H   H18       1.0  0.8361973883430451  0.7312442039265222  0.7712237832811016  1.0000
  H   H19       1.0  0.6665892783774581  0.12728031608227752  0.5180968038643102  1.0000
  H   H20       1.0  0.33122676946928925  0.8576418932758118  0.48834652372284654  1.0000
  H   H21       1.0  0.13649048444155204  0.36902536255502133  0.4564550190553832  1.0000
  H   H22       1.0  0.842834994477393  0.6616952196293583  0.5450508362257979  1.0000
  H   H23       1.0  0.0980644554779957  0.4628453431199517  0.7091507411949111  1.0000
  H   H24       1.0  0.8881057217107866  0.5311486866988772  0.3047784072499128  1.0000
  C   C1        1.0  0.5760590368222935  0.9120206721291028  0.2293122343720385  1.0000
  C   C2        1.0  0.43640426275717914  0.07402371746148619  0.7732492064220441  1.0000
  C   C3        1.0  0.9214179849238064  0.5297347994225844  0.9843740820312024  1.0000
  C   C4        1.0  0.051461673366105784  0.44921402629131546  0.9973045683746096  1.0000
  C   C5        1.0  0.7157862635494894  0.8947444381773693  0.4141576422337466  1.0000
  C   C6        1.0  0.2997389311970339  0.12026296720093652  0.6004256867010229  1.0000
  C   C7        1.0  0.8191772149159249  0.1631381157790202  0.07372538424883152  1.0000
  C   C8        1.0  0.1989967156219451  0.8419344732638765  0.9236096564411016  1.0000
  C   C9        1.0  0.029672701819926334  0.9445001335995403  0.26487082676277424  1.0000
  C   C10       1.0  0.9702759929411825  0.06572646774750271  0.7394392194163758  1.0000
  C   C11       1.0  0.5697426114816722  0.7824454817192007  0.37951495293233256  1.0000
  C   C12       1.0  0.4564707310270819  0.21869975387058102  0.6343111734128188  1.0000
  C   C13       1.0  0.2495580867354121  0.0816353423817446  0.21289262750032387  1.0000
  C   C14       1.0  0.7485317657537963  0.9279253974885722  0.7903392051320567  1.0000
  C   C15       1.0  0.6792653357991014  0.26673858254243743  0.19919529239066247  1.0000
  C   C16       1.0  0.3087678455827217  0.7251691225394413  0.7815551474931299  1.0000
  C   C17       1.0  0.6464100036452081  0.29150396209224994  0.07447746464317362  1.0000
  C   C18       1.0  0.3585935679592255  0.7034477533757696  0.9047026276374625  1.0000
  C   C19       1.0  0.1518313728994798  0.16824697789670043  0.24476708675032202  1.0000
  C   C20       1.0  0.8493428240928438  0.8429834502050184  0.7630385263839801  1.0000
  C   C21       1.0  0.7871194168879897  0.20815062250665053  0.535735313090463  1.0000
  C   C22       1.0  0.20596849475958826  0.7835986773318241  0.4710059211660465  1.0000
  C   C23       1.0  0.033321287193587124  0.3330695685688667  0.5064319473830352  1.0000
  C   C24       1.0  0.9504394933582249  0.682342054320536  0.49764557730213016  1.0000
  C   C25       1.0  0.012351042059115991  0.3805478997326617  0.631140198081859  1.0000
  C   C26       1.0  0.9746988904551371  0.6173416423984222  0.37952490423001717  1.0000
  N   N1        1.0  0.48217048012605096  0.7945826532719381  0.26338948071502705  1.0000
  N   N2        1.0  0.5435707970157112  0.1871732333860764  0.7419856032608082  1.0000
  N   N3        1.0  0.7899887829354952  0.18583311885855383  0.19856515614096543  1.0000
  N   N4        1.0  0.20596004024358197  0.8128621051902557  0.7944270381333711  1.0000
  N   N5        1.0  0.718719163871384  0.977772071379398  0.3178851148052431  1.0000
  N   N6        1.0  0.2872005292568645  0.0277553503739298  0.6888746917127551  1.0000
  N   N7        1.0  0.8899421955119778  0.22203060258533472  0.445777230746444  1.0000
  N   N8        1.0  0.09803809063106436  0.7896852973647271  0.5550287686900718  1.0000
  N   N9        1.0  0.011237027464360895  0.0798122856496803  0.2787651483470982  1.0000
  N   N10       1.0  0.9904498806625739  0.9317660205267727  0.7298485810520604  1.0000
  N   N11       1.0  0.17182945177758308  0.9414545810506424  0.22594528368753694  1.0000
  N   N12       1.0  0.8252120927349368  0.067848435505141  0.7751226170432518  1.0000
  N   N13       1.0  0.8577078012124916  0.2997423145758376  0.6496548697550681  1.0000
  N   N14       1.0  0.13610460924877538  0.6815004842628339  0.3637321525266445  1.0000
  N   N15       1.0  0.7358719233213266  0.22639222310202456  0.9959826644879473  1.0000
  N   N16       1.0  0.28864104540488705  0.7774660472112062  0.9930677679549691  1.0000
  O   O1        1.0  0.9473337034992612  0.650638832390385  0.05999005765320222  1.0000
  O   O2        1.0  0.024455259356408  0.3373747502700155  0.9067855106159685  1.0000
  O   O3        1.0  0.7952853275686138  0.4661587035179692  0.8914552707209611  1.0000
  O   O4        1.0  0.17648816988477015  0.4972204617621044  0.08960423265522618  1.0000
