data_image0
_chemical_formula_structural       Zn2H36C40N4O10
_chemical_formula_sum              "Zn2 H36 C40 N4 O10"
_cell_length_a       8.17860826470119
_cell_length_b       11.36514783868228
_cell_length_c       11.291035218531963
_cell_angle_alpha    66.6851158403316
_cell_angle_beta     85.8976366099415
_cell_angle_gamma    68.0523004929229

_space_group_name_H-M_alt    "P 1"
_space_group_IT_number       1

loop_
  _space_group_symop_operation_xyz
  'x, y, z'

loop_
  _atom_site_type_symbol
  _atom_site_label
  _atom_site_symmetry_multiplicity
  _atom_site_fract_x
  _atom_site_fract_y
  _atom_site_fract_z
  _atom_site_occupancy
  Zn  Zn1       1.0  0.5992019596842298  0.8156884196451273  0.7474093152943199  1.0000
  Zn  Zn2       1.0  0.4007998209575804  0.1843107703656983  0.2525915378430242  1.0000
  H   H1        1.0  0.8607506054380425  0.4532798433334833  0.9699846303496573  1.0000
  H   H2        1.0  0.1392551183017475  0.5467214310454408  0.030012584430203038  1.0000
  H   H3        1.0  0.8251271433817494  0.29547580715279764  0.029536634338967464  1.0000
  H   H4        1.0  0.1748778242858862  0.7045244070990222  0.9704636812437217  1.0000
  H   H5        1.0  0.07560034381745592  0.49351943729009656  0.8032441809432459  1.0000
  H   H6        1.0  0.9243990377037933  0.5064798273753437  0.19675054956184115  1.0000
  H   H7        1.0  0.19065428499925482  0.4507763199467475  0.6091745000865532  1.0000
  H   H8        1.0  0.809344135302446  0.5492198578537922  0.39082058122184565  1.0000
  H   H9        1.0  0.18248232623353292  0.24868463067851826  0.5764677046877154  1.0000
  H   H10       1.0  0.817513615364888  0.7513115248553602  0.42353015244864195  1.0000
  H   H11       1.0  0.9581022753866224  0.1251586573271126  0.9398336843135695  1.0000
  H   H12       1.0  0.04189778262407638  0.8748415705441559  0.06016684384891166  1.0000
  H   H13       1.0  0.9964513823848337  0.0815809203804747  0.6453896489585205  1.0000
  H   H14       1.0  0.003546013031147841  0.9184120930181406  0.35461290192135686  1.0000
  H   H15       1.0  0.005723711534294126  0.9912739315481363  0.8157378024426764  1.0000
  H   H16       1.0  0.9942758645571956  0.008722155618393398  0.1842652343349656  1.0000
  H   H17       1.0  0.7468989671607957  0.638257658368076  0.6000237817398715  1.0000
  H   H18       1.0  0.25310110676644376  0.361742588887445  0.39997496673056804  1.0000
  H   H19       1.0  0.755860245055139  0.4177093897192209  0.5961656054496843  1.0000
  H   H20       1.0  0.24413663388801887  0.5822898236031762  0.403834570421438  1.0000
  H   H21       1.0  0.4021642645504501  0.39537415803095394  0.9008972375001463  1.0000
  H   H22       1.0  0.5978359986076358  0.6046280965781036  0.0991060406618517  1.0000
  H   H23       1.0  0.4024283042850314  0.6213133597267344  0.8856754787824673  1.0000
  H   H24       1.0  0.5975744375763343  0.3786889171489847  0.1143250235515724  1.0000
  H   H25       1.0  0.5872866779883594  0.10050271861835819  0.5455270128895151  1.0000
  H   H26       1.0  0.4127072111180969  0.8994974875087034  0.4544773403818002  1.0000
  H   H27       1.0  0.577768813488113  0.3232747167207179  0.5400697046364868  1.0000
  H   H28       1.0  0.42222336890377227  0.6767265466510467  0.4599325439679236  1.0000
  H   H29       1.0  0.6076987103277464  0.14739696057938537  0.95890542377596  1.0000
  H   H30       1.0  0.39230795609618246  0.8526021867356022  0.04109788631965486  1.0000
  H   H31       1.0  0.6239765073924702  0.9287530881662817  0.9464009756136922  1.0000
  H   H32       1.0  0.3760301590314584  0.07124605914870591  0.05360233448191561  1.0000
  H   H33       1.0  0.7450243044923043  0.9088138929740238  0.5143683227297589  1.0000
  H   H34       1.0  0.2549738018650842  0.09118531694350912  0.48563179999640493  1.0000
  H   H35       1.0  0.8758685516074891  0.8049727108848472  0.6526794338539903  1.0000
  H   H36       1.0  0.12413075294991668  0.19503165140389458  0.3473195286843024  1.0000
  C   C1        1.0  0.05183593534087553  0.2873658151445752  0.11848411188305623  1.0000
  C   C2        1.0  0.9481717559687726  0.7126364965723369  0.8815117286410729  1.0000
  C   C3        1.0  0.9263590834417598  0.34052004843914574  0.9987011391097981  1.0000
  C   C4        1.0  0.07364836292914846  0.6594801880793355  0.0012964006449253786  1.0000
  C   C5        1.0  0.009982671787526041  0.31132477079552245  0.8853391909040486  1.0000
  C   C6        1.0  0.9900186613870338  0.6886755118236464  0.11465594503735599  1.0000
  C   C7        1.0  0.07737737208316288  0.4020648395767664  0.7920247377946269  1.0000
  C   C8        1.0  0.9226202947652457  0.5979354726412467  0.2079687778895761  1.0000
  C   C9        1.0  0.1405532049995415  0.3785120233780503  0.6821824631379486  1.0000
  C   C10       1.0  0.8594427312594775  0.621489317008276  0.31781161741742653  1.0000
  C   C11       1.0  0.1372449932955817  0.26493970916341425  0.6639280940836444  1.0000
  C   C12       1.0  0.8627506980246981  0.7350595560244882  0.33606768570231105  1.0000
  C   C13       1.0  0.07441873226672871  0.170789840452052  0.7577315308449644  1.0000
  C   C14       1.0  0.9255764399618583  0.8292104301150403  0.24226654035925343  1.0000
  C   C15       1.0  0.012621804437834824  0.19512189574363956  0.8679658921005428  1.0000
  C   C16       1.0  0.987374595204983  0.8048783714185959  0.13203212595872335  1.0000
  C   C17       1.0  0.07069007243957509  0.0472422166829318  0.7380793297285565  1.0000
  C   C18       1.0  0.929308787371106  0.9527528588171348  0.2619223586218029  1.0000
  C   C19       1.0  0.25794811067869033  0.9490789915595311  0.7375474860518243  1.0000
  C   C20       1.0  0.7420517103515394  0.05091917080542879  0.26245385149522354  1.0000
  C   C21       1.0  0.6697004271690191  0.5820917605764463  0.6621556511102185  1.0000
  C   C22       1.0  0.33029890660260003  0.4179074459362297  0.3378444184710006  1.0000
  C   C23       1.0  0.6720840340227809  0.4603961314294338  0.6601573259364032  1.0000
  C   C24       1.0  0.32791257076741687  0.5396061624705909  0.33984344212237266  1.0000
  C   C25       1.0  0.5783688095871895  0.3880899945454033  0.7476083351667385  1.0000
  C   C26       1.0  0.4216300050927374  0.6119102173464697  0.25239402583273585  1.0000
  C   C27       1.0  0.47997339921263205  0.4457912916522915  0.8318279116707359  1.0000
  C   C28       1.0  0.5200256444894934  0.5542109760537526  0.16817452979018566  1.0000
  C   C29       1.0  0.48010815796178014  0.5708571716690185  0.8246784446629363  1.0000
  C   C30       1.0  0.5198926163297273  0.42914406786871234  0.17532343192682742  1.0000
  C   C31       1.0  0.5923391048837559  0.11438695113195507  0.6351477251767221  1.0000
  C   C32       1.0  0.40766018909651097  0.8856122069200721  0.3648567936346015  1.0000
  C   C33       1.0  0.5873924471659961  0.23869500742258506  0.6327746007185269  1.0000
  C   C34       1.0  0.4126051480579706  0.7613052175662816  0.36722692357987824  1.0000
  C   C35       1.0  0.5874307141892032  0.2556241548785891  0.74913912101556  1.0000
  C   C36       1.0  0.41257104257779537  0.7443750060558472  0.2508644016598469  1.0000
  C   C37       1.0  0.5995491509374274  0.14258849605784013  0.864892436644304  1.0000
  C   C38       1.0  0.40045530559677195  0.8574127332653063  0.13510928051061216  1.0000
  C   C39       1.0  0.6090830269534068  0.0203923060844318  0.8586570492631368  1.0000
  C   C40       1.0  0.3909228833983535  0.9796057811034514  0.1413493616352997  1.0000
  N   N1        1.0  0.5746901820459058  0.6376163131372863  0.742540763095477  1.0000
  N   N2        1.0  0.4253111033790233  0.36238391132911824  0.25745971192206  1.0000
  N   N3        1.0  0.6030017810192375  0.0064145098717460994  0.7463536597532823  1.0000
  N   N4        1.0  0.3969990012305475  0.9935867393581147  0.2536473269904606  1.0000
  O   O1        1.0  0.992452112567804  0.24445033041986608  0.22724676077068312  1.0000
  O   O2        1.0  0.007547902931008863  0.7555602283877859  0.7727497736139032  1.0000
  O   O3        1.0  0.2059897663000428  0.29354012699807436  0.09997527378737918  1.0000
  O   O4        1.0  0.7940179621820961  0.7064570386349018  0.9000207839336556  1.0000
  O   O5        1.0  0.32538633197449945  0.9601205820130757  0.6294851759794472  1.0000
  O   O6        1.0  0.6746124906636979  0.0398796395709269  0.3705162951740064  1.0000
  O   O7        1.0  0.3491020510733805  0.8628834652262611  0.8446061460385582  1.0000
  O   O8        1.0  0.6508977619985785  0.1371146874465765  0.1553960813545103  1.0000
  O   O9        1.0  0.7683323471406143  0.8245555756435149  0.5967482248357856  1.0000
  O   O10       1.0  0.23166844306743437  0.17544568327846827  0.4032518720619365  1.0000
