data_image0
_chemical_formula_structural       CuH54C50O16
_chemical_formula_sum              "Cu1 H54 C50 O16"
_cell_length_a       8.447003931997719
_cell_length_b       10.047219556618767
_cell_length_c       14.765226881816432
_cell_angle_alpha    103.58199352014843
_cell_angle_beta     90.66492618332006
_cell_angle_gamma    107.29292027029979

_space_group_name_H-M_alt    "P 1"
_space_group_IT_number       1

loop_
  _space_group_symop_operation_xyz
  'x, y, z'

loop_
  _atom_site_type_symbol
  _atom_site_label
  _atom_site_symmetry_multiplicity
  _atom_site_fract_x
  _atom_site_fract_y
  _atom_site_fract_z
  _atom_site_occupancy
  Cu  Cu1       1.0  3.5058108878507757e-06  0.49999235117653756  0.4999964174084753  1.0000
  H   H1        1.0  0.5907364872771268  0.31668604495353503  0.6270124344987096  1.0000
  H   H2        1.0  0.4092759716039539  0.6833137868228577  0.37299090625413817  1.0000
  H   H3        1.0  0.43142852756977856  0.37801443410801044  0.588991245537038  1.0000
  H   H4        1.0  0.568579963552935  0.6219811623893536  0.41101344815697877  1.0000
  H   H5        1.0  0.393120692706809  0.20575205323507365  0.434552029250952  1.0000
  H   H6        1.0  0.6068819461067676  0.7942500633344951  0.5654522165950838  1.0000
  H   H7        1.0  0.5274897767519705  0.12162888168429484  0.473767059059604  1.0000
  H   H8        1.0  0.472513259099415  0.8783710253714289  0.5262348290219664  1.0000
  H   H9        1.0  0.5327868753956083  0.3137255722003261  0.3228598868475531  1.0000
  H   H10       1.0  0.46720328329223554  0.6862906592746613  0.677142937626428  1.0000
  H   H11       1.0  0.7251507096767683  0.5911556173795277  0.2640240618895576  1.0000
  H   H12       1.0  0.2748535153751277  0.40884424739175534  0.7359764789446288  1.0000
  H   H13       1.0  0.6433757606222131  0.40993266148633023  0.2004415807244158  1.0000
  H   H14       1.0  0.356625749373805  0.5900693220368823  0.799555858602105  1.0000
  H   H15       1.0  0.017181319001139214  0.5756691139338131  0.22931778837766362  1.0000
  H   H16       1.0  0.9828201859629646  0.42433288420030385  0.7706803304294355  1.0000
  H   H17       1.0  0.9190470791566839  0.4105402156865099  0.1460900431714762  1.0000
  H   H18       1.0  0.08095600354142361  0.5894628456942145  0.8539082528676404  1.0000
  H   H19       1.0  0.13695710551071733  0.2235435099331228  0.5682593440842397  1.0000
  H   H20       1.0  0.8630545929586333  0.7764573527715658  0.43174143255079406  1.0000
  H   H21       1.0  0.3078013177300393  0.9097140148096376  0.7382542590482192  1.0000
  H   H22       1.0  0.6922020733443334  0.09028051379633693  0.261748183830754  1.0000
  H   H23       1.0  0.5246887501293358  0.09948353565855683  0.6848312146944339  1.0000
  H   H24       1.0  0.47531935401939757  0.9005142411308497  0.3151744778028985  1.0000
  H   H25       1.0  0.7191018751574846  0.41117226311444466  0.014927223806758124  1.0000
  H   H26       1.0  0.2808941075609184  0.5888309496966289  0.9850743993526337  1.0000
  H   H27       1.0  0.9686157268836979  0.9435735965371849  0.09218724392210481  1.0000
  H   H28       1.0  0.03136529390405941  0.05642766423978433  0.9078159460773139  1.0000
  H   H29       1.0  0.03342476470712095  0.8033433014519604  0.1988897921558532  1.0000
  H   H30       1.0  0.9665740050734472  0.19666087387768272  0.8011079430658797  1.0000
  H   H31       1.0  0.701816244446569  0.09876995387337223  0.5869137379435472  1.0000
  H   H32       1.0  0.29819508214454526  0.90123304529066  0.41308599905308097  1.0000
  H   H33       1.0  0.8729465401180577  0.11938460142513921  0.5155841132049092  1.0000
  H   H34       1.0  0.12706051537032437  0.8806226806237165  0.4844121504124531  1.0000
  H   H35       1.0  0.8917223547838162  0.2438808893141839  0.6265750232657297  1.0000
  H   H36       1.0  0.10828973065951436  0.7561177930984545  0.37342475456598834  1.0000
  H   H37       1.0  0.6749073455402056  0.569981195173142  0.6568519426552228  1.0000
  H   H38       1.0  0.3250926033770583  0.4300229670938621  0.343145804280276  1.0000
  H   H39       1.0  0.7444321857719843  0.6935210790223538  0.7708654085421288  1.0000
  H   H40       1.0  0.2555728666660144  0.30648085070203734  0.22913138644511125  1.0000
  H   H41       1.0  0.8519807584967438  0.570719658318268  0.7222552088602187  1.0000
  H   H42       1.0  0.14801160162245716  0.4292739699858289  0.27774968099890884  1.0000
  H   H43       1.0  0.5139126754757868  0.3652281345741884  0.7910363181326333  1.0000
  H   H44       1.0  0.4860812991603183  0.6347697405233178  0.2089665158772149  1.0000
  H   H45       1.0  0.5027328064435892  0.3430557206650491  0.90780230563189  1.0000
  H   H46       1.0  0.49726194214046887  0.6569377938483644  0.09219853077132004  1.0000
  H   H47       1.0  0.6906048324657234  0.3484325584259765  0.850935229250382  1.0000
  H   H48       1.0  0.3093931331754122  0.6515760651531654  0.14906858046143875  1.0000
  H   H49       1.0  0.49687782853344936  0.9366593720661032  0.8416829965806585  1.0000
  H   H50       1.0  0.5031222140772514  0.06335109885090161  0.15830756626994003  1.0000
  H   H51       1.0  0.7030334729492863  0.9387478909394888  0.8085627071718164  1.0000
  H   H52       1.0  0.29696990650175786  0.06124338106518932  0.19143857138558937  1.0000
  H   H53       1.0  0.6749762204198008  0.06824453755653792  0.907066004542685  1.0000
  H   H54       1.0  0.3250276730091601  0.9317573467868887  0.09292806080849664  1.0000
  C   C1        1.0  0.4716819587370296  0.28211964219242713  0.5842111433200828  1.0000
  C   C2        1.0  0.5283273497079577  0.7178780484798397  0.41579116348815154  1.0000
  C   C3        1.0  0.5032440674976401  0.22561725681728015  0.4819604515126343  1.0000
  C   C4        1.0  0.49676211219841815  0.7743815201303691  0.5180406267114037  1.0000
  C   C5        1.0  0.6560452815243282  0.3260945580073269  0.4534090967055421  1.0000
  C   C6        1.0  0.34395620678453304  0.6739041981363841  0.5465885372605541  1.0000
  C   C7        1.0  0.6501159872627371  0.3593008688654536  0.36642666861914824  1.0000
  C   C8        1.0  0.34987374454922104  0.6407077877085785  0.6335743411740111  1.0000
  C   C9        1.0  0.7846918323751453  0.4493665865984866  0.33240047796108746  1.0000
  C   C10       1.0  0.21530413056899533  0.5506268125759918  0.6675956137918676  1.0000
  C   C11       1.0  0.7546615640783331  0.4889192244606307  0.24217638499517594  1.0000
  C   C12       1.0  0.2453403177959289  0.5110806226032384  0.7578220939697504  1.0000
  C   C13       1.0  0.9037686899462756  0.5143468462444435  0.18256254040758083  1.0000
  C   C14       1.0  0.0962324164205199  0.4856540755804205  0.8174354128812598  1.0000
  C   C15       1.0  0.3443430837638957  0.17231614323667804  0.6213414760418419  1.0000
  C   C16       1.0  0.6556709512916826  0.827681465963224  0.37865951866030667  1.0000
  C   C17       1.0  0.17461279464026092  0.15618399705081745  0.6067027561405639  1.0000
  C   C18       1.0  0.8253977030052442  0.8438136513370086  0.39329820342028654  1.0000
  C   C19       1.0  0.054093525175609614  0.054089943246800914  0.6399593991997251  1.0000
  C   C20       1.0  0.9459158200522708  0.945910930972268  0.36004067452720534  1.0000
  C   C21       1.0  0.10629784336272524  0.9651194461563583  0.6862814625452034  1.0000
  C   C22       1.0  0.893707949359353  0.03488151108334141  0.3137206144821505  1.0000
  C   C23       1.0  0.2733780325137118  0.9808865149241942  0.7018421177732891  1.0000
  C   C24       1.0  0.7266245846127078  0.019112374265880302  0.2981623227123222  1.0000
  C   C25       1.0  0.3930654012910893  0.08530645200202261  0.6703052942204695  1.0000
  C   C26       1.0  0.6069427179533876  0.9146912809546851  0.32969835983514173  1.0000
  C   C27       1.0  0.8800802764598076  0.59790799198192  0.1137415745866903  1.0000
  C   C28       1.0  0.11991728746500031  0.4020929836417651  0.8862570230414308  1.0000
  C   C29       1.0  0.7759049672183809  0.5275350710913431  0.031036078753174955  1.0000
  C   C30       1.0  0.22408825359740803  0.4724671061466595  0.9689660349410121  1.0000
  C   C31       1.0  0.7400451004525196  0.6054458212904379  0.9707716744456931  1.0000
  C   C32       1.0  0.25993867217401606  0.394556504281404  0.0292323839800872  1.0000
  C   C33       1.0  0.809483782202449  0.7564659673570592  0.9953826963087665  1.0000
  C   C34       1.0  0.190493686079492  0.2435353764405265  0.004622496991082397  1.0000
  C   C35       1.0  0.9152016041129941  0.8267683953191921  0.07607117757844149  1.0000
  C   C36       1.0  0.08478493544805593  0.17323495121481616  0.9239317108319727  1.0000
  C   C37       1.0  0.9513328566874082  0.747493800464156  0.13511110350121672  1.0000
  C   C38       1.0  0.048664320263419825  0.25250935545157926  0.8648884929302201  1.0000
  C   C39       1.0  0.8372307562233631  0.13106232573121449  0.5875456774234209  1.0000
  C   C40       1.0  0.16277978323694958  0.8689384915925161  0.4124523695755472  1.0000
  C   C41       1.0  0.8935975334757841  0.7425486600307992  0.6583884063199152  1.0000
  C   C42       1.0  0.10641372805385882  0.25744465699473557  0.3416119145954397  1.0000
  C   C43       1.0  0.7819118271732179  0.6394019886629823  0.7053986289520894  1.0000
  C   C44       1.0  0.21809280498030864  0.3605956373726544  0.29459819515647473  1.0000
  C   C45       1.0  0.584128725569478  0.3911344202345363  0.8588401598243324  1.0000
  C   C46       1.0  0.4158621052219544  0.6088645849710447  0.1411634840430409  1.0000
  C   C47       1.0  0.6293130039911717  0.8610552913601667  0.9313833418700103  1.0000
  C   C48       1.0  0.3706601513732366  0.13894716638634463  0.06862129061245531  1.0000
  C   C49       1.0  0.6258416521126833  0.955410143929733  0.8667593239361012  1.0000
  C   C50       1.0  0.37415593697168964  0.044590758639458314  0.1332358762891488  1.0000
  O   O1        1.0  0.7835322080826544  0.37269442083336213  0.5131476751477068  1.0000
  O   O2        1.0  0.2164751460715665  0.62729448558234  0.4868458449419323  1.0000
  O   O3        1.0  0.9313628603289247  0.5088560617050462  0.3744458560500945  1.0000
  O   O4        1.0  0.06863892508626183  0.49112103298242016  0.6255465111055472  1.0000
  O   O5        1.0  0.8878743412591987  0.035515598196603514  0.6321038232242842  1.0000
  O   O6        1.0  0.1121350275687406  0.9644819171448662  0.367890329817044  1.0000
  O   O7        1.0  0.9890740874165687  0.8639108674564754  0.7224357547902329  1.0000
  O   O8        1.0  0.010926251947069001  0.13608781408448323  0.2775577905786478  1.0000
  O   O9        1.0  0.9066743687816656  0.7234650197185818  0.5743551295246052  1.0000
  O   O10       1.0  0.09335026220226443  0.27651935784694376  0.42563723643169743  1.0000
  O   O11       1.0  0.6410662689392624  0.5454297920940975  0.8889478663235622  1.0000
  O   O12       1.0  0.35891550722831067  0.45457045236547355  0.11105856727424172  1.0000
  O   O13       1.0  0.7816264696867564  0.8379517928019597  0.9348015109548415  1.0000
  O   O14       1.0  0.21835295479885275  0.16205174899509703  0.0652067430175833  1.0000
  O   O15       1.0  0.516672782277233  0.8129167394117406  0.9768734806024073  1.0000
  O   O16       1.0  0.4833060138324967  0.18710061133351272  0.023125315368716304  1.0000
