data_image0
_chemical_formula_structural       Al4H29C50N7O20F6
_chemical_formula_sum              "Al4 H29 C50 N7 O20 F6"
_cell_length_a       6.659960616083057
_cell_length_b       20.442719396215505
_cell_length_c       23.965110574101264
_cell_angle_alpha    89.73092275144923
_cell_angle_beta     88.96356468682589
_cell_angle_gamma    92.17398582687153

_space_group_name_H-M_alt    "P 1"
_space_group_IT_number       1

loop_
  _space_group_symop_operation_xyz
  'x, y, z'

loop_
  _atom_site_type_symbol
  _atom_site_label
  _atom_site_symmetry_multiplicity
  _atom_site_fract_x
  _atom_site_fract_y
  _atom_site_fract_z
  _atom_site_occupancy
  Al  Al1       1.0  0.1484700135755048  0.4992110743546404  0.49801004844304947  1.0000
  Al  Al2       1.0  0.6486844344484908  0.5011884397951717  0.4972732359883594  1.0000
  Al  Al3       1.0  0.6422238171104767  0.9987555859012928  0.9996494997388796  1.0000
  Al  Al4       1.0  0.14144838009231359  0.9957187115204744  0.00039163139020810046  1.0000
  H   H1        1.0  0.1623419732411833  0.7673430964735245  0.17602662877439462  1.0000
  H   H2        1.0  0.5966508145719799  0.7016121233231586  0.2791036352284025  1.0000
  H   H3        1.0  0.8075485431262379  0.7022324838064403  0.166273787772262  1.0000
  H   H4        1.0  0.5891545843109115  0.7427291577376706  0.18827836431928802  1.0000
  H   H5        1.0  0.8864442159169458  0.8696923572446095  0.2726268909929885  1.0000
  H   H6        1.0  0.17507306109503423  0.8171397936415657  0.23625090351828257  1.0000
  H   H7        1.0  0.6004897834213594  0.7401591142709518  0.6840285631536533  1.0000
  H   H8        1.0  0.7026427754088475  0.31765464295364143  0.2673117801071286  1.0000
  H   H9        1.0  0.7024129140326636  0.23618624153998272  0.18982539681667285  1.0000
  H   H10       1.0  0.0814434403811148  0.18327775699916057  0.2289079768008975  1.0000
  H   H11       1.0  0.0863166477126285  0.25464280400449707  0.6895720192898835  1.0000
  H   H12       1.0  0.5535817710417278  0.8783526998499764  0.29001024444177403  1.0000
  H   H13       1.0  0.48690422242210474  0.8032022630514319  0.2694783280159143  1.0000
  H   H14       1.0  0.3403541775865692  0.7384579063460845  0.8113015756006804  1.0000
  H   H15       1.0  0.21970516140063268  0.7970763351868437  0.849170265830317  1.0000
  H   H16       1.0  0.1769799588310406  0.6640670323309691  0.18302876023065554  1.0000
  H   H17       1.0  0.017628879463636293  0.6225839220904702  0.22685551607018084  1.0000
  H   H18       1.0  0.05291434350372978  0.29717894275680823  0.34678187222019125  1.0000
  H   H19       1.0  0.9238361193381904  0.2367392949808503  0.3096831858288098  1.0000
  H   H20       1.0  0.8507270098064267  0.2670496201766923  0.8058626928029184  1.0000
  H   H21       1.0  0.7350487113169424  0.204061151057509  0.8440004678920944  1.0000
  H   H22       1.0  0.6077444681789359  0.6087735135054685  0.21502710239271758  1.0000
  H   H23       1.0  0.6851467865078502  0.5925658937052986  0.27769533568909577  1.0000
  H   H24       1.0  0.5805506523400723  0.7941686895707816  0.35143610256830027  1.0000
  H   H25       1.0  0.7032332122416987  0.7314837990842377  0.381111583415823  1.0000
  H   H26       1.0  0.4032859889172755  0.5814844238032607  0.5182319073169026  1.0000
  H   H27       1.0  0.8830112250257047  0.42126554068691036  0.5234458521524701  1.0000
  H   H28       1.0  0.3887797410023238  0.9185723184765562  0.026314015537984403  1.0000
  H   H29       1.0  0.9052448537454081  0.07740461613690999  0.023278865430882003  1.0000
  C   C1        1.0  0.39721483720823864  0.42293761960154086  0.42234722791977936  1.0000
  C   C2        1.0  0.38513169192228963  0.4217883942809379  0.5749536877155137  1.0000
  C   C3        1.0  0.9017353932081421  0.5800132159241614  0.5730259310322907  1.0000
  C   C4        1.0  0.9172415684553314  0.5770688119039704  0.4213034379955971  1.0000
  C   C5        1.0  0.10596412583575439  0.7141256425025941  0.25355408925146616  1.0000
  C   C6        1.0  0.7299776892546531  0.6884448599264557  0.2545630395610416  1.0000
  C   C7        1.0  0.7405665351685754  0.7298272082499436  0.20074740173721758  1.0000
  C   C8        1.0  0.8656605476225676  0.8755374089082433  0.12449250264355531  1.0000
  C   C9        1.0  0.9148141626135526  0.7085868380410288  0.2918485428016595  1.0000
  C   C10       1.0  0.093416537029583  0.7755845254883765  0.21728042173859316  1.0000
  C   C11       1.0  0.8699712827939335  0.7931287073907352  0.2107601500937619  1.0000
  C   C12       1.0  0.7962698747906387  0.8243215741874292  0.2665598543194606  1.0000
  C   C13       1.0  0.8570931965753914  0.7777469191107398  0.31581816113543953  1.0000
  C   C14       1.0  0.8578872709467832  0.8387628480326154  0.1645020450109769  1.0000
  C   C15       1.0  0.9315856129734501  0.661909841782574  0.3368585669911752  1.0000
  C   C16       1.0  0.9257329713853794  0.622753852207701  0.37521570787834707  1.0000
  C   C17       1.0  0.7265673352018354  0.7443205235193703  0.7121494082598403  1.0000
  C   C18       1.0  0.8965282561295566  0.7053222547115752  0.7043156211565531  1.0000
  C   C19       1.0  0.05515701915170717  0.7121090775605268  0.7414858359496393  1.0000
  C   C20       1.0  0.05505420902251498  0.7552166301919953  0.7869945486384113  1.0000
  C   C21       1.0  0.8846377936142673  0.7948364220766635  0.7940951240910366  1.0000
  C   C22       1.0  0.7270495966856672  0.7877991136047126  0.755776367862069  1.0000
  C   C23       1.0  0.904724128960929  0.6611728788222847  0.6592764331506161  1.0000
  C   C24       1.0  0.8778609830887731  0.839256940264931  0.8384952274566261  1.0000
  C   C25       1.0  0.8812835925682307  0.876557352729989  0.8780820328408085  1.0000
  C   C26       1.0  0.9051957514457527  0.6238967450953792  0.619822340626925  1.0000
  C   C27       1.0  0.5688471818202245  0.24250273256762964  0.2158541457583639  1.0000
  C   C28       1.0  0.3911171762802326  0.20464421265956637  0.2052130493037225  1.0000
  C   C29       1.0  0.21685417285098643  0.21278611378059498  0.23780415476454667  1.0000
  C   C30       1.0  0.2147417780679461  0.2582227036804098  0.28166321845234427  1.0000
  C   C31       1.0  0.39496143897074615  0.2961523421640492  0.2922612772477464  1.0000
  C   C32       1.0  0.568124658660409  0.28763777326861356  0.2586738742252237  1.0000
  C   C33       1.0  0.3904852628747406  0.15909635819234316  0.16085989221583222  1.0000
  C   C34       1.0  0.39752649472885787  0.34106824327794527  0.33657472776612013  1.0000
  C   C35       1.0  0.39436632067221206  0.37876585910508703  0.3759237816050671  1.0000
  C   C36       1.0  0.3949537760844278  0.12084942102737267  0.12206409468635122  1.0000
  C   C37       1.0  0.5602226753202474  0.24482764187911246  0.785121029227696  1.0000
  C   C38       1.0  0.3894108377828048  0.2015306157960381  0.7939803304439296  1.0000
  C   C39       1.0  0.2242216216640074  0.20685097647317724  0.7584427165566654  1.0000
  C   C40       1.0  0.21714255489806084  0.2520658337076539  0.7158551726476576  1.0000
  C   C41       1.0  0.3873557684992477  0.29475822667047413  0.7061890075698543  1.0000
  C   C42       1.0  0.5531622485022325  0.2897069570519477  0.7406759640272186  1.0000
  C   C43       1.0  0.3896066240737781  0.155573175676416  0.8376512864724293  1.0000
  C   C44       1.0  0.3890671897256083  0.3403378232887276  0.6616821864400394  1.0000
  C   C45       1.0  0.38460664670377304  0.3782234095032847  0.6224035194725204  1.0000
  C   C46       1.0  0.3997199504172997  0.11741581169140149  0.8766821509138085  1.0000
  C   C47       1.0  0.39703334684642755  0.07304466773152998  0.9234506318044925  1.0000
  C   C48       1.0  0.3991249994156121  0.07687418575390129  0.07539793344184893  1.0000
  C   C49       1.0  0.8794804908407059  0.9188666736226517  0.07692423929189833  1.0000
  C   C50       1.0  0.8815129333021829  0.9206791659063713  0.9245963320681342  1.0000
  N   N1        1.0  0.5880551923765083  0.8415062476049042  0.26360097972258256  1.0000
  N   N2        1.0  0.2088260958528565  0.7574989603869468  0.8237585006319393  1.0000
  N   N3        1.0  0.13697505793734166  0.655922758423422  0.22364469295290237  1.0000
  N   N4        1.0  0.04574067401495798  0.26730221689226136  0.3131808811031078  1.0000
  N   N5        1.0  0.721279614790717  0.24407704088904578  0.8192765416327249  1.0000
  N   N6        1.0  0.7225139947054872  0.6181536771636187  0.2419605818101118  1.0000
  N   N7        1.0  0.7140602645835229  0.773900320100658  0.3588674679931501  1.0000
  O   O1        1.0  0.5572524536771227  0.43753089176669846  0.5537233065320919  1.0000
  O   O2        1.0  0.22754282304210702  0.4363567659079519  0.443950276761683  1.0000
  O   O3        1.0  0.08298606281731216  0.5558664894000597  0.4377619951145349  1.0000
  O   O4        1.0  0.21496735467076886  0.43973877409379697  0.558308605770833  1.0000
  O   O5        1.0  0.07148935307687758  0.563835577920983  0.5531044293892579  1.0000
  O   O6        1.0  0.5692817626301334  0.4439786201260174  0.4381068837858494  1.0000
  O   O7        1.0  0.40196590713171076  0.5396918826211275  0.4991964251155352  1.0000
  O   O8        1.0  0.728428118316522  0.5620534733347566  0.5557152626961753  1.0000
  O   O9        1.0  0.7431075950809074  0.5628143966345077  0.4417136931225372  1.0000
  O   O10       1.0  0.8927898006347591  0.4605123241026447  0.500451846346735  1.0000
  O   O11       1.0  0.23053581247945937  0.06269201727904769  0.053082116964930016  1.0000
  O   O12       1.0  0.5640490384854076  0.06283007212232408  0.9463982251223371  1.0000
  O   O13       1.0  0.7142450780891636  0.9447645950698201  0.9380179748512277  1.0000
  O   O14       1.0  0.5708272673392969  0.05680810717847608  0.06038570959823632  1.0000
  O   O15       1.0  0.7155246101937678  0.9323351233336935  0.0534757277581335  1.0000
  O   O16       1.0  0.22523294238704483  0.048815535847744194  0.937970246174672  1.0000
  O   O17       1.0  0.38888341489273154  0.9573028045043727  0.0027327857219959007  1.0000
  O   O18       1.0  0.056092013116781886  0.9393052164879874  0.06215067357786102  1.0000
  O   O19       1.0  0.048987090867186105  0.9309066553721906  0.9485155559339022  1.0000
  O   O20       1.0  0.8978916359095734  0.0373571016536971  0.0017108633683591001  1.0000
  F   F1        1.0  0.280378578224358  0.7249931459621733  0.2894535609950353  1.0000
  F   F2        1.0  0.566930269137032  0.82661281387476  0.763061818531547  1.0000
  F   F3        1.0  0.22075213984937395  0.6755324687162483  0.7343959932898869  1.0000
  F   F4        1.0  0.7194138416144965  0.32964655100428075  0.7317816186084941  1.0000
  F   F5        1.0  0.0639537731234725  0.16459863720062626  0.7673958417226744  1.0000
  F   F6        1.0  0.041955937583132694  0.8076350683578822  0.3370646875456487  1.0000
