data_image0
_chemical_formula_structural       K4H4C12Cl4O10
_chemical_formula_sum              "K4 H4 C12 Cl4 O10"
_cell_length_a       4.722007757938524
_cell_length_b       8.483537298965418
_cell_length_c       12.705067313136748
_cell_angle_alpha    79.83888204476641
_cell_angle_beta     79.304727608049
_cell_angle_gamma    73.70734515618199

_space_group_name_H-M_alt    "P 1"
_space_group_IT_number       1

loop_
  _space_group_symop_operation_xyz
  'x, y, z'

loop_
  _atom_site_type_symbol
  _atom_site_label
  _atom_site_symmetry_multiplicity
  _atom_site_fract_x
  _atom_site_fract_y
  _atom_site_fract_z
  _atom_site_occupancy
  K   K1        1.0  0.7311174430156134  0.9965677183002486  0.12799310109323156  1.0000
  K   K2        1.0  0.8545858386569097  0.5033436483278848  0.3721469438087013  1.0000
  K   K3        1.0  0.26888488810666883  0.003432063227940301  0.8720105542472113  1.0000
  K   K4        1.0  0.14542193238738588  0.4966573524021457  0.6278528278957793  1.0000
  H   H1        1.0  0.2977283802715436  0.7818421082253552  0.3062024033648569  1.0000
  H   H2        1.0  0.3856464748836503  0.7185989917308575  0.19353089143221072  1.0000
  H   H3        1.0  0.7022683469106145  0.21815766522423982  0.6937982788787522  1.0000
  H   H4        1.0  0.6143528216028928  0.2813995420277422  0.8064700536024673  1.0000
  C   C1        1.0  0.1142950726691795  0.3229457341838754  0.034763800409521685  1.0000
  C   C2        1.0  0.4728275697679222  0.1769347597903704  0.4657299923589164  1.0000
  C   C3        1.0  0.8857115978827118  0.6770515544890118  0.965236929582602  1.0000
  C   C4        1.0  0.5271712269155064  0.8230674763256616  0.5342673292104791  1.0000
  C   C5        1.0  0.9020547410924638  0.387240937427798  0.9487215597480301  1.0000
  C   C6        1.0  0.23801087016266817  0.11327850106476234  0.5513504545039822  1.0000
  C   C7        1.0  0.0979444896523064  0.6127551156068806  0.05127866323719129  1.0000
  C   C8        1.0  0.7619819210538599  0.8867237374829461  0.44864640518662197  1.0000
  C   C9        1.0  0.8084634975919233  0.5590961998314087  0.9182788728757743  1.0000
  C   C10       1.0  0.2851289352555996  0.9414607668123766  0.5813620210311541  1.0000
  C   C11       1.0  0.19153940294964406  0.44090232556941805  0.08172065461287299  1.0000
  C   C12       1.0  0.7148644891847838  0.05854271357881661  0.41863566954039305  1.0000
  Cl  Cl1       1.0  0.5765715346517766  0.6286321286920541  0.8190694448066793  1.0000
  Cl  Cl2       1.0  0.02295604003408856  0.8724762159059269  0.6801848517687717  1.0000
  Cl  Cl3       1.0  0.4234291304332133  0.37136516241250217  0.18093082330666016  1.0000
  Cl  Cl4       1.0  0.9770423551225634  0.1275260307203681  0.31981498101866634  1.0000
  O   O1        1.0  0.2051479204425349  0.1677067043210841  0.05708767167998019  1.0000
  O   O2        1.0  0.4313923927655097  0.3320602575635193  0.4437105215064676  1.0000
  O   O3        1.0  0.7948538796066207  0.8322881090226064  0.9429128140963172  1.0000
  O   O4        1.0  0.5686082378477195  0.6679432233590534  0.5562885706562781  1.0000
  O   O5        1.0  0.8269768745187847  0.2788742459698953  0.9111428828964279  1.0000
  O   O6        1.0  0.01707211308907837  0.22202659328291932  0.5890215883741874  1.0000
  O   O7        1.0  0.17301795105461093  0.7211218191961566  0.08885954338764887  1.0000
  O   O8        1.0  0.9829226799497522  0.7779756444542302  0.41097542527601416  1.0000
  O   O9        1.0  0.47127661501549795  0.7504355649308466  0.2497601155013456  1.0000
  O   O10       1.0  0.5287241158112653  0.24956420689763092  0.7502408746614576  1.0000
