data_image0
_chemical_formula_structural       CoH20C24N10O6
_chemical_formula_sum              "Co1 H20 C24 N10 O6"
_cell_length_a       8.774372715911712
_cell_length_b       9.544380592245929
_cell_length_c       10.317639597158575
_cell_angle_alpha    100.79779768063798
_cell_angle_beta     100.94877451619016
_cell_angle_gamma    108.48785585737657

_space_group_name_H-M_alt    "P 1"
_space_group_IT_number       1

loop_
  _space_group_symop_operation_xyz
  'x, y, z'

loop_
  _atom_site_type_symbol
  _atom_site_label
  _atom_site_symmetry_multiplicity
  _atom_site_fract_x
  _atom_site_fract_y
  _atom_site_fract_z
  _atom_site_occupancy
  Co  Co1       1.0  1.2462373107059838e-06  0.4999968186152302  0.9999982596840059  1.0000
  H   H1        1.0  0.1490104646819361  0.5025692120078205  0.3005123231357986  1.0000
  H   H2        1.0  0.8509790637721437  0.49743171384471224  0.6994804027432695  1.0000
  H   H3        1.0  0.15020821137073173  0.41636014334693533  0.49715155894063684  1.0000
  H   H4        1.0  0.8497920040063744  0.5836384038656206  0.5028521367288052  1.0000
  H   H5        1.0  0.4349631510568983  0.17634843563575237  0.3184523729151324  1.0000
  H   H6        1.0  0.5650427484214902  0.8236616938322926  0.6815476035974658  1.0000
  H   H7        1.0  0.5974969831974092  0.20000728569693396  0.5514028705684171  1.0000
  H   H8        1.0  0.40251402562527966  0.8000040375988532  0.44859718008621036  1.0000
  H   H9        1.0  0.5399338051129873  0.3325679078444993  0.7573130648521771  1.0000
  H   H10       1.0  0.46007261859156046  0.6674376208141551  0.2426880797647045  1.0000
  H   H11       1.0  0.21159737298457773  0.0876695131298462  0.13768077974987145  1.0000
  H   H12       1.0  0.7884045787990672  0.9123334520203912  0.8623337091591882  1.0000
  H   H13       1.0  0.061925650182509215  0.18263749112208671  0.9262581832779518  1.0000
  H   H14       1.0  0.938079040452848  0.8173576578016366  0.07374560066687513  1.0000
  H   H15       1.0  0.047860117406493416  0.3171271770857942  0.7267591628882999  1.0000
  H   H16       1.0  0.9521430541420202  0.682861121106683  0.2732421345906958  1.0000
  H   H17       1.0  0.5464238572674629  0.6382544582747159  0.8561871970939593  1.0000
  H   H18       1.0  0.45356562305588705  0.3617522969861895  0.14379981893919347  1.0000
  H   H19       1.0  0.3699498615750656  0.716094434096469  0.036967354076203746  1.0000
  H   H20       1.0  0.6300452948503049  0.28390306822581124  0.963027579389369  1.0000
  C   C1        1.0  0.1383221894848887  0.4003220335279849  0.2274743340722481  1.0000
  C   C2        1.0  0.8616724684483542  0.5996741740008816  0.7725290024957875  1.0000
  C   C3        1.0  0.2846328475553789  0.2971291046407956  0.39318480673809125  1.0000
  C   C4        1.0  0.7153701437440745  0.7028706041393065  0.6068195511521568  1.0000
  C   C5        1.0  0.24850009337464482  0.36925487613215324  0.5078651163956068  1.0000
  C   C6        1.0  0.751497816576382  0.6307437215632419  0.49213434065158895  1.0000
  C   C7        1.0  0.40980968808291607  0.23540067635001805  0.40827802678042974  1.0000
  C   C8        1.0  0.5902001288325209  0.7646105563469308  0.5917266619445132  1.0000
  C   C9        1.0  0.5002425213005921  0.24838036454748652  0.539264542299833  1.0000
  C   C10       1.0  0.499768459526237  0.7516308760052652  0.46074033505581724  1.0000
  C   C11       1.0  0.46814630382051087  0.32230503498977475  0.6552480848426046  1.0000
  C   C12       1.0  0.5318630705945252  0.6777050683998453  0.3447553535827482  1.0000
  C   C13       1.0  0.17420684513739101  0.18579656299169056  0.13863353855705185  1.0000
  C   C14       1.0  0.8257960644362965  0.8142088759051305  0.8613709015285239  1.0000
  C   C15       1.0  0.10028355723435568  0.23447203744431278  0.03571463241153342  1.0000
  C   C16       1.0  0.8997143247207973  0.7655264775080326  0.9642896513366923  1.0000
  C   C17       1.0  0.15651946548022272  0.41789572338506537  0.7854505601672844  1.0000
  C   C18       1.0  0.8434811105332543  0.5820948429519037  0.21455074133835694  1.0000
  C   C19       1.0  0.3416295619485865  0.38160494996572686  0.6380177242868614  1.0000
  C   C20       1.0  0.6583725611476011  0.618392549845531  0.36198123698358137  1.0000
  C   C21       1.0  0.4181648651986194  0.584535446988376  0.8572956516010282  1.0000
  C   C22       1.0  0.5818311818267147  0.415464330497187  0.1427008171235259  1.0000
  C   C23       1.0  0.3309292336488596  0.620563322943184  0.9470244261082716  1.0000
  C   C24       1.0  0.6690684365857749  0.3794376413513376  0.052970585525969206  1.0000
  N   N1        1.0  0.7764832848185109  0.15883573240798657  0.7876371562973221  1.0000
  N   N2        1.0  0.22350747807438157  0.8411594380864075  0.21235760669754472  1.0000
  N   N3        1.0  0.07913729584632283  0.3685335699959893  0.09242234757334702  1.0000
  N   N4        1.0  0.9208645371409219  0.6314661474769138  0.9075808563459876  1.0000
  N   N5        1.0  0.19788168291420757  0.2918102454926981  0.2600786276968706  1.0000
  N   N6        1.0  0.802120772960741  0.7081940309995716  0.7399264927695131  1.0000
  N   N7        1.0  0.1688288274530265  0.5149222063701729  0.9019121644499325  1.0000
  N   N8        1.0  0.8311701477478408  0.48506723935226853  0.09808673278519828  1.0000
  N   N9        1.0  0.3066414516252323  0.4572711977059854  0.7552691840999589  1.0000
  N   N10       1.0  0.6933551196262612  0.5427239789701802  0.2447284527288646  1.0000
  O   O1        1.0  0.8099068711795212  0.30443423984685586  0.8119355354985417  1.0000
  O   O2        1.0  0.19008855855727805  0.6955609951679521  0.18805805133875717  1.0000
  O   O3        1.0  0.8536442437656645  0.09942057599482011  0.7162862910972411  1.0000
  O   O4        1.0  0.14634612475756364  0.9005676357838581  0.2837129314439509  1.0000
  O   O5        1.0  0.6681016115079428  0.0790229031916923  0.8356692054089269  1.0000
  O   O6        1.0  0.3318883314506635  0.9209790692251334  0.16432959747076148  1.0000
