data_image0
_chemical_formula_structural       Cu6Sb4H28C30S18N14
_chemical_formula_sum              "Cu6 Sb4 H28 C30 S18 N14"
_cell_length_a       6.8690358007638945
_cell_length_b       13.613857674255806
_cell_length_c       15.618389527350818
_cell_angle_alpha    108.65053435367756
_cell_angle_beta     90.43355099689788
_cell_angle_gamma    99.75758200398558

_space_group_name_H-M_alt    "P 1"
_space_group_IT_number       1

loop_
  _space_group_symop_operation_xyz
  'x, y, z'

loop_
  _atom_site_type_symbol
  _atom_site_label
  _atom_site_symmetry_multiplicity
  _atom_site_fract_x
  _atom_site_fract_y
  _atom_site_fract_z
  _atom_site_occupancy
  Cu  Cu1       1.0  0.209556964225655  0.7895820925370669  0.12403018533994718  1.0000
  Cu  Cu2       1.0  0.7904353613962343  0.2104187694931383  0.8759717799093918  1.0000
  Cu  Cu3       1.0  0.06876742613947331  0.2534696533168628  0.2369310035797553  1.0000
  Cu  Cu4       1.0  0.9312344198078084  0.7465288522162014  0.7630672139052161  1.0000
  Cu  Cu5       1.0  0.4707451398704949  0.2852615129235403  0.574732073626613  1.0000
  Cu  Cu6       1.0  0.5292502397119494  0.7147393437783478  0.4252660803829469  1.0000
  Sb  Sb1       1.0  0.44790214476591234  0.04216099247114612  0.2067262453700208  1.0000
  Sb  Sb2       1.0  0.5520979570440832  0.9578367239962944  0.7932723773638838  1.0000
  Sb  Sb3       1.0  0.012416259726158793  0.5123287442531392  0.3179949680045764  1.0000
  Sb  Sb4       1.0  0.9875792971573888  0.48766424074260334  0.6820035883570339  1.0000
  H   H1        1.0  0.8227811923904085  0.9159106938226317  0.19209116899592257  1.0000
  H   H2        1.0  0.17722160904679649  0.0840996386707999  0.8079128668384068  1.0000
  H   H3        1.0  0.9286700457897298  0.048472306394813806  0.2592310092599844  1.0000
  H   H4        1.0  0.0713421819609509  0.9515356763908047  0.7407718411168458  1.0000
  H   H5        1.0  0.8658197604637438  0.029556159417467108  0.09487935239150856  1.0000
  H   H6        1.0  0.13418580190670337  0.9704494520461253  0.9051240570451067  1.0000
  H   H7        1.0  0.030370722583072225  0.9374702859676278  0.06409942784051743  1.0000
  H   H8        1.0  0.9696262366158169  0.06253137168120301  0.9359028049571304  1.0000
  H   H9        1.0  0.7838293037968926  0.912479051917124  0.3665027204771929  1.0000
  H   H10       1.0  0.21617632345227386  0.08752574744870152  0.6334915016678762  1.0000
  H   H11       1.0  0.8414562089058677  0.9810132394991982  0.5378879942131999  1.0000
  H   H12       1.0  0.1585460240806285  0.018989974946066503  0.46210447612284594  1.0000
  H   H13       1.0  0.7080563968940795  0.14449181484665272  0.6212115497527788  1.0000
  H   H14       1.0  0.2919400518516397  0.8555074574288567  0.37878233847168  1.0000
  H   H15       1.0  0.5504549269325878  0.38835732823392277  0.24595157189434488  1.0000
  H   H16       1.0  0.44954658434279793  0.6116403940560247  0.7540483481032464  1.0000
  H   H17       1.0  0.5300958313511687  0.5232122588780328  0.26608732259234796  1.0000
  H   H18       1.0  0.4699028374904585  0.4767854534642381  0.733910643454571  1.0000
  H   H19       1.0  0.588111287150298  0.48601802997667676  0.41168880716161715  1.0000
  H   H20       1.0  0.41189047014643176  0.513984411409453  0.58830920914734  1.0000
  H   H21       1.0  0.366327720682314  0.39003165794997596  0.38526372558759886  1.0000
  H   H22       1.0  0.6336761752098212  0.6099644925254138  0.614735788195446  1.0000
  H   H23       1.0  0.63964585598535  0.3970713688152542  0.06136564059517716  1.0000
  H   H24       1.0  0.3603618919864502  0.6029279483429235  0.9386379851620955  1.0000
  H   H25       1.0  0.6611421092025582  0.4843641544799695  0.9400429552001268  1.0000
  H   H26       1.0  0.3388552789489979  0.5156351575646738  0.05996504182233756  1.0000
  H   H27       1.0  0.8967518023513252  0.6584979996043857  0.9740965821826957  1.0000
  H   H28       1.0  0.10323910844381602  0.34149892753956834  0.025906849285838987  1.0000
  C   C1        1.0  0.5629021180647416  0.739628036306371  0.2353654466493607  1.0000
  C   C2        1.0  0.4370973777603456  0.26037677541341964  0.7646370385519671  1.0000
  C   C3        1.0  0.9539709189999359  0.9788735339601047  0.20414185670120583  1.0000
  C   C4        1.0  0.04603058512540062  0.021132855160423996  0.7958604424687292  1.0000
  C   C5        1.0  0.9954919912372093  0.005194100574023301  0.11839090514303756  1.0000
  C   C6        1.0  0.00450991270760439  0.9948091376338868  0.8816105332670285  1.0000
  C   C7        1.0  0.578706711754002  0.1226849052014813  0.4125697664372935  1.0000
  C   C8        1.0  0.42128281844009063  0.8773159434863871  0.5874289637079495  1.0000
  C   C9        1.0  0.7360949498787406  0.984555507859653  0.40751321915973876  1.0000
  C   C10       1.0  0.2639088752356003  0.015443769765710201  0.5924781873091616  1.0000
  C   C11       1.0  0.7680124253534475  0.022027378317282898  0.5015507327235864  1.0000
  C   C12       1.0  0.23199265006680758  0.9779758460756511  0.49844369156313184  1.0000
  C   C13       1.0  0.6940417044101536  0.11189194514552982  0.547534493284658  1.0000
  C   C14       1.0  0.30595613029797164  0.8881073346498097  0.4524613327802099  1.0000
  C   C15       1.0  0.24730749321649642  0.791259199209435  0.9267182606860654  1.0000
  C   C16       1.0  0.7526881451675538  0.20873851676382318  0.07328287602391725  1.0000
  C   C17       1.0  0.46077159642602084  0.4491312778668473  0.27602086346139026  1.0000
  C   C18       1.0  0.5392268787615749  0.5508656410483184  0.7239749616378572  1.0000
  C   C19       1.0  0.4410244012207656  0.46291270561666664  0.37525305165522826  1.0000
  C   C20       1.0  0.5589769979010911  0.5370889542236839  0.6247473077430566  1.0000
  C   C21       1.0  0.9688243599250372  0.6084981091740788  0.16254110197132113  1.0000
  C   C22       1.0  0.03117531320114611  0.39149883083957343  0.837461785582057  1.0000
  C   C23       1.0  0.7370133397991054  0.472579791504799  0.07111888314839375  1.0000
  C   C24       1.0  0.262984254517889  0.5274155762001129  0.9288861121665162  1.0000
  C   C25       1.0  0.7479898124906728  0.5207632010046979  0.004388935282939572  1.0000
  C   C26       1.0  0.25200235576042473  0.47922900607624536  0.9956151348310552  1.0000
  C   C27       1.0  0.8783376540560257  0.6160406290009418  0.022866518939885245  1.0000
  C   C28       1.0  0.12166838427304337  0.3839626334637956  0.977141373568116  1.0000
  C   C29       1.0  0.07666970976588065  0.2797210661599935  0.4390925692656109  1.0000
  C   C30       1.0  0.9233292702446722  0.7202774311227316  0.5609043348454177  1.0000
  S   S1        1.0  0.5294563383341497  0.7563899554755976  0.1376516661504467  1.0000
  S   S2        1.0  0.47053830675692165  0.24361326889579257  0.862349051131609  1.0000
  S   S3        1.0  0.1535524030643956  0.9272627127322152  0.2435799869172966  1.0000
  S   S4        1.0  0.8464491897114997  0.0727397405352406  0.7564225134286668  1.0000
  S   S5        1.0  0.19823274345949235  0.117312396062772  0.13689456170114053  1.0000
  S   S6        1.0  0.801776008528016  0.8826892708247699  0.8631039565182942  1.0000
  S   S7        1.0  0.4599497155444396  0.18877835357565687  0.3560592233791481  1.0000
  S   S8        1.0  0.5400398616556077  0.8112224917175511  0.6439382256126575  1.0000
  S   S9        1.0  0.26306021156717213  0.7678029136267809  0.8175452702980119  1.0000
  S   S10       1.0  0.7369411640517004  0.23219874791089978  0.182455729676981  1.0000
  S   S11       1.0  0.22387773717987625  0.40257209112323283  0.2093115772137749  1.0000
  S   S12       1.0  0.7761267575471322  0.5974256309303883  0.7906864532741902  1.0000
  S   S13       1.0  0.3087106256296508  0.569347089207909  0.43153855379000544  1.0000
  S   S14       1.0  0.691288019708999  0.43065062483169925  0.5684600528336359  1.0000
  S   S15       1.0  0.1140459285484638  0.6664547415224644  0.2627357080280317  1.0000
  S   S16       1.0  0.8859524112514807  0.3335429945824515  0.7372712260929144  1.0000
  S   S17       1.0  0.13843319642962373  0.2918626822257195  0.5437631573704065  1.0000
  S   S18       1.0  0.8615613853025581  0.7081318804070805  0.45623710246944416  1.0000
  N   N1        1.0  0.5855072931823389  0.7275274099679336  0.30637224461428747  1.0000
  N   N2        1.0  0.41449788188003833  0.27247661464143386  0.6936268829269705  1.0000
  N   N3        1.0  0.6411303853466991  0.0340950230180042  0.3634042205415326  1.0000
  N   N4        1.0  0.35886749636738113  0.9659042533826678  0.6365903243699048  1.0000
  N   N5        1.0  0.5979400026990336  0.16249946441932653  0.5042277232904907  1.0000
  N   N6        1.0  0.4020551127204473  0.8375006039474472  0.4957702115015364  1.0000
  N   N7        1.0  0.23442576440472626  0.8070233112552787  0.00527086685011825  1.0000
  N   N8        1.0  0.7655667203766543  0.19297360982986328  0.9947293778450965  1.0000
  N   N9        1.0  0.8458862685409163  0.5160271362933245  0.14993614965392504  1.0000
  N   N10       1.0  0.15412119176495054  0.48397139422707625  0.85006789746253  1.0000
  N   N11       1.0  0.9915073435902572  0.6600085903499247  0.10090724531927  1.0000
  N   N12       1.0  0.00848934608430344  0.33998834990004684  0.8990975317437342  1.0000
  N   N13       1.0  0.03507320458666644  0.26768166998601833  0.3622864522468133  1.0000
  N   N14       1.0  0.9649366040527098  0.7323231502419744  0.6377129428427604  1.0000
