data_image0
_chemical_formula_structural       Zn8H60C72Cl4O26
_chemical_formula_sum              "Zn8 H60 C72 Cl4 O26"
_cell_length_a       17.823350375314014
_cell_length_b       18.581346694757173
_cell_length_c       23.466770270291054
_cell_angle_alpha    66.54325788647421
_cell_angle_beta     69.41875387977647
_cell_angle_gamma    90.21911114728665

_space_group_name_H-M_alt    "P 1"
_space_group_IT_number       1

loop_
  _space_group_symop_operation_xyz
  'x, y, z'

loop_
  _atom_site_type_symbol
  _atom_site_label
  _atom_site_symmetry_multiplicity
  _atom_site_fract_x
  _atom_site_fract_y
  _atom_site_fract_z
  _atom_site_occupancy
  Zn  Zn1       1.0  0.1184985472558822  0.5309046466633163  0.9434548233063326  1.0000
  Zn  Zn2       1.0  0.9697914454457572  0.5574005479973893  0.05288868873486055  1.0000
  Zn  Zn3       1.0  0.9781623865778856  0.38812130009377915  0.048723098814981776  1.0000
  Zn  Zn4       1.0  0.9413370819874061  0.5314271668374814  0.932962409906111  1.0000
  Zn  Zn5       1.0  0.3854438395042905  0.9796661235270321  0.04808395343228978  1.0000
  Zn  Zn6       1.0  0.5298128751760274  0.1160205943656436  0.9383223302880381  1.0000
  Zn  Zn7       1.0  0.5251952590895073  0.9463457685058787  0.9357482102002167  1.0000
  Zn  Zn8       1.0  0.5655096979492314  0.9698046252272482  0.0517446289813248  1.0000
  H   H1        1.0  0.49175287645942933  0.8754660853658438  0.25828271872284597  1.0000
  H   H2        1.0  0.4341638876365224  0.812856382421529  0.3839098049354989  1.0000
  H   H3        1.0  0.1932201079815741  0.8003703201522543  0.38203110376095134  1.0000
  H   H4        1.0  0.3216565304561243  0.7010733891474177  0.6062829838489989  1.0000
  H   H5        1.0  0.022748719444344125  0.6316623514313306  0.7276345050502969  1.0000
  H   H6        1.0  0.08172431750883655  0.6946312950276835  0.6020484870245326  1.0000
  H   H7        1.0  0.6214641523298923  0.025914833078459806  0.7311756250325135  1.0000
  H   H8        1.0  0.6890415316859942  0.08536373447306997  0.6058025192514124  1.0000
  H   H9        1.0  0.7079636001027437  0.3179907719835029  0.6037754209049028  1.0000
  H   H10       1.0  0.801170052240188  0.18919328701835522  0.389592755330611  1.0000
  H   H11       1.0  0.8759338940582991  0.48099081971891894  0.25378436510040814  1.0000
  H   H12       1.0  0.8168303110755346  0.42611879665059155  0.3792325718143985  1.0000
  H   H13       1.0  0.20096691767393082  0.30299754368876824  0.9089768978710212  1.0000
  H   H14       1.0  0.1296744413517246  0.23010024414145397  0.9857657442962451  1.0000
  H   H15       1.0  0.22024184697816906  0.1398292807355901  0.9815993855553414  1.0000
  H   H16       1.0  0.2918961597218157  0.21398577405108207  0.9058390071445785  1.0000
  H   H17       1.0  0.21735000848395455  0.12572333594967944  0.0932763050352889  1.0000
  H   H18       1.0  0.2890702120579718  0.18700494864276615  0.09768617826624389  1.0000
  H   H19       1.0  0.1292654363664738  0.2185953294972336  0.0967381725192453  1.0000
  H   H20       1.0  0.20307568323503492  0.2807424399477228  0.09825154353319482  1.0000
  H   H21       1.0  0.3057680268983418  0.39426155241837796  0.9112260423340574  1.0000
  H   H22       1.0  0.30546227459689845  0.3863301144966016  0.9884532227685341  1.0000
  H   H23       1.0  0.39375123890010133  0.2937290130015384  0.9888495389244767  1.0000
  H   H24       1.0  0.396062866613974  0.3035453614651118  0.9106467130567426  1.0000
  H   H25       1.0  0.8906859965696939  0.8006882560368851  0.9058691642209667  1.0000
  H   H26       1.0  0.8854040092240539  0.787516660446457  0.9862252460308978  1.0000
  H   H27       1.0  0.7958061546354783  0.8790459398591963  0.9866827447815892  1.0000
  H   H28       1.0  0.8005354011498227  0.8906288256654945  0.9068308235260433  1.0000
  H   H29       1.0  0.692282993889222  0.7736411823780288  0.09215412397121268  1.0000
  H   H30       1.0  0.6210236751561736  0.7110545830619442  0.08853316199302007  1.0000
  H   H31       1.0  0.7804623287021926  0.6806367418196047  0.09131261862587083  1.0000
  H   H32       1.0  0.7096274151478283  0.6198762317509863  0.08558783965659686  1.0000
  H   H33       1.0  0.7905486890306506  0.7119564352380224  0.8970019842694228  1.0000
  H   H34       1.0  0.7174546535569918  0.637291946368784  0.9701027925145455  1.0000
  H   H35       1.0  0.626481807797532  0.7270258017779414  0.973490650506946  1.0000
  H   H36       1.0  0.6989005378075106  0.8012082662619946  0.899649022256618  1.0000
  H   H37       1.0  0.16135474585551182  0.7949323016815414  0.9379155742790958  1.0000
  H   H38       1.0  0.24486731161822922  0.757858442715822  0.8973832013097366  1.0000
  H   H39       1.0  0.3336869467930725  0.8535889829769233  0.8942453754203398  1.0000
  H   H40       1.0  0.2495977738724093  0.8894571218112831  0.9355490454546144  1.0000
  H   H41       1.0  0.3921696094929885  0.7439775393350987  0.9614445540117272  1.0000
  H   H42       1.0  0.350649651839106  0.7028068843488527  0.05029509752468896  1.0000
  H   H43       1.0  0.30245196147770054  0.6479372578309822  0.9655033927566877  1.0000
  H   H44       1.0  0.26083587958293464  0.608193928446241  0.054303868663332366  1.0000
  H   H45       1.0  0.09994224636761122  0.7367177678031851  0.06601377360261299  1.0000
  H   H46       1.0  0.14029487034336097  0.6602362007341187  0.11342258558640582  1.0000
  H   H47       1.0  0.2301309451143254  0.7549130884719162  0.11040604967875106  1.0000
  H   H48       1.0  0.18941358952178433  0.8312894858383616  0.06337535289130614  1.0000
  H   H49       1.0  0.8993816870047054  0.2691400191042278  0.9291520672987588  1.0000
  H   H50       1.0  0.8537403756176758  0.34417261693535306  0.8849233288591377  1.0000
  H   H51       1.0  0.7697340954931773  0.24587193599009535  0.886503709823181  1.0000
  H   H52       1.0  0.8130328091763629  0.17120888699628986  0.9336461740688905  1.0000
  H   H53       1.0  0.6500461797094629  0.29664788667429326  0.9454457308070449  1.0000
  H   H54       1.0  0.6051034310859507  0.255053863940887  0.03419100101454823  1.0000
  H   H55       1.0  0.7349305039896377  0.39205400168215493  0.9467867164146426  1.0000
  H   H56       1.0  0.6915327545889697  0.3478025357596836  0.03563349790417891  1.0000
  H   H57       1.0  0.8383826521059772  0.20471187112844552  0.05731608945070123  1.0000
  H   H58       1.0  0.7555604579093468  0.2381152532792186  0.1013740334765103  1.0000
  H   H59       1.0  0.6651542918667985  0.14558040032657973  0.10261890613800526  1.0000
  H   H60       1.0  0.7482540538233023  0.1094144907138954  0.0617718246275487  1.0000
  C   C1        1.0  0.13911807672521093  0.6355644474994406  0.004666076982829263  1.0000
  C   C2        1.0  0.9106494705439444  0.40748480966904316  0.17536987730490225  1.0000
  C   C3        1.0  0.1468713521735197  0.36519506319070427  0.999119965859599  1.0000
  C   C4        1.0  0.8597113418255302  0.3663591749449182  0.9909044842596658  1.0000
  C   C5        1.0  0.09489585186242522  0.5911439758463787  0.8134631971803614  1.0000
  C   C6        1.0  0.8613195278213934  0.6426625351281533  0.9890730838656553  1.0000
  C   C7        1.0  0.3636011185178986  0.14475269692039217  0.9951621683478252  1.0000
  C   C8        1.0  0.5828737153686275  0.094939467347217  0.8131740260250739  1.0000
  C   C9        1.0  0.35597532452447206  0.864117775099473  0.9981583566059554  1.0000
  C   C10       1.0  0.641965978901645  0.8622704451997906  0.9926771203154486  1.0000
  C   C11       1.0  0.4171779708099521  0.9154524631627937  0.1738502327744484  1.0000
  C   C12       1.0  0.6471592743054798  0.13752989498058812  0.9927434039268307  1.0000
  C   C13       1.0  0.3765977821635431  0.8749886693407947  0.24902569872528338  1.0000
  C   C14       1.0  0.4262648799117841  0.8589911480145602  0.28642350234744646  1.0000
  C   C15       1.0  0.39441523062183137  0.8241755221521814  0.35615660759481216  1.0000
  C   C16       1.0  0.30938332520295825  0.8031096273061566  0.39173968527087766  1.0000
  C   C17       1.0  0.25884336328385155  0.8173028957206441  0.3552336145339155  1.0000
  C   C18       1.0  0.2915640689128908  0.8525332682646296  0.2850844393337652  1.0000
  C   C19       1.0  0.274168608892964  0.7678580858437272  0.4628771743604221  1.0000
  C   C20       1.0  0.2420271508856331  0.7373697565292688  0.5242274517569214  1.0000
  C   C21       1.0  0.20614855834020324  0.701914467853193  0.5953433107974676  1.0000
  C   C22       1.0  0.2558985194754584  0.6857617684829195  0.6325635485316637  1.0000
  C   C23       1.0  0.22244522968884442  0.6504752532553795  0.7027539711992078  1.0000
  C   C24       1.0  0.1371311355541991  0.6299415345587391  0.7382778972500859  1.0000
  C   C25       1.0  0.08834859685906342  0.6471408245565939  0.7000123380399685  1.0000
  C   C26       1.0  0.12096366736342651  0.6821545951746517  0.6302946910854246  1.0000
  C   C27       1.0  0.6248698645308508  0.1369757519407742  0.738308138848055  1.0000
  C   C28       1.0  0.6404092939145939  0.089998410402643  0.7021799270930132  1.0000
  C   C29       1.0  0.6779593319326337  0.12277489434842441  0.6327577339363302  1.0000
  C   C30       1.0  0.702306432537341  0.205973839407136  0.5962252035771485  1.0000
  C   C31       1.0  0.688521111086679  0.2538513652389796  0.6313979153863016  1.0000
  C   C32       1.0  0.6503340522227105  0.22019267505333323  0.7013707054973183  1.0000
  C   C33       1.0  0.7397551326005355  0.24100913154089204  0.525277937270353  1.0000
  C   C34       1.0  0.7709129705274903  0.27054847001790716  0.4639410873775134  1.0000
  C   C35       1.0  0.8054428823864654  0.3036924876712348  0.39293344529116336  1.0000
  C   C36       1.0  0.8180126132009632  0.2533216891987706  0.3600302092731269  1.0000
  C   C37       1.0  0.8512678518135672  0.2844471071980053  0.2899875137159071  1.0000
  C   C38       1.0  0.8731162869853363  0.3676197552311536  0.25061999880485064  1.0000
  C   C39       1.0  0.8594557050033059  0.417035100318472  0.28457536295010755  1.0000
  C   C40       1.0  0.8267299595271496  0.3867626651251612  0.354070361622945  1.0000
  C   C41       1.0  0.19299572638717416  0.2608212931505633  0.9602530866504682  1.0000
  C   C42       1.0  0.2529761889610995  0.20098924758328712  0.9581391442415992  1.0000
  C   C43       1.0  0.30712649944030807  0.20575604689323518  0.9959900431027507  1.0000
  C   C44       1.0  0.2512987441658368  0.18640959393579243  0.06947508212292061  1.0000
  C   C45       1.0  0.19305659898879665  0.24795321282739016  0.0707890565078699  1.0000
  C   C46       1.0  0.2074044346775636  0.30779876404696455  0.9981924683472203  1.0000
  C   C47       1.0  0.2957080235715921  0.35130466476497463  0.9626484005803846  1.0000
  C   C48       1.0  0.3548283548432991  0.29064498604864036  0.9622423156624863  1.0000
  C   C49       1.0  0.848475252165727  0.7859935150337876  0.9576977836162828  1.0000
  C   C50       1.0  0.788638612869434  0.8463620945812951  0.9583735538161164  1.0000
  C   C51       1.0  0.6999725441922635  0.8022612452411269  0.9911608745378686  1.0000
  C   C52       1.0  0.6845608323838022  0.7414748788640821  0.06365887075440908  1.0000
  C   C53       1.0  0.7436052152788903  0.6806193347570475  0.062416670556444766  1.0000
  C   C54       1.0  0.8009193831683349  0.7006012515193732  0.9891690057330464  1.0000
  C   C55       1.0  0.7499009260884931  0.6982007306928254  0.9489556147470284  1.0000
  C   C56       1.0  0.6896164866450293  0.7577589191617592  0.9507408749840208  1.0000
  C   C57       1.0  0.21766860427480594  0.7724773359185664  0.9404687103476519  1.0000
  C   C58       1.0  0.2766034096520258  0.8355435941320338  0.9386005638556869  1.0000
  C   C59       1.0  0.2959988005869931  0.8015105230325404  0.0027299392095941036  1.0000
  C   C60       1.0  0.3349898652598498  0.7266275689037728  0.0056068881010559336  1.0000
  C   C61       1.0  0.2754665441167248  0.6634361582594295  0.008081472818034261  1.0000
  C   C62       1.0  0.1960542641702077  0.6953821218602699  0.006200530546514874  1.0000
  C   C63       1.0  0.15703106079214288  0.7151190215652721  0.06672040451639552  1.0000
  C   C64       1.0  0.21644140754143146  0.7778861127971697  0.06480480244866255  1.0000
  C   C65       1.0  0.8407685733260877  0.2883466110277837  0.930240870397917  1.0000
  C   C66       1.0  0.783773810250878  0.22366192574773447  0.9318999983848572  1.0000
  C   C67       1.0  0.7033329593627469  0.1979122879268118  0.9944730233510911  1.0000
  C   C68       1.0  0.6635926014169085  0.2726317038491928  0.9910523597070695  1.0000
  C   C69       1.0  0.7207774209388589  0.3353715377481521  0.9914833278374576  1.0000
  C   C70       1.0  0.8006300313294189  0.30471031436405843  0.9931441390860345  1.0000
  C   C71       1.0  0.7813601507768411  0.22630939310005976  0.05659126034775846  1.0000
  C   C72       1.0  0.7222410696692236  0.1637918691518223  0.05818200754800525  1.0000
  Cl  Cl1       1.0  0.22219344605462513  0.8632759515417662  0.24720019865545587  1.0000
  Cl  Cl2       1.0  0.2920429283998515  0.6359778257375057  0.7406653720608815  1.0000
  Cl  Cl3       1.0  0.639663593351429  0.2859701139541216  0.7379410191137907  1.0000
  Cl  Cl4       1.0  0.8608080219783288  0.21558159269567778  0.256539534535051  1.0000
  O   O1        1.0  0.0004959856701987333  0.5032608542348315  0.9934519218167923  1.0000
  O   O2        1.0  0.16859821906705014  0.6125346735517284  0.9579168340839317  1.0000
  O   O3        1.0  0.9103834987636786  0.4823113347871982  0.1479683145194102  1.0000
  O   O4        1.0  0.07177278131506878  0.3340078704495042  0.031161047040221455  1.0000
  O   O5        1.0  0.06660171603137144  0.6140121398406964  0.04866618498984817  1.0000
  O   O6        1.0  0.17478815040729495  0.43950830258127377  0.967387542171423  1.0000
  O   O7        1.0  0.9408145533840295  0.36502720822834794  0.14459458263117853  1.0000
  O   O8        1.0  0.8935319037227102  0.34093625701067515  0.03323103751409213  1.0000
  O   O9        1.0  0.0172931272281787  0.5841391948097651  0.8372991732071497  1.0000
  O   O10       1.0  0.872021765457532  0.4379368429761713  0.9465591019471304  1.0000
  O   O11       1.0  0.1388917465189365  0.5676429508241513  0.8476585963108505  1.0000
  O   O12       1.0  0.899748252938785  0.6346785765579953  0.027521202124852106  1.0000
  O   O13       1.0  0.8695233358477948  0.6073179047573875  0.951030791210975  1.0000
  O   O14       1.0  0.5024800283877298  0.0011511056583372993  0.9944046086231354  1.0000
  O   O15       1.0  0.33032768676158497  0.0716618199724905  0.023742286798523107  1.0000
  O   O16       1.0  0.5510743588311299  0.13614085103107948  0.844826984239333  1.0000
  O   O17       1.0  0.4254955568546848  0.8846073813304047  0.9497519323063982  1.0000
  O   O18       1.0  0.4398111373581273  0.17067294661938356  0.9660385297692218  1.0000
  O   O19       1.0  0.3324686228094719  0.8916736733395751  0.04224433784355601  1.0000
  O   O20       1.0  0.5813227469921997  0.019690551750038303  0.8396247872138148  1.0000
  O   O21       1.0  0.599743092879855  0.8720528432436012  0.9570156917600273  1.0000
  O   O22       1.0  0.49289586724426476  0.9127929362178975  0.1482434091212283  1.0000
  O   O23       1.0  0.6402554617847755  0.8982710092120882  0.02949430484695618  1.0000
  O   O24       1.0  0.37392874198431514  0.9505012198102636  0.14147760413148794  1.0000
  O   O25       1.0  0.6239600182247215  0.16301071618876511  0.9434624033739284  1.0000
  O   O26       1.0  0.6277153331452965  0.06694578689771902  0.03947173045834515  1.0000
