data_image0
_chemical_formula_structural       Cd4H32C32N24O24
_chemical_formula_sum              "Cd4 H32 C32 N24 O24"
_cell_length_a       10.669727583525983
_cell_length_b       10.669041792258719
_cell_length_c       13.9603
_cell_angle_alpha    112.42915756475017
_cell_angle_beta     112.42763749853167
_cell_angle_gamma    90.01599397191507

_space_group_name_H-M_alt    "P 1"
_space_group_IT_number       1

loop_
  _space_group_symop_operation_xyz
  'x, y, z'

loop_
  _atom_site_type_symbol
  _atom_site_label
  _atom_site_symmetry_multiplicity
  _atom_site_fract_x
  _atom_site_fract_y
  _atom_site_fract_z
  _atom_site_occupancy
  Cd  Cd1       1.0  0.6237202903388237  0.3737239918778883  0.2475026685323769  1.0000
  Cd  Cd2       1.0  0.8737366555349056  0.1237400635192287  0.7474927862105859  1.0000
  Cd  Cd3       1.0  0.37627950282751504  0.6262755257827453  0.7524964141951147  1.0000
  Cd  Cd4       1.0  0.12626313763144026  0.8762594541414046  0.25250701283388827  1.0000
  H   H1        1.0  0.9558384656435666  0.37462651294563193  0.3976856175525328  1.0000
  H   H2        1.0  0.022986950678735206  0.45587193284995925  0.8977299116572086  1.0000
  H   H3        1.0  0.8746326880347084  0.9417833069398114  0.8976934005961823  1.0000
  H   H4        1.0  0.4418478816602515  0.5230104442062711  0.397781184189931  1.0000
  H   H5        1.0  0.04416251708809681  0.625374033815426  0.6023148284312827  1.0000
  H   H6        1.0  0.9770140320529277  0.5441286139110986  0.10227053432659955  1.0000
  H   H7        1.0  0.1253674564183456  0.0582182689216637  0.1023078173462224  1.0000
  H   H8        1.0  0.5581519115060871  0.47698907345436237  0.602218614854543  1.0000
  H   H9        1.0  0.1222078169412555  0.2077239196393634  0.3998112412917578  1.0000
  H   H10       1.0  0.1920654122297023  0.6222496849423749  0.8998382633740647  1.0000
  H   H11       1.0  0.7077231879858061  0.7774977159998643  0.8998575677694519  1.0000
  H   H12       1.0  0.2775330408245296  0.6920463626817863  0.3998977556619892  1.0000
  H   H13       1.0  0.8777921518684408  0.7922766271216943  0.6001889090431902  1.0000
  H   H14       1.0  0.8079337183013848  0.3777518909191002  0.10016194260249024  1.0000
  H   H15       1.0  0.29227779474585697  0.2225028307611865  0.10014287821435629  1.0000
  H   H16       1.0  0.7224669279851668  0.3079541840792643  0.6001016783559764  1.0000
  H   H17       1.0  0.8027141344203627  0.8879551804069551  0.1467837591695514  1.0000
  H   H18       1.0  0.258912995951313  0.3027088592420029  0.6467189133033743  1.0000
  H   H19       1.0  0.3879316482215458  0.8441124152427477  0.646766256315587  1.0000
  H   H20       1.0  0.34407889600611696  0.7588967259206926  0.14668204048529532  1.0000
  H   H21       1.0  0.1972868483113075  0.11204536635409572  0.8532166868142569  1.0000
  H   H22       1.0  0.7410869728583832  0.6972916875190479  0.35328123703157394  1.0000
  H   H23       1.0  0.6120691588667667  0.1558871024178856  0.35323383837774713  1.0000
  H   H24       1.0  0.6559210728035794  0.2411038208403653  0.8533181098496457  1.0000
  H   H25       1.0  0.6376813305312581  0.05467404707753331  0.14320492587893344  1.0000
  H   H26       1.0  0.08855477757163038  0.1376607048913456  0.6431774180407999  1.0000
  H   H27       1.0  0.5546768489057214  0.0055941898794103  0.6431517453641149  1.0000
  H   H28       1.0  0.5055630540094853  0.5885312097034117  0.14309521764858607  1.0000
  H   H29       1.0  0.3623194765570474  0.9453254705831  0.8567958851313906  1.0000
  H   H30       1.0  0.9114462051600396  0.862339841869705  0.35682302794300813  1.0000
  H   H31       1.0  0.44532294426061714  0.994405327781223  0.3568473373633766  1.0000
  H   H32       1.0  0.4944377530788202  0.4114683079572218  0.8569041607277725  1.0000
  C   C1        1.0  0.9212658576464889  0.2659318975568326  0.3414336527268206  1.0000
  C   C2        1.0  0.0754524146591322  0.42129210056003075  0.8414335995279316  1.0000
  C   C3        1.0  0.7659270816672148  0.9201001611047772  0.8414216704849409  1.0000
  C   C4        1.0  0.4201335552638099  0.57547089628185  0.34146487903523604  1.0000
  C   C5        1.0  0.0787339355198498  0.7340676201038008  0.6585661463176536  1.0000
  C   C6        1.0  0.9245473785072065  0.5787074171006026  0.15856548319955985  1.0000
  C   C7        1.0  0.2340730627858392  0.07990141475669792  0.1585788311404812  1.0000
  C   C8        1.0  0.5798662379025288  0.4245286213787836  0.6585349200092382  1.0000
  C   C9        1.0  0.013628877586477002  0.173279928604785  0.34288768899254063  1.0000
  C   C10       1.0  0.1696000228362351  0.5136559213946655  0.8428846723051893  1.0000
  C   C11       1.0  0.6732540161432398  0.8291935464638912  0.8429056490129696  1.0000
  C   C12       1.0  0.329212650692476  0.6695790423272356  0.34292002141665995  1.0000
  C   C13       1.0  0.9863719295018355  0.8267195890558483  0.6571124057007935  1.0000
  C   C14       1.0  0.8304007842520775  0.48634359626596796  0.15711542238815207  1.0000
  C   C15       1.0  0.3267459526664567  0.17080700029715962  0.1570945013219784  1.0000
  C   C16       1.0  0.6707873181172204  0.3304215044338221  0.6570801289182883  1.0000
  C   C17       1.0  0.8376049146477343  0.9967496185364269  0.20295918707832067  1.0000
  C   C18       1.0  0.2062356312822473  0.3376035962602444  0.7029019969181577  1.0000
  C   C19       1.0  0.4967266699873747  0.8653808336087965  0.70296032049464  1.0000
  C   C20       1.0  0.3653514152547714  0.7062417738658624  0.2028958980196407  1.0000
  C   C21       1.0  0.1623948785186045  0.0032498991242065002  0.7970398956491707  1.0000
  C   C22       1.0  0.793764337527449  0.6623969505008134  0.2970981534167905  1.0000
  C   C23       1.0  0.5032731231789641  0.1346186840518442  0.2970401948668169  1.0000
  C   C24       1.0  0.6346483779115673  0.293757743794771  0.7971046173418161  1.0000
  C   C25       1.0  0.7458955929503759  0.0890130698693383  0.20110254228229957  1.0000
  C   C26       1.0  0.11209375746514638  0.24589119599102827  0.7010773694268906  1.0000
  C   C27       1.0  0.589019064335524  0.9552511441274235  0.701088238134922  1.0000
  C   C28       1.0  0.45520229675310026  0.6121079003099937  0.20103385575021812  1.0000
  C   C29       1.0  0.2541043758593204  0.9109874768917123  0.7988983243696312  1.0000
  C   C30       1.0  0.8879062113445569  0.7541093507700225  0.2989227809080576  1.0000
  C   C31       1.0  0.41098174275278143  0.0447483735332099  0.2989118565584192  1.0000
  C   C32       1.0  0.5447974964132385  0.3878916173506397  0.798965943294256  1.0000
  N   N1        1.0  0.4941356856150278  0.24416951098951503  0.9883219204593134  1.0000
  N   N2        1.0  0.7441814892484402  0.9941140923625511  0.48831589340303344  1.0000
  N   N3        1.0  0.5058642831946685  0.755831035771543  0.01167822987563488  1.0000
  N   N4        1.0  0.255818128274548  0.0058843961976578  0.5116835543509738  1.0000
  N   N5        1.0  0.7532970950354141  0.5032743563645852  0.5066212039087787  1.0000
  N   N6        1.0  0.0032604032209277985  0.2532873407046736  0.006609635000991393  1.0000
  N   N7        1.0  0.24670371205289848  0.49672516129604827  0.4933788907845624  1.0000
  N   N8        1.0  0.9967393899454108  0.7467121769559669  0.9933901640434828  1.0000
  N   N9        1.0  0.7877958584040384  0.2234485740465431  0.27039013703615206  1.0000
  N   N10       1.0  0.0468995807148502  0.2877961650656644  0.7703987453675865  1.0000
  N   N11       1.0  0.7234622838352394  0.9825850803649346  0.7703469376922814  1.0000
  N   N12       1.0  0.4825840464819322  0.5469143887461883  0.2703698017107214  1.0000
  N   N13       1.0  0.21220512432763172  0.7765519727145147  0.7296103089476632  1.0000
  N   N14       1.0  0.9531012263734553  0.7122033525949689  0.22960134932575477  1.0000
  N   N15       1.0  0.2765386988964238  0.017415466396123208  0.22965350829152703  1.0000
  N   N16       1.0  0.517415571041056  0.4530840998140206  0.7296303623602611  1.0000
  N   N17       1.0  0.9715974874777448  0.039110961436186614  0.2737667253055207  1.0000
  N   N18       1.0  0.2346946192290886  0.47161305286384453  0.7737361649174377  1.0000
  N   N19       1.0  0.5390848518788971  0.8021405546408575  0.7738051998656774  1.0000
  N   N20       1.0  0.3021433881978766  0.7346727311503615  0.2737707253159273  1.0000
  N   N21       1.0  0.028402305688594354  0.9608885562244469  0.7262330737389536  1.0000
  N   N22       1.0  0.7653053495806147  0.5283874938972062  0.22626398541751064  1.0000
  N   N23       1.0  0.46091494128744165  0.197858963019776  0.2261945991787968  1.0000
  N   N24       1.0  0.6978565806118198  0.2653278156106893  0.7262294250190209  1.0000
  O   O1        1.0  0.6081325164795075  0.2155450828261749  0.04426364845695469  1.0000
  O   O2        1.0  0.8287137433105016  0.1081358138611108  0.5442698273776045  1.0000
  O   O3        1.0  0.7155428036063824  0.9359647731689833  0.5442541066517208  1.0000
  O   O4        1.0  0.43604081703239234  0.3286854120264309  0.04428142249622617  1.0000
  O   O5        1.0  0.3918672766868383  0.7844544348344584  0.9557354342705368  1.0000
  O   O6        1.0  0.1712862254991947  0.891864732899947  0.45573032295734356  1.0000
  O   O7        1.0  0.2844569895599633  0.06403474449165  0.4557456923927532  1.0000
  O   O8        1.0  0.5639601656992711  0.6713151347346199  0.9557190234875821  1.0000
  O   O9        1.0  0.4409912645745564  0.1909969214237606  0.8818713429538578  1.0000
  O   O10       1.0  0.6910290289747181  0.941031034533289  0.38186543978427784  1.0000
  O   O11       1.0  0.5590085285917823  0.8090025962368657  0.11812845609061641  1.0000
  O   O12       1.0  0.3089709398349783  0.0589695122277689  0.6181347105506703  1.0000
  O   O13       1.0  0.8075741297473514  0.5363918369586643  0.45014567462884264  1.0000
  O   O14       1.0  0.9137064695227224  0.3075363693090267  0.950153126577611  1.0000
  O   O15       1.0  0.036357012789054  0.1425911250003011  0.9501586434958896  1.0000
  O   O16       1.0  0.6426113668375635  0.4137261542771995  0.4502014096232756  1.0000
  O   O17       1.0  0.1924256634189874  0.4636076807019691  0.5498541244156314  1.0000
  O   O18       1.0  0.08629367493033162  0.6924652065524484  0.04984737504781119  1.0000
  O   O19       1.0  0.9636419420986757  0.8574094217607567  0.04984121119019859  1.0000
  O   O20       1.0  0.3573884263287752  0.5862733633834338  0.5497983894211985  1.0000
  O   O21       1.0  0.8062916467355663  0.5562936099678595  0.612787099119018  1.0000
  O   O22       1.0  0.0563468786903485  0.3063580493289066  0.11277579155639471  1.0000
  O   O23       1.0  0.1937079707874219  0.4437048785923565  0.38721234863498927  1.0000
  O   O24       1.0  0.9436530901193478  0.6936424974321512  0.8872243587785535  1.0000
