data_image0
_chemical_formula_structural       Zr12H20C96S24Cl12O64
_chemical_formula_sum              "Zr12 H20 C96 S24 Cl12 O64"
_cell_length_a       16.49672543084707
_cell_length_b       16.49653754818192
_cell_length_c       23.262250872481943
_cell_angle_alpha    89.99823830213896
_cell_angle_beta     89.99893234685142
_cell_angle_gamma    89.98682220573386

_space_group_name_H-M_alt    "P 1"
_space_group_IT_number       1

loop_
  _space_group_symop_operation_xyz
  'x, y, z'

loop_
  _atom_site_type_symbol
  _atom_site_label
  _atom_site_symmetry_multiplicity
  _atom_site_fract_x
  _atom_site_fract_y
  _atom_site_fract_z
  _atom_site_occupancy
  Zr  Zr1       1.0  0.39250050053892943  0.3924055520149352  0.4988095908487082  1.0000
  Zr  Zr2       1.0  0.6072462665433279  0.6072368064667872  0.5011876519184212  1.0000
  Zr  Zr3       1.0  0.4987965062222769  0.4986994217151307  0.6073852832235502  1.0000
  Zr  Zr4       1.0  0.5011187820462126  0.5009186700476959  0.39260379090691794  1.0000
  Zr  Zr5       1.0  0.3922375762214756  0.6069990749606972  0.5000052556977934  1.0000
  Zr  Zr6       1.0  0.6071449324966665  0.39215534462843477  0.49997222056477136  1.0000
  Zr  Zr7       1.0  0.10680165075748958  0.892067045315258  4.263318913900003e-06  1.0000
  Zr  Zr8       1.0  0.8937079384995528  0.10837272629608921  3.771015661869999e-05  1.0000
  Zr  Zr9       1.0  0.1082037634385102  0.10654263653719907  0.0004593115677806999  1.0000
  Zr  Zr10      1.0  0.8918818148664157  0.8934846128533422  0.9995091224859038  1.0000
  Zr  Zr11      1.0  0.9995936467924055  0.9993670958962966  0.10747140680617662  1.0000
  Zr  Zr12      1.0  0.00045437805457739996  0.0003976777666422999  0.8925314209438042  1.0000
  H   H1        1.0  0.33055731191686283  0.49900052720158067  0.5840641137255033  1.0000
  H   H2        1.0  0.5006729885525232  0.6692129393871297  0.4161026350552177  1.0000
  H   H3        1.0  0.6680503376019261  0.4990029151449917  0.5852946682734199  1.0000
  H   H4        1.0  0.5006893928393339  0.3317330585589603  0.4145339287061915  1.0000
  H   H5        1.0  0.16865819250422484  0.9986229389523587  0.08490585419102809  1.0000
  H   H6        1.0  0.8309043897892112  0.0006252655865778999  0.08428099211553079  1.0000
  H   H7        1.0  0.0011851371298306002  0.16911251253831236  0.9157263263091053  1.0000
  H   H8        1.0  0.9994307467751472  0.8313779554872908  0.9150963488871541  1.0000
  H   H9        1.0  0.1089892598255702  0.6282452521744445  0.49690797172724627  1.0000
  H   H10       1.0  0.6285586937070421  0.10888914546308828  0.5023997890607745  1.0000
  H   H11       1.0  0.8693173429184498  0.1309683952480327  0.7397884815519049  1.0000
  H   H12       1.0  0.1262018016447612  0.8644281054303916  0.2601263012142638  1.0000
  H   H13       1.0  0.13624331564904676  0.8745850824538123  0.7398724694156087  1.0000
  H   H14       1.0  0.8699852030686728  0.1315560771308952  0.26009370374978147  1.0000
  H   H15       1.0  0.7422657011351675  0.7377261272925466  0.1310310393756779  1.0000
  H   H16       1.0  0.2622231582970826  0.257149226076514  0.8692065275958143  1.0000
  H   H17       1.0  0.8663339728888957  0.871970305260902  0.739527391867064  1.0000
  H   H18       1.0  0.12789892374395612  0.1333514515531178  0.2606198537479258  1.0000
  H   H19       1.0  0.391797368451968  0.870430651022957  0.9970268535737147  1.0000
  H   H20       1.0  0.8712737865158005  0.6089172778642649  0.0018321438928979  1.0000
  C   C1        1.0  0.22725832566705859  0.5005860872254856  0.496481285392079  1.0000
  C   C2        1.0  0.49764430674338206  0.7721748781252272  0.503577984813937  1.0000
  C   C3        1.0  0.7722504544479563  0.4975585261343766  0.4979090378156172  1.0000
  C   C4        1.0  0.5008827893703512  0.22717471635365877  0.5019273351571201  1.0000
  C   C5        1.0  0.3646849599640731  0.35941837347971267  0.6346065586104714  1.0000
  C   C6        1.0  0.3624045273634523  0.3676739583303359  0.3622540752344463  1.0000
  C   C7        1.0  0.6405604500775509  0.6351392509678959  0.36560779310757135  1.0000
  C   C8        1.0  0.6322024019726912  0.6375210698047552  0.6375316392758847  1.0000
  C   C9        1.0  0.36614666121054995  0.6367539264072518  0.6371956094152651  1.0000
  C   C10       1.0  0.6312061722521136  0.3605921671661035  0.6372411544447516  1.0000
  C   C11       1.0  0.6390260181993951  0.3682847006959377  0.36268718657662197  1.0000
  C   C12       1.0  0.36301225501289036  0.633506631076017  0.362858930679522  1.0000
  C   C13       1.0  0.13207584943162942  0.8606322497545164  0.13681751345363577  1.0000
  C   C14       1.0  0.8677103332187743  0.13853796469476257  0.1368213911672598  1.0000
  C   C15       1.0  0.8626238783593932  0.13354711974009348  0.8631101851339691  1.0000
  C   C16       1.0  0.1382715272367534  0.867102511755405  0.8631619845874071  1.0000
  C   C17       1.0  0.2727463551784269  0.9978365140127534  0.9977093273947659  1.0000
  C   C18       1.0  0.9986193502485888  0.7275687392719589  0.0023135400261792994  1.0000
  C   C19       1.0  0.7277504467496598  0.003068195263672599  0.9969186447282182  1.0000
  C   C20       1.0  0.0029091994253960004  0.2725507360262326  0.0030671222943255  1.0000
  C   C21       1.0  0.1328828178516162  0.1372700459852894  0.1372344665193665  1.0000
  C   C22       1.0  0.14011382349696078  0.13336526759471207  0.8643833546163859  1.0000
  C   C23       1.0  0.8613094770850936  0.8679456330082402  0.862894725568992  1.0000
  C   C24       1.0  0.8654323219568667  0.8606146307299555  0.13557135338273696  1.0000
  C   C25       1.0  0.914368788059008  0.4305899581491843  0.497644427626625  1.0000
  C   C26       1.0  0.0866780244374041  0.5662093420131312  0.49701199638823806  1.0000
  C   C27       1.0  0.8612276543158401  0.4963365365235218  0.4973856982344103  1.0000
  C   C28       1.0  0.1381285928005482  0.4998828472094914  0.49675015814173656  1.0000
  C   C29       1.0  0.0048192065237487  0.5411062056690171  0.4973133343451224  1.0000
  C   C30       1.0  0.9962020992104927  0.4560822659556081  0.4975361020420266  1.0000
  C   C31       1.0  0.4308013692251933  0.9143457468921383  0.5028077917512448  1.0000
  C   C32       1.0  0.5665295533144458  0.08657825899105379  0.5025019229458747  1.0000
  C   C33       1.0  0.4964920328180185  0.8611452020179867  0.5033087456561987  1.0000
  C   C34       1.0  0.5002207782699131  0.13804819869763205  0.5024790205010915  1.0000
  C   C35       1.0  0.5413885198675248  0.004722150607321399  0.5026341326150073  1.0000
  C   C36       1.0  0.4563564316018258  0.9961514967305612  0.5025491947549198  1.0000
  C   C37       1.0  0.6681693735469593  0.3219624653973341  0.7418799598517435  1.0000
  C   C38       1.0  0.8258668134189194  0.17172819062650288  0.7598156212766864  1.0000
  C   C39       1.0  0.675405473749528  0.31684544550097377  0.6823001781186304  1.0000
  C   C40       1.0  0.817132740410628  0.1777710428530241  0.8188571919637653  1.0000
  C   C41       1.0  0.7717660961526249  0.22469763528926018  0.7314797937907187  1.0000
  C   C42       1.0  0.7232047646783571  0.2695209089253651  0.7699260351002621  1.0000
  C   C43       1.0  0.3272364233502216  0.6733364469274717  0.2582802868593319  1.0000
  C   C44       1.0  0.16952930039612116  0.823451307310478  0.24017783301214726  1.0000
  C   C45       1.0  0.3193117725515222  0.6778388719487011  0.31784116552797304  1.0000
  C   C46       1.0  0.17746332643269372  0.8164356155431207  0.18114057764204006  1.0000
  C   C47       1.0  0.22409549407785792  0.7710855703498749  0.268601346196867  1.0000
  C   C48       1.0  0.272551976166092  0.7260834822641724  0.23020755311199537  1.0000
  C   C49       1.0  0.32634727494829  0.6726159554236801  0.7417859628856931  1.0000
  C   C50       1.0  0.17681796315867618  0.830881737276371  0.7598277561816289  1.0000
  C   C51       1.0  0.3222698923667338  0.6808927432184928  0.68223577076985  1.0000
  C   C52       1.0  0.1830212708174201  0.8222379721943653  0.818863370087456  1.0000
  C   C53       1.0  0.22929196791097445  0.7763788018207196  0.7314438215482612  1.0000
  C   C54       1.0  0.2736580521801173  0.7273607913456741  0.769846625768409  1.0000
  C   C55       1.0  0.6775877073973577  0.331350469508905  0.2580130269734511  1.0000
  C   C56       1.0  0.8288547572106424  0.1746629990112963  0.2400619087367559  1.0000
  C   C57       1.0  0.682953082152082  0.32430773143858005  0.3175902787571232  1.0000
  C   C58       1.0  0.8227811633128256  0.18338434116439828  0.18102887234287116  1.0000
  C   C59       1.0  0.7755600694854364  0.22842405605613442  0.2683929820559284  1.0000
  C   C60       1.0  0.7303248188283078  0.2766019908723365  0.22995623272823448  1.0000
  C   C61       1.0  0.7447150219765888  0.739722745901609  0.32772692694232564  1.0000
  C   C62       1.0  0.7624632695775375  0.7575331369259786  0.1732596077132911  1.0000
  C   C63       1.0  0.6855920427286506  0.6800692753118582  0.3215411614741726  1.0000
  C   C64       1.0  0.8215730199800151  0.8161354562084924  0.1805493195494847  1.0000
  C   C65       1.0  0.7341668864342807  0.7293954191045913  0.226985360492975  1.0000
  C   C66       1.0  0.7725349636565753  0.7677362541254806  0.2738047232464069  1.0000
  C   C67       1.0  0.2601526826930113  0.2553132047498323  0.6724594797494561  1.0000
  C   C68       1.0  0.24243296692145583  0.2371445536527616  0.8269169155493898  1.0000
  C   C69       1.0  0.3197491446281617  0.3144786384684295  0.6787041411209528  1.0000
  C   C70       1.0  0.1840458666598934  0.17784018873306445  0.8194866355039777  1.0000
  C   C71       1.0  0.2704116573287436  0.26574725328387677  0.7732281295099668  1.0000
  C   C72       1.0  0.2321496600237651  0.2274270175060025  0.7263584697091827  1.0000
  C   C73       1.0  0.6710105393219266  0.6751210956430285  0.742011807529863  1.0000
  C   C74       1.0  0.8243484271285624  0.8297470626911547  0.7595928550827508  1.0000
  C   C75       1.0  0.6765007203828548  0.6815733711447292  0.6824237399657918  1.0000
  C   C76       1.0  0.8167033335751483  0.8228240379965184  0.8186586374805882  1.0000
  C   C77       1.0  0.7711644248243134  0.7758224535013339  0.731321416887937  1.0000
  C   C78       1.0  0.7247740605811117  0.7290044262703075  0.7698615288889383  1.0000
  C   C79       1.0  0.32460037013712645  0.3288129455613599  0.2578134632533846  1.0000
  C   C80       1.0  0.17010211776223375  0.175323101783853  0.240524300181292  1.0000
  C   C81       1.0  0.3181832068661877  0.3235034404034636  0.3174148507050845  1.0000
  C   C82       1.0  0.1773276999572104  0.1825450256614118  0.18144175197348028  1.0000
  C   C83       1.0  0.22388933048802784  0.22873177759380067  0.26870933390951274  1.0000
  C   C84       1.0  0.2707119698072448  0.27496963566950683  0.23006003565845387  1.0000
  C   C85       1.0  0.585286063530873  0.06930573315771228  0.9975349082186966  1.0000
  C   C86       1.0  0.4136994107600104  0.93261754294263  0.99721171009719  1.0000
  C   C87       1.0  0.638795122307144  0.0038913226242839995  0.9968771249940147  1.0000
  C   C88       1.0  0.3618821377388813  0.9986488678703791  0.9974056330127895  1.0000
  C   C89       1.0  0.49542784110045096  0.9581941198495939  0.9972495438374619  1.0000
  C   C90       1.0  0.5036104214456216  0.0432739000291491  0.9976449583048534  1.0000
  C   C91       1.0  0.06949332962086881  0.4148190003286415  0.0029231977715582997  1.0000
  C   C92       1.0  0.933372893669926  0.5867836676650524  0.0022227235297052  1.0000
  C   C93       1.0  0.0038906793396194014  0.3615171716875663  0.0030721324467890996  1.0000
  C   C94       1.0  0.9995194730221897  0.6384220434210022  0.0025969689939558  1.0000
  C   C95       1.0  0.9587115692885746  0.5049866176038832  0.0023219109527517  1.0000
  C   C96       1.0  0.0437667057713398  0.4965766978848831  0.0025811307129614994  1.0000
  S   S1        1.0  0.9118694707361713  0.5890562378557217  0.4971392706964579  1.0000
  S   S2        1.0  0.08808873747246793  0.40693878320083593  0.4971857316701999  1.0000
  S   S3        1.0  0.5892476573742087  0.9117312185385416  0.5031325704446061  1.0000
  S   S4        1.0  0.4072650454595959  0.088074458018859  0.5025055916181103  1.0000
  S   S5        1.0  0.7495556620457506  0.24785440640647485  0.6609306245085591  1.0000
  S   S6        1.0  0.7438099333712316  0.24720995257325024  0.8405620419771579  1.0000
  S   S7        1.0  0.24587133587694146  0.7475851405145802  0.33915997974801826  1.0000
  S   S8        1.0  0.2509819116343124  0.7471433784002385  0.1595483534436895  1.0000
  S   S9        1.0  0.2533594634654008  0.7551057773404608  0.6609034285280087  1.0000
  S   S10       1.0  0.2517455773829269  0.7482080219005738  0.8404957685093919  1.0000
  S   S11       1.0  0.7526672220166972  0.2508299100999025  0.3389522689312868  1.0000
  S   S12       1.0  0.7526918915932727  0.2560814430344677  0.1593186899400862  1.0000
  S   S13       1.0  0.6640741390735202  0.6588312219375538  0.2497509906996669  1.0000
  S   S14       1.0  0.8432133169088374  0.8378711790154938  0.2521817175400614  1.0000
  S   S15       1.0  0.34090027843031834  0.33597800037878056  0.7505222537677552  1.0000
  S   S16       1.0  0.16218608504982512  0.1565166992483711  0.7478366092764119  1.0000
  S   S17       1.0  0.7479754206849804  0.753224279662099  0.6608260746447883  1.0000
  S   S18       1.0  0.7457420781363596  0.7510675895403125  0.8404574847379107  1.0000
  S   S19       1.0  0.24649873281440193  0.2521417044034635  0.3391646921074383  1.0000
  S   S20       1.0  0.2489946435829111  0.2535036529181766  0.15949459984449987  1.0000
  S   S21       1.0  0.5886578585062808  0.9108365082232409  0.9965779551668275  1.0000
  S   S22       1.0  0.4114495718385599  0.09185650364301517  0.9978707391493841  1.0000
  S   S23       1.0  0.9110085534927634  0.4119549972903371  0.0025932546878948  1.0000
  S   S24       1.0  0.092619150372677  0.5885934159672813  0.0028656265688979995  1.0000
  Cl  Cl1       1.0  0.888690975670393  0.3302857878964787  0.4982432695674745  1.0000
  Cl  Cl2       1.0  0.3304595478703476  0.8888022323620602  0.502459282951186  1.0000
  Cl  Cl3       1.0  0.6024526258372661  0.381733895952614  0.7794921829028425  1.0000
  Cl  Cl4       1.0  0.39343987922002555  0.6140377856598249  0.22072737868635528  1.0000
  Cl  Cl5       1.0  0.38495460968417927  0.605773191458098  0.7793200792853625  1.0000
  Cl  Cl6       1.0  0.6172535486085663  0.3965870353953491  0.22042778480594188  1.0000
  Cl  Cl7       1.0  0.7818057477210728  0.7774141590100712  0.3908340676309407  1.0000
  Cl  Cl8       1.0  0.22251391193932332  0.21811892818116968  0.609375550846714  1.0000
  Cl  Cl9       1.0  0.6092366119602914  0.6117316771291003  0.7798506470870875  1.0000
  Cl  Cl10      1.0  0.3879305646132424  0.3904721279935969  0.21983664055567692  1.0000
  Cl  Cl11      1.0  0.6105419539083385  0.16964205227925794  0.9982519346315754  1.0000
  Cl  Cl12      1.0  0.1698016307888111  0.38923664101616845  0.0031428880680124  1.0000
  O   O1        1.0  0.2624029649001616  0.43132569974565627  0.4962213129506239  1.0000
  O   O2        1.0  0.567611786750504  0.7382712322959933  0.5037029758093752  1.0000
  O   O3        1.0  0.738406590077368  0.5675067699383545  0.4989926455034279  1.0000
  O   O4        1.0  0.43161108299810286  0.262233088065166  0.5009395551360639  1.0000
  O   O5        1.0  0.4158609800136475  0.4118588690046819  0.6528944707792732  1.0000
  O   O6        1.0  0.4149588723966318  0.4196809817383737  0.3463660121854701  1.0000
  O   O7        1.0  0.5882331469109446  0.5839749152060493  0.34722315134331433  1.0000
  O   O8        1.0  0.5801281978346465  0.5851133002382908  0.6534579629107711  1.0000
  O   O9        1.0  0.34804408130482056  0.6546723751474417  0.5851111497707464  1.0000
  O   O10       1.0  0.6500385948825524  0.34341173138246  0.5851611321221597  1.0000
  O   O11       1.0  0.6557957692765229  0.3489533822605963  0.4147312625660078  1.0000
  O   O12       1.0  0.3444798625389254  0.6509404184347289  0.4149595823552302  1.0000
  O   O13       1.0  0.5787241072084656  0.4127251678355108  0.653293978911897  1.0000
  O   O14       1.0  0.5871807647450851  0.4210954124432077  0.3466777534171044  1.0000
  O   O15       1.0  0.416145272203579  0.5821312919854832  0.3467269950564429  1.0000
  O   O16       1.0  0.4177797612924366  0.583846246975277  0.6533017683680242  1.0000
  O   O17       1.0  0.3487915377281183  0.3437258885361913  0.5820461537664983  1.0000
  O   O18       1.0  0.6507919716059265  0.6552801163909762  0.5853987798939143  1.0000
  O   O19       1.0  0.6561368129586781  0.6510621233331617  0.41818754220630433  1.0000
  O   O20       1.0  0.34472857171851956  0.34905159534936553  0.41438177941550697  1.0000
  O   O21       1.0  0.5700779667168305  0.2620710586399042  0.5017209786363637  1.0000
  O   O22       1.0  0.2621287951618498  0.5697832503442156  0.49724201349378916  1.0000
  O   O23       1.0  0.42931797013347517  0.7357726827386273  0.5029576910584197  1.0000
  O   O24       1.0  0.7358262338595838  0.42922352348251985  0.4979715329444616  1.0000
  O   O25       1.0  0.5005393366893287  0.3793910503098701  0.43892441220653916  1.0000
  O   O26       1.0  0.6202411242026145  0.49923806011454985  0.5610479889678501  1.0000
  O   O27       1.0  0.5004072502454519  0.621182386785328  0.4401279377602663  1.0000
  O   O28       1.0  0.3784319282596017  0.4993040791051371  0.5598821109590658  1.0000
  O   O29       1.0  0.4994513403672374  0.5884291853312861  0.5448254042223651  1.0000
  O   O30       1.0  0.4112281266378162  0.5001839032468992  0.4550837600526733  1.0000
  O   O31       1.0  0.5893416425055733  0.5002118973181382  0.4560549134431184  1.0000
  O   O32       1.0  0.49947547611413506  0.41028272420756906  0.5440145041896827  1.0000
  O   O33       1.0  0.1493988617673949  0.8436526412083224  0.0844748420549806  1.0000
  O   O34       1.0  0.8513372128025624  0.15626648368192514  0.0844557794645553  1.0000
  O   O35       1.0  0.8461979200262064  0.1513419477683513  0.9154519813640647  1.0000
  O   O36       1.0  0.1546828508226525  0.8492551757437922  0.9155189997418276  1.0000
  O   O37       1.0  0.23780641369005912  0.06728281339263727  0.998391518103233  1.0000
  O   O38       1.0  0.9295634393921902  0.7626367788181909  0.0016288245125509  1.0000
  O   O39       1.0  0.7615987201146269  0.9329721695148052  0.9971211640428873  1.0000
  O   O40       1.0  0.0710590619474871  0.2358873288840186  0.0030580341007464995  1.0000
  O   O41       1.0  0.08108016147082252  0.08492526508537418  0.1542879355788216  1.0000
  O   O42       1.0  0.0873773820591808  0.0817960240018891  0.8470196876605127  1.0000
  O   O43       1.0  0.9139790822327782  0.9193355688255949  0.8458214867084806  1.0000
  O   O44       1.0  0.9173818559555186  0.9129210894790345  0.15292126131413394  1.0000
  O   O45       1.0  0.1571079436237568  0.15019484126840865  0.9166123007544726  1.0000
  O   O46       1.0  0.8439806861144846  0.8508380887989658  0.9152446587730407  1.0000
  O   O47       1.0  0.8476112854099042  0.8445307633342124  0.0833338069746716  1.0000
  O   O48       1.0  0.1510033668192534  0.15362764394131287  0.0849266645963453  1.0000
  O   O49       1.0  0.2375588159136157  0.9288491064080374  0.9979940697614038  1.0000
  O   O50       1.0  0.9328206841808039  0.23872280916540933  0.0023096120110323998  1.0000
  O   O51       1.0  0.7643444083395609  0.0712443438539694  0.9974919442286135  1.0000
  O   O52       1.0  0.06802215087794392  0.7625873196178359  0.0020333089022202  1.0000
  O   O53       1.0  0.08618997091440411  0.919099164106349  0.8460241245691762  1.0000
  O   O54       1.0  0.0801963054035824  0.9128482065385483  0.1539351480746305  1.0000
  O   O55       1.0  0.9184063113100366  0.0852169496376121  0.154037943941546  1.0000
  O   O56       1.0  0.9152113591074311  0.08205668981183578  0.8459237564672646  1.0000
  O   O57       1.0  0.9994758457924963  0.8793766092396139  0.9391583981026699  1.0000
  O   O58       1.0  0.0010685279141072004  0.12101405106079709  0.9396892959955988  1.0000
  O   O59       1.0  0.8790251695878551  0.0004335287617322999  0.0603362875339499  1.0000
  O   O60       1.0  0.1206834968056469  0.9987956620884404  0.0608268303330703  1.0000
  O   O61       1.0  0.0005220815567384003  0.08863335889184039  0.044756490449849196  1.0000
  O   O62       1.0  0.999240927297059  0.9106668176040457  0.0442682917257216  1.0000
  O   O63       1.0  0.9112828042202993  0.0007808213540841  0.9553362948098609  1.0000
  O   O64       1.0  0.089267239628839  0.9995333908178663  0.9556445760523214  1.0000
