data_image0
_chemical_formula_structural       Ag2Sb4H36C48S12N2O6
_chemical_formula_sum              "Ag2 Sb4 H36 C48 S12 N2 O6"
_cell_length_a       8.651471652388725
_cell_length_b       13.323773912091584
_cell_length_c       14.634607848317108
_cell_angle_alpha    117.09110185746164
_cell_angle_beta     93.67809447787265
_cell_angle_gamma    90.00721209321784

_space_group_name_H-M_alt    "P 1"
_space_group_IT_number       1

loop_
  _space_group_symop_operation_xyz
  'x, y, z'

loop_
  _atom_site_type_symbol
  _atom_site_label
  _atom_site_symmetry_multiplicity
  _atom_site_fract_x
  _atom_site_fract_y
  _atom_site_fract_z
  _atom_site_occupancy
  Ag  Ag1       1.0  0.1448129153416176  0.9520696720183395  0.09575891939553569  1.0000
  Ag  Ag2       1.0  0.6447163778355504  0.1436843472099554  0.09578264035665282  1.0000
  Sb  Sb1       1.0  0.17316761857669857  0.9378708156581934  0.27261763017585133  1.0000
  Sb  Sb2       1.0  0.6733422749748074  0.33475359674692834  0.27259102569512095  1.0000
  Sb  Sb3       1.0  0.21903001540628256  0.7806627850985635  0.9211586784810919  1.0000
  Sb  Sb4       1.0  0.7187408757089103  0.14046246843896878  0.9211511358901562  1.0000
  H   H1        1.0  0.9785141241891254  0.1656586352560367  0.321854273088654  1.0000
  H   H2        1.0  0.47863086277429545  0.1560578154182721  0.3215032439626172  1.0000
  H   H3        1.0  0.847808495450096  0.29760676942500197  0.4911431979779267  1.0000
  H   H4        1.0  0.3482744933402131  0.1930738542534769  0.49083783204672227  1.0000
  H   H5        1.0  0.8965781984251536  0.22845848932408325  0.6349572677061915  1.0000
  H   H6        1.0  0.39672402174954874  0.40610154883695776  0.6347020286410371  1.0000
  H   H7        1.0  0.5384818620375428  0.9144566806507296  0.22112999220845342  1.0000
  H   H8        1.0  0.0387370964631799  0.306808861135444  0.22146678852927693  1.0000
  H   H9        1.0  0.7813515677398899  0.9155682934312568  0.3390101766457364  1.0000
  H   H10       1.0  0.28143040925954216  0.4237338468094194  0.3394687718942678  1.0000
  H   H11       1.0  0.7025954977679943  0.9557021548814433  0.5248832670821316  1.0000
  H   H12       1.0  0.20250267994479285  0.5695166767394966  0.5253207369305387  1.0000
  H   H13       1.0  0.9913951002223982  0.7010107458436889  0.10678536424425283  1.0000
  H   H14       1.0  0.4923150388879378  0.4057459486096845  0.10633688212919168  1.0000
  H   H15       1.0  0.8734018349916753  0.5416720995834653  0.1450764756139975  1.0000
  H   H16       1.0  0.37398007309303694  0.6032306813872452  0.14466099473040123  1.0000
  H   H17       1.0  0.9273140705536775  0.5901225279081572  0.34054294285957104  1.0000
  H   H18       1.0  0.42684030379775356  0.7501441415164791  0.34031276638833674  1.0000
  H   H19       1.0  0.5450931128294983  0.7889701057647827  0.05522836831580946  1.0000
  H   H20       1.0  0.0446603829137828  0.2670428980908  0.055654203092984716  1.0000
  H   H21       1.0  0.6925488316823732  0.6178775963961414  0.05781151492007552  1.0000
  H   H22       1.0  0.19146699921434157  0.4408413388621709  0.057921843567633906  1.0000
  H   H23       1.0  0.5576977645878357  0.4218967868999071  0.9216582264956016  1.0000
  H   H24       1.0  0.0565311190776896  0.49977281786879507  0.9212816709691156  1.0000
  H   H25       1.0  0.8530065363271291  0.7333117584290106  0.9440492655159645  1.0000
  H   H26       1.0  0.3527081089611386  0.21057261359978696  0.9440264079055894  1.0000
  H   H27       1.0  0.6638200708037019  0.5697217448321509  0.8099333953005186  1.0000
  H   H28       1.0  0.16344347643280344  0.24003513206717736  0.810013603872541  1.0000
  H   H29       1.0  0.8069112636630822  0.4327100019405208  0.6466392031086273  1.0000
  H   H30       1.0  0.30650726965127006  0.2138489642051553  0.6466962247031134  1.0000
  H   H31       1.0  0.22290905273781186  0.972854178866676  0.8360873267352035  1.0000
  H   H32       1.0  0.722993886603362  0.8630755568063435  0.8361316107085487  1.0000
  H   H33       1.0  0.3537300126128073  0.9584401885525151  0.6729954932410962  1.0000
  H   H34       1.0  0.8541678061005628  0.7144941852012252  0.6731701972245077  1.0000
  H   H35       1.0  0.49652744734444815  0.7647226327443518  0.5789233845630264  1.0000
  H   H36       1.0  0.9966676296247384  0.8142317859281148  0.579136447532811  1.0000
  C   C1        1.0  0.05712162861786401  0.06354394428902307  0.3962316263495184  1.0000
  C   C2        1.0  0.5569325773037691  0.3326652078474409  0.3960206616365626  1.0000
  C   C3        1.0  0.9824997302563718  0.1523772479102661  0.3900972811769492  1.0000
  C   C4        1.0  0.4825369187959012  0.23755551724521948  0.3898052494788545  1.0000
  C   C5        1.0  0.9132198645039651  0.22434761119586  0.4822013734922805  1.0000
  C   C6        1.0  0.41350587408319234  0.2574987018815449  0.48192190332196116  1.0000
  C   C7        1.0  0.936298709603314  0.19022613687754134  0.5576526381711489  1.0000
  C   C8        1.0  0.4365378693970001  0.3670773843897663  0.5574319657952886  1.0000
  C   C9        1.0  0.3949431935460836  0.9446021120305588  0.3478820868373235  1.0000
  C   C10       1.0  0.8950226487050088  0.4033476604163653  0.3481361964832602  1.0000
  C   C11       1.0  0.5318865574587478  0.9267630628929379  0.2995534430103389  1.0000
  C   C12       1.0  0.03204963643872819  0.3729228645009213  0.2999058520562842  1.0000
  C   C13       1.0  0.6637080528224288  0.9285038535454291  0.3635205728241787  1.0000
  C   C14       1.0  0.16378487724897187  0.4352343815060138  0.36397411397184243  1.0000
  C   C15       1.0  0.6260654544395835  0.9484877811475695  0.4601602228304599  1.0000
  C   C16       1.0  0.12600304157116682  0.511954944734846  0.4605722282626489  1.0000
  C   C17       1.0  0.0758024243333537  0.789043673937087  0.26810060349681925  1.0000
  C   C18       1.0  0.5760734682557641  0.47895064229398804  0.2677957552772839  1.0000
  C   C19       1.0  0.0014661107715951884  0.7020227238676284  0.18169130425253846  1.0000
  C   C20       1.0  0.5019941644206014  0.479580641302725  0.18132817422238653  1.0000
  C   C21       1.0  0.9366010185057547  0.6170607224272189  0.20229441336682896  1.0000
  C   C22       1.0  0.4368639460315436  0.5850484618122634  0.2019434178891616  1.0000
  C   C23       1.0  0.9630747624811561  0.6399465803002896  0.30364927453481977  1.0000
  C   C24       1.0  0.4628140978312843  0.6634670907555033  0.30338285852007374  1.0000
  C   C25       1.0  0.3831602262073588  0.6680942630850311  0.9349958800182137  1.0000
  C   C26       1.0  0.8829430311439169  0.2667854128537996  0.9349573552231335  1.0000
  C   C27       1.0  0.5101050482089989  0.7011059447403056  0.0059576187177939844  1.0000
  C   C28       1.0  0.009641493703739495  0.3052387625811122  0.006094415852430796  1.0000
  C   C29       1.0  0.5902360025229144  0.6084415241571294  0.006917484293346458  1.0000
  C   C30       1.0  0.08935995923100393  0.3989440682867738  0.006947436873048238  1.0000
  C   C31       1.0  0.5223822211719521  0.5061299376539523  0.9376021231645881  1.0000
  C   C32       1.0  0.021449272993926596  0.4315252680682064  0.9373747225119688  1.0000
  C   C33       1.0  0.0352860482335586  0.6605877836047043  0.8384880475312573  1.0000
  C   C34       1.0  0.5349678425320763  0.17783682448148846  0.8384886502222529  1.0000
  C   C35       1.0  0.8869674452195896  0.6674237417864433  0.8708911668443238  1.0000
  C   C36       1.0  0.386635071463914  0.20332752770151793  0.8708807322131735  1.0000
  C   C37       1.0  0.7851349789672496  0.5790996927031172  0.7989165302062489  1.0000
  C   C38       1.0  0.28475932199101095  0.2196437677059038  0.7989382441459868  1.0000
  C   C39       1.0  0.8573578399711154  0.5061141178492647  0.7133994877152788  1.0000
  C   C40       1.0  0.35695752916754486  0.20718830108511804  0.7134350544526313  1.0000
  C   C41       1.0  0.3104229812790463  0.8066792682260624  0.8016364040793533  1.0000
  C   C42       1.0  0.8100233850772866  0.9949080581316634  0.8016186503269579  1.0000
  C   C43       1.0  0.2883021073681817  0.9008639304474073  0.7863102814224945  1.0000
  C   C44       1.0  0.7882814235489664  0.8853846168091125  0.7863802872031942  1.0000
  C   C45       1.0  0.3576293519176446  0.8927371443370758  0.6977237209416886  1.0000
  C   C46       1.0  0.8577667812581565  0.8049360571670263  0.6978421067759442  1.0000
  C   C47       1.0  0.4315901221537501  0.7927531718018559  0.646999449051343  1.0000
  C   C48       1.0  0.9315475459529807  0.8542633152576825  0.6471210480830367  1.0000
  S   S1        1.0  0.04134539501606581  0.06990506678452849  0.5154660225635368  1.0000
  S   S2        1.0  0.5412325385644793  0.4454445219791695  0.5153102278906163  1.0000
  S   S3        1.0  0.43021835764796623  0.9646297775047972  0.47241674785593807  1.0000
  S   S4        1.0  0.9301029361647722  0.5079051546127644  0.47268491063599793  1.0000
  S   S5        1.0  0.06700721775352039  0.7639875484279346  0.37323046680862154  1.0000
  S   S6        1.0  0.566614781284045  0.6090396758610339  0.3729911528540342  1.0000
  S   S7        1.0  0.36288380643055973  0.5228111035720104  0.8707653430201107  1.0000
  S   S8        1.0  0.862382571785787  0.34750779456310715  0.8704529167621402  1.0000
  S   S9        1.0  0.0479653107778404  0.5457961637503956  0.719975953409069  1.0000
  S   S10       1.0  0.5475645737140198  0.1741268693046933  0.7199948455520301  1.0000
  S   S11       1.0  0.4173769906756704  0.709442117608148  0.7076742714096794  1.0000
  S   S12       1.0  0.9170061383703328  0.998235287359698  0.707714646496541  1.0000
  N   N1        1.0  0.7817800472319193  0.945501842037551  0.10885594931247072  1.0000
  N   N2        1.0  0.28159591035078785  0.163474983405095  0.10885079908124602  1.0000
  O   O1        1.0  0.8782230075014609  0.012426383230455  0.09890590300875601  1.0000
  O   O2        1.0  0.3780046120579711  0.0865468379681857  0.09883054765624172  1.0000
  O   O3        1.0  0.6383795263201792  0.9672234816656129  0.10815650144836299  1.0000
  O   O4        1.0  0.13816872792159532  0.1409662587603506  0.10793531020274831  1.0000
  O   O5        1.0  0.8270732342676013  0.8614820407772542  0.11888336199199058  1.0000
  O   O6        1.0  0.32698863101008874  0.2576289938203615  0.1191625497432796  1.0000
