data_image0
_chemical_formula_structural       Zn2H36C40N8O8
_chemical_formula_sum              "Zn2 H36 C40 N8 O8"
_cell_length_a       5.343388840247005
_cell_length_b       8.353911280785805
_cell_length_c       21.491690308052615
_cell_angle_alpha    84.25548268895928
_cell_angle_beta     82.87585742745429
_cell_angle_gamma    71.37843748388475

_space_group_name_H-M_alt    "P 1"
_space_group_IT_number       1

loop_
  _space_group_symop_operation_xyz
  'x, y, z'

loop_
  _atom_site_type_symbol
  _atom_site_label
  _atom_site_symmetry_multiplicity
  _atom_site_fract_x
  _atom_site_fract_y
  _atom_site_fract_z
  _atom_site_occupancy
  Zn  Zn1       1.0  0.41371402222840475  0.7504409151389028  0.25003659079012397  1.0000
  Zn  Zn2       1.0  0.5862705400310022  0.24955971570776112  0.7499636245881475  1.0000
  H   H1        1.0  0.6965352949157195  0.9849561958119113  0.18883543164357505  1.0000
  H   H2        1.0  0.8689653354150199  0.5163076883996707  0.31118707929432765  1.0000
  H   H3        1.0  0.3034727645387891  0.015039376062105703  0.8111646376814504  1.0000
  H   H4        1.0  0.13103284900453369  0.48368914422032105  0.6888164991717998  1.0000
  H   H5        1.0  0.9305356503527168  0.20305209810921815  0.33728353105236386  1.0000
  H   H6        1.0  0.4697046661791974  0.29831122920486314  0.16293688758666033  1.0000
  H   H7        1.0  0.06946287286739747  0.7969434736108668  0.6627147811106369  1.0000
  H   H8        1.0  0.530308897341186  0.7017007956444488  0.8370680448432353  1.0000
  H   H9        1.0  0.9552397184189804  0.16116799548125016  0.22282424789303673  1.0000
  H   H10       1.0  0.33800195007830075  0.34074490932523827  0.27731621560441505  1.0000
  H   H11       1.0  0.04477099365278283  0.8388250463727971  0.7771744864449416  1.0000
  H   H12       1.0  0.662008895974879  0.6592595188449836  0.7226896461404946  1.0000
  H   H13       1.0  0.42514855519743144  0.8853779267949093  0.37274378340011777  1.0000
  H   H14       1.0  0.6820546521732426  0.6147984010912283  0.12723481561569355  1.0000
  H   H15       1.0  0.5748389873870965  0.1146214408735915  0.6272541368846232  1.0000
  H   H16       1.0  0.3179486546412208  0.3851908383286046  0.8727675480607358  1.0000
  H   H17       1.0  0.7626831642198157  0.18170133752645515  0.505766977776524  1.0000
  H   H18       1.0  0.4498472432538067  0.3185620589204632  0.9945102153262507  1.0000
  H   H19       1.0  0.23730372294897265  0.8182954964584326  0.4942328627211835  1.0000
  H   H20       1.0  0.5501742783241925  0.6814525007618498  0.005493038274877814  1.0000
  H   H21       1.0  0.7440823557382931  0.30019570920617883  0.431438152349237  1.0000
  H   H22       1.0  0.4753482246305084  0.2002815414633901  0.0688852063889199  1.0000
  H   H23       1.0  0.25590832761971455  0.6997998590349753  0.5685623039184832  1.0000
  H   H24       1.0  0.5246829891428464  0.7997292243127062  0.9311159932555029  1.0000
  H   H25       1.0  0.018873872411966044  0.1160009632945744  0.4436938632405968  1.0000
  H   H26       1.0  0.5776643580286063  0.38480970821357374  0.05658835331512071  1.0000
  H   H27       1.0  0.9811138952650116  0.8839958699308996  0.5563069676603118  1.0000
  H   H28       1.0  0.42235280346715626  0.6152099125554145  0.9434166402029474  1.0000
  H   H29       1.0  0.901803298038054  0.8537373279572763  0.09192422472094092  1.0000
  H   H30       1.0  0.8476177287254317  0.6461054674084111  0.4080446048374851  1.0000
  H   H31       1.0  0.0982002560542554  0.14624432153608072  0.9080724371783757  1.0000
  H   H32       1.0  0.1523559600011809  0.35390401848246017  0.591959990135109  1.0000
  H   H33       1.0  0.2495810303433715  0.0464827643975241  0.01285825140445946  1.0000
  H   H34       1.0  0.3088507166607215  0.4533817090814268  0.48714388592027547  1.0000
  H   H35       1.0  0.7504113448995258  0.9535115427076803  0.9871374639347575  1.0000
  H   H36       1.0  0.6911490796253906  0.5466252554201035  0.512854862211469  1.0000
  C   C1        1.0  0.6987252530037723  0.005566517632949801  0.23793094441212745  1.0000
  C   C2        1.0  0.9409924860553788  0.4956458642620874  0.26209674770977626  1.0000
  C   C3        1.0  0.3012865603870832  0.9944328561005946  0.7620653748823472  1.0000
  C   C4        1.0  0.05900479118321297  0.5043547667898168  0.7379058105511973  1.0000
  C   C5        1.0  0.823344571687386  0.1265648550931218  0.3211506400799065  1.0000
  C   C6        1.0  0.2698617645287131  0.3746483347977049  0.17898694504960833  1.0000
  C   C7        1.0  0.1766643526952196  0.8734319859522515  0.6788460836497164  1.0000
  C   C8        1.0  0.730143497646111  0.6253611583075835  0.8210162903169334  1.0000
  C   C9        1.0  0.836678452630636  0.10418530541179653  0.25743747048417714  1.0000
  C   C10       1.0  0.19711829525760993  0.39732180487440166  0.24267058100487293  1.0000
  C   C11       1.0  0.16332374858319534  0.8958064692104774  0.7425609921728905  1.0000
  C   C12       1.0  0.802885758701159  0.602686422148487  0.7573326240649576  1.0000
  C   C13       1.0  0.6544456605167996  0.0685867350032936  0.43282335687053547  1.0000
  C   C14       1.0  0.15515118937438646  0.4317021374643063  0.06730841533273946  1.0000
  C   C15       1.0  0.3455507093349797  0.931407569587634  0.5671758550529019  1.0000
  C   C16       1.0  0.8448705837629907  0.5682959652096005  0.9326954525541421  1.0000
  C   C17       1.0  0.6711318279465034  0.0499070455721053  0.3647040719067645  1.0000
  C   C18       1.0  0.08460434736903015  0.450702124377699  0.13538240088269046  1.0000
  C   C19       1.0  0.32887812181256515  0.9500885283954263  0.6352941373039724  1.0000
  C   C20       1.0  0.9154010483755217  0.5492985052579943  0.8646233096260258  1.0000
  C   C21       1.0  0.2466450125209151  0.8870008090518695  0.12941394430831815  1.0000
  C   C22       1.0  0.26308857828178844  0.6130351126400697  0.37064074712620243  1.0000
  C   C23       1.0  0.7533605613700022  0.11299097104023301  0.8705793426883869  1.0000
  C   C24       1.0  0.7368731957496524  0.38697564041073923  0.6293600798286362  1.0000
  C   C25       1.0  0.5407702207962756  0.9509274284711825  0.3409827629661775  1.0000
  C   C26       1.0  0.831473244315113  0.5495430866466506  0.15902516118616447  1.0000
  C   C27       1.0  0.45923119143208885  0.04907067593706672  0.6590151447616818  1.0000
  C   C28       1.0  0.1685300358265779  0.4504499504456803  0.8409771726883049  1.0000
  C   C29       1.0  0.08784993577641845  0.9913922289957358  0.023848825368865786  1.0000
  C   C30       1.0  0.10308631696133137  0.5085457541800764  0.4761437815255006  1.0000
  C   C31       1.0  0.9121447643758605  0.008598281247699902  0.9761465150897874  1.0000
  C   C32       1.0  0.8969015537427509  0.4914751301160011  0.5238578309175067  1.0000
  C   C33       1.0  0.06277752923863049  0.9089584511533386  0.08055530621423658  1.0000
  C   C34       1.0  0.05231518121269819  0.5909082944342715  0.4194306311228573  1.0000
  C   C35       1.0  0.9372371616560929  0.09102573322432761  0.9194402625769909  1.0000
  C   C36       1.0  0.9476599365408876  0.40910879017789636  0.580570588699757  1.0000
  C   C37       1.0  0.8033561105751303  0.17231925278227322  0.4550073420684695  1.0000
  C   C38       1.0  0.4301087845506473  0.3281252453706998  0.04526252270610332  1.0000
  C   C39       1.0  0.19664117775615622  0.8276788505279031  0.5449909099958601  1.0000
  C   C40       1.0  0.569915877800817  0.6718855148842595  0.9547432668779974  1.0000
  N   N1        1.0  0.5538722431373274  0.9299484209626032  0.2794242635865557  1.0000
  N   N2        1.0  0.7620430354751093  0.5707710239541868  0.22055298816018606  1.0000
  N   N3        1.0  0.4461315319717442  0.0700496860625393  0.720571318998438  1.0000
  N   N4        1.0  0.237954439977308  0.4292207454342929  0.7794501247826204  1.0000
  N   N5        1.0  0.5054117409403959  0.9916531414651716  0.46831499916270747  1.0000
  N   N6        1.0  0.9651118676436569  0.508399163916927  0.03167498168622964  1.0000
  N   N7        1.0  0.4945885164174727  0.008336101515695303  0.5316829378723609  1.0000
  N   N8        1.0  0.03490085720970653  0.49158754430277446  0.9683286738762786  1.0000
  O   O1        1.0  0.2027679142685272  0.789900410160648  0.17837006639439312  1.0000
  O   O2        1.0  0.1712317118025481  0.7106326785321074  0.3217789568999477  1.0000
  O   O3        1.0  0.7972421268074186  0.21009136794056363  0.8216262521579548  1.0000
  O   O4        1.0  0.8287299822105609  0.2893894675361823  0.6782217806490107  1.0000
  O   O5        1.0  0.4261392109089715  0.9559323195558918  0.12318345540192863  1.0000
  O   O6        1.0  0.5051264533426975  0.5438095402553954  0.37685863288774596  1.0000
  O   O7        1.0  0.5738648650293431  0.044060727090673914  0.8768088111422397  1.0000
  O   O8        1.0  0.4948385751703339  0.45619868691117205  0.6231365531307843  1.0000
