data_image0
_chemical_formula_structural       Mg2H16C16O12
_chemical_formula_sum              "Mg2 H16 C16 O12"
_cell_length_a       6.518321095953471
_cell_length_b       7.375740934815849
_cell_length_c       9.63700777706527
_cell_angle_alpha    98.07031746205887
_cell_angle_beta     109.80369551251104
_cell_angle_gamma    90.00316206767215

_space_group_name_H-M_alt    "P 1"
_space_group_IT_number       1

loop_
  _space_group_symop_operation_xyz
  'x, y, z'

loop_
  _atom_site_type_symbol
  _atom_site_label
  _atom_site_symmetry_multiplicity
  _atom_site_fract_x
  _atom_site_fract_y
  _atom_site_fract_z
  _atom_site_occupancy
  Mg  Mg1       1.0  0.4999940916486452  0.9999875869613033  0.5000121096870486  1.0000
  Mg  Mg2       1.0  0.9999831423223925  0.49999962943702053  0.4999941175066808  1.0000
  H   H1        1.0  0.3991027188048619  0.057849836751742593  0.13703052554572534  1.0000
  H   H2        1.0  0.7376007194471653  0.5573117771961335  0.13660931401040688  1.0000
  H   H3        1.0  0.6009644011826865  0.9421533147662162  0.8629869796288928  1.0000
  H   H4        1.0  0.26235740466954377  0.44269426573146825  0.863391208136214  1.0000
  H   H5        1.0  0.7374136313349027  0.119481129521283  0.12223255598614456  1.0000
  H   H6        1.0  0.3847586999396385  0.6200870573255628  0.1225804234779559  1.0000
  H   H7        1.0  0.2626504814430035  0.8805536986802025  0.8777733181495718  1.0000
  H   H8        1.0  0.6151889415001365  0.3799095009310988  0.8774062878594008  1.0000
  H   H9        1.0  0.8398688619535263  0.09686706667498872  0.43937385795302913  1.0000
  H   H10       1.0  0.5996485634601852  0.5969379319449927  0.4397842576122598  1.0000
  H   H11       1.0  0.1600840326180588  0.9031320270329245  0.5606361157253585  1.0000
  H   H12       1.0  0.40029183240319816  0.4030535489942507  0.5601566634463068  1.0000
  H   H13       1.0  0.822640974216327  0.8845983618717738  0.3776320210808135  1.0000
  H   H14       1.0  0.5547029400186644  0.3847212643149263  0.3777446665507823  1.0000
  H   H15       1.0  0.1773347859663659  0.11540356998470708  0.6223678623585795  1.0000
  H   H16       1.0  0.44527793329508825  0.6152601912714032  0.6222426440186907  1.0000
  C   C1        1.0  0.07533068149286488  0.0999540625952378  0.14354791497110844  1.0000
  C   C2        1.0  0.0680270397318807  0.5999378067965607  0.14351915032683846  1.0000
  C   C3        1.0  0.9247221574665901  0.9000560203020029  0.8564619642184964  1.0000
  C   C4        1.0  0.9319909576594226  0.4000642012673978  0.8564726231170565  1.0000
  C   C5        1.0  0.2249269804745992  0.0336226423090977  0.07549746295372728  1.0000
  C   C6        1.0  0.8504138871850059  0.5333111591179075  0.07527092489059568  1.0000
  C   C7        1.0  0.7751326329479227  0.9663915504889858  0.9245133696623141  1.0000
  C   C8        1.0  0.1495983251471955  0.4667003281383018  0.9247351419904674  1.0000
  C   C9        1.0  0.8503672150501984  0.06560745393135649  0.06734944189943089  1.0000
  C   C10       1.0  0.21699831142207415  0.5659635553989658  0.06754078011880435  1.0000
  C   C11       1.0  0.1496794499741441  0.934409591249455  0.9326494540080429  1.0000
  C   C12       1.0  0.7830031383695302  0.4340343526205712  0.9324488753499052  1.0000
  C   C13       1.0  0.1520195792020402  0.2099433895617508  0.2958099413112975  1.0000
  C   C14       1.0  0.14339924189161476  0.7099736772209013  0.2957853250616437  1.0000
  C   C15       1.0  0.848012618005072  0.7900734685549293  0.7042095389857504  1.0000
  C   C16       1.0  0.8565675626820735  0.29001594942241843  0.7042090752045665  1.0000
  O   O1        1.0  0.35586751079160445  0.21234560246472256  0.3770791885225292  1.0000
  O   O2        1.0  0.020697640936617693  0.7121919010067754  0.37685961286850034  1.0000
  O   O3        1.0  0.6441685153661326  0.787651881442244  0.6229576473005379  1.0000
  O   O4        1.0  0.9792587546613731  0.28781424839975506  0.6231291168048897  1.0000
  O   O5        1.0  0.011591232922206998  0.2961761260469373  0.33870754767368527  1.0000
  O   O6        1.0  0.3267832659591647  0.7962600337228164  0.3388531398443531  1.0000
  O   O7        1.0  0.9884235930319818  0.7038257945487839  0.6612938779774991  1.0000
  O   O8        1.0  0.6732066518247637  0.20370608565558257  0.6611604217643927  1.0000
  O   O9        1.0  0.7367595468366372  0.9896192637241795  0.3967734700904938  1.0000
  O   O10       1.0  0.6598468534287109  0.48969292183807756  0.3969500827490292  1.0000
  O   O11       1.0  0.2632090219558094  0.010370218886954797  0.6032368772931704  1.0000
  O   O12       1.0  0.3401228318811889  0.5102941720933387  0.6030208138622084  1.0000
