data_image0
_chemical_formula_structural       Zn4H72C94N16O3
_chemical_formula_sum              "Zn4 H72 C94 N16 O3"
_cell_length_a       18.867163218188608
_cell_length_b       18.877067989711318
_cell_length_c       20.4100876358429
_cell_angle_alpha    105.44113911451159
_cell_angle_beta     107.49381046714093
_cell_angle_gamma    112.02531448382106

_space_group_name_H-M_alt    "P 1"
_space_group_IT_number       1

loop_
  _space_group_symop_operation_xyz
  'x, y, z'

loop_
  _atom_site_type_symbol
  _atom_site_label
  _atom_site_symmetry_multiplicity
  _atom_site_fract_x
  _atom_site_fract_y
  _atom_site_fract_z
  _atom_site_occupancy
  Zn  Zn1       1.0  0.8905932034727614  0.8955984950745093  0.5015024113629353  1.0000
  Zn  Zn2       1.0  0.10886605735122862  0.12055373159262928  0.5000394419346037  1.0000
  Zn  Zn3       1.0  0.09988683154204384  0.005189858127401711  0.592633661042953  1.0000
  Zn  Zn4       1.0  0.9014324866332758  0.00364507061674861  0.39994039115246244  1.0000
  H   H1        1.0  0.8563408748939809  0.7911911742013162  0.6110494586646171  1.0000
  H   H2        1.0  0.4509711055039318  0.2161306558475573  0.5535254262836915  1.0000
  H   H3        1.0  0.575168513561934  0.269710023124567  0.5274180925844121  1.0000
  H   H4        1.0  0.13735924108232922  0.2931784374579322  0.4697863783250327  1.0000
  H   H5        1.0  0.7987581561647162  0.20175416433046692  0.5449498833147574  1.0000
  H   H6        1.0  0.7829177452867313  0.056371173015293305  0.6757407123556265  1.0000
  H   H7        1.0  0.68467667013271  0.039448450364830176  0.7341099071366842  1.0000
  H   H8        1.0  0.5566431437762631  0.0440503346121872  0.7375551250942891  1.0000
  H   H9        1.0  0.13965674708298084  0.750054608915491  0.4311239504658673  1.0000
  H   H10       1.0  0.8637112288773781  0.6181900547555161  0.3276735279560442  1.0000
  H   H11       1.0  0.7825945315469272  0.4633429775648922  0.28116191994233475  1.0000
  H   H12       1.0  0.3176982885462253  0.19839212028428935  0.5367143595459396  1.0000
  H   H13       1.0  0.7812743705750265  0.3326015707671246  0.283209582995262  1.0000
  H   H14       1.0  0.86047835649444  0.262313951260616  0.3277126106579118  1.0000
  H   H15       1.0  0.0991544034594369  0.12583423941007507  0.7421406231786278  1.0000
  H   H16       1.0  0.1361555771996095  0.3918031108627531  0.4257778559722992  1.0000
  H   H17       1.0  0.21621018740870573  0.5387823156641575  0.443216840233795  1.0000
  H   H18       1.0  0.2175222840936826  0.6700449448313536  0.44310811982171566  1.0000
  H   H19       1.0  0.5609255386631133  0.8041137126778747  0.17978289010903822  1.0000
  H   H20       1.0  0.1273809805388737  0.2398563439507129  0.8472841367961551  1.0000
  H   H21       1.0  0.14538432655345454  0.3906820882452422  0.721062784660397  1.0000
  H   H22       1.0  0.3048275540790756  0.5910320529408252  0.9784336834111471  1.0000
  H   H23       1.0  0.14018441053576683  0.8762224064958559  0.4904660095461395  1.0000
  H   H24       1.0  0.40295820224363876  0.527288182961037  0.18004217007526085  1.0000
  H   H25       1.0  0.20093508084022463  0.36819609787779944  0.9650686428753019  1.0000
  H   H26       1.0  0.5441682966379915  0.6339574447626859  0.28694183798356215  1.0000
  H   H27       1.0  0.8665810383601241  0.1431310017173431  0.49240332819719157  1.0000
  H   H28       1.0  0.30476231796966863  0.4722382858507288  0.055947262342527865  1.0000
  H   H29       1.0  0.42119991579016175  0.6979785922936657  0.07343454186272412  1.0000
  H   H30       1.0  0.1347090745636806  0.8685045271054289  0.8034917333511657  1.0000
  H   H31       1.0  0.9656180671921605  0.7729685869027847  0.18606199652420927  1.0000
  H   H32       1.0  0.12823623330006484  0.8796358764155413  0.017010597371282146  1.0000
  H   H33       1.0  0.8665673469983873  0.7084984979636529  0.8166261263839445  1.0000
  H   H34       1.0  0.8944939889368727  0.8727256099024245  0.2500121550290543  1.0000
  H   H35       1.0  0.9788983523789414  0.7266644873912824  0.06683701832798758  1.0000
  H   H36       1.0  0.8596095733965118  0.7440413860304461  0.7081125737343896  1.0000
  H   H37       1.0  0.1045930842750522  0.27508621078438  0.6128204593995008  1.0000
  H   H38       1.0  0.9454151717394483  0.7298268267557833  0.9437736792952265  1.0000
  H   H39       1.0  0.14151425216149963  0.8343754324405095  0.9122562853860005  1.0000
  H   H40       1.0  0.8592154521789797  0.003999194022007865  0.6308322972780688  1.0000
  H   H41       1.0  0.8630369729874446  0.13906581746950059  0.33312232431710953  1.0000
  H   H42       1.0  0.13243237113506723  0.9403684413886709  0.7291704669840868  1.0000
  H   H43       1.0  0.6998253222597199  0.16378987166505954  0.4292680257655732  1.0000
  H   H44       1.0  0.6148131050944698  0.18385625441779757  0.39481693666446205  1.0000
  H   H45       1.0  0.1687251664755465  0.029068372797915725  0.3886095147014289  1.0000
  H   H46       1.0  0.715744574246074  0.2467743842043362  0.3996193592462802  1.0000
  H   H47       1.0  0.6955178876120699  0.32590584404292855  0.5061272835053288  1.0000
  H   H48       1.0  0.783018646803484  0.3101971377434723  0.5415508804239054  1.0000
  H   H49       1.0  0.3651544519729343  0.593295306901311  0.8919393160024356  1.0000
  H   H50       1.0  0.3176848358445883  0.5377607084686673  0.7917612168408185  1.0000
  H   H51       1.0  0.33312744613782297  0.6413781811222208  0.8333427320245833  1.0000
  H   H52       1.0  0.1793318771430705  0.5323337602051623  0.781542727144533  1.0000
  H   H53       1.0  0.2248047175288264  0.588405063597868  0.8806899353844102  1.0000
  H   H54       1.0  0.0594157999873346  0.0722596786399308  0.2813820313302386  1.0000
  H   H55       1.0  0.057705874007396615  0.0735172458521873  0.1939545602943085  1.0000
  H   H56       1.0  0.8632376772838415  0.7415209996492392  0.36708539131766577  1.0000
  H   H57       1.0  0.19975644181615593  0.20759427032516695  0.2655861743498065  1.0000
  H   H58       1.0  0.12465170915456981  0.22065762953626947  0.2968187537040095  1.0000
  H   H59       1.0  0.2044197975780548  0.2044574339280913  0.3531680292586117  1.0000
  H   H60       1.0  0.12028300682286641  0.07737408922955073  0.11861271937117829  1.0000
  H   H61       1.0  0.0717076728513817  0.9822851859863276  0.03429538550782489  1.0000
  H   H62       1.0  0.2057238700500221  0.034522461685909916  0.018345255171375606  1.0000
  H   H63       1.0  0.1689980751901743  0.10914080868188589  0.02386765109351779  1.0000
  H   H64       1.0  0.2569074961513564  0.12805486897953236  0.10426248515793894  1.0000
  H   H65       1.0  0.7485698793743936  0.8038535273825713  0.5098075977082174  1.0000
  H   H66       1.0  0.7784542797329976  0.7332369913964313  0.46247657026290767  1.0000
  H   H67       1.0  0.7074643248020892  0.8808479310141235  0.2548425059557999  1.0000
  H   H68       1.0  0.6450075163009005  0.609175089841024  0.4407246612274492  1.0000
  H   H69       1.0  0.7120085699364441  0.6764141445081719  0.539208209155639  1.0000
  H   H70       1.0  0.61873464404961  0.6805577306084415  0.49089068273235625  1.0000
  H   H71       1.0  0.29941476716574306  0.03802697523682501  0.6550871036086647  1.0000
  H   H72       1.0  0.43960104283222284  0.07424835580189887  0.6882872957698041  1.0000
  C   C1        1.0  0.9239396290897945  0.8335952025471515  0.6315024546291357  1.0000
  C   C2        1.0  0.9309504306036589  0.7856341538220022  0.40347394741476  1.0000
  C   C3        1.0  0.7144380200705884  0.8565163528158096  0.29763133867749764  1.0000
  C   C4        1.0  0.0704595177439842  0.24439597942590302  0.43850612008364465  1.0000
  C   C5        1.0  0.29055994939951557  0.07477988245813806  0.6236755047619837  1.0000
  C   C6        1.0  0.6531827145255776  0.786284853287313  0.2987443077430641  1.0000
  C   C7        1.0  0.3479711939082507  0.12749156938053832  0.6043738597149968  1.0000
  C   C8        1.0  0.002314352505052901  0.7746545160191189  0.41129908864478176  1.0000
  C   C9        1.0  0.0375832622235635  0.9346838571489967  0.29153237992451847  1.0000
  C   C10       1.0  0.4721695864689155  0.1080191763700854  0.6610765824932516  1.0000
  C   C11       1.0  0.43421298790695323  0.1426433429335177  0.6184866084494587  1.0000
  C   C12       1.0  0.9993586719307715  0.2469094132114052  0.3934085945122093  1.0000
  C   C13       1.0  0.4788365746323607  0.18791430242163898  0.586099744000883  1.0000
  C   C14       1.0  0.5569834811410815  0.19453011552618452  0.5911153608300452  1.0000
  C   C15       1.0  0.5921629081156042  0.15429241955424555  0.6301757977337274  1.0000
  C   C16       1.0  0.09838898553385181  0.1519788821318926  0.7007231666892224  1.0000
  C   C17       1.0  0.5500095788638434  0.1126670568188928  0.6674207272575998  1.0000
  C   C18       1.0  0.6012220525347091  0.23685382038353714  0.5552221657124647  1.0000
  C   C19       1.0  0.6724679969333637  0.23553857407357276  0.5524631023249784  1.0000
  C   C20       1.0  0.7051411516094463  0.18963497320859815  0.5872353679982895  1.0000
  C   C21       1.0  0.6657565973195362  0.15199252521018278  0.6281677504802731  1.0000
  C   C22       1.0  0.6978764692355953  0.10728647767076888  0.6635087970163199  1.0000
  C   C23       1.0  0.1089165698402681  0.23180468440875046  0.7066694590639031  1.0000
  C   C24       1.0  0.6581770644296512  0.07123477419850134  0.7052824359930483  1.0000
  C   C25       1.0  0.5873412414237366  0.07366932101955839  0.707130709638122  1.0000
  C   C26       1.0  0.7703451886530531  0.17582564391574365  0.5781806115440348  1.0000
  C   C27       1.0  0.7959570932928274  0.12437369586630358  0.6058016711326744  1.0000
  C   C28       1.0  0.8701366345641832  0.10244292121964807  0.5206727702821753  1.0000
  C   C29       1.0  0.7624173842909487  0.09456832215443012  0.6518019494149386  1.0000
  C   C30       1.0  0.07850361654114123  0.6915715371936244  0.4038780055606209  1.0000
  C   C31       1.0  0.0019135380755059999  0.694504938740941  0.38355174737461784  1.0000
  C   C32       1.0  0.9241185473607774  0.6177639214919425  0.3456879314773715  1.0000
  C   C33       1.0  0.9213888902690429  0.5403512963458396  0.3359341677510912  1.0000
  C   C34       1.0  0.8462948033567274  0.09278051010064564  0.5782312427078365  1.0000
  C   C35       1.0  0.999863753061689  0.5391756178834298  0.36373728923869203  1.0000
  C   C36       1.0  0.07915854887821892  0.6155905041438601  0.39504457855621666  1.0000
  C   C37       1.0  0.842515069380369  0.4627744057233941  0.30440408048443873  1.0000
  C   C38       1.0  0.841801780700628  0.3904934656790431  0.3055579895104402  1.0000
  C   C39       1.0  0.919891946696737  0.3889318593816429  0.3374316400156375  1.0000
  C   C40       1.0  0.10143166133028102  0.22822543959355812  0.6349204557461904  1.0000
  C   C41       1.0  0.9990899831504054  0.46391584035414735  0.3642950412508697  1.0000
  C   C42       1.0  0.0777556856033428  0.46377274785355393  0.39526447445138757  1.0000
  C   C43       1.0  0.1563119484116058  0.5397140677452441  0.4214276746711931  1.0000
  C   C44       1.0  0.15702771105651442  0.612327428317073  0.42132693055658893  1.0000
  C   C45       1.0  0.7003766155318446  0.7861092787276932  0.36727579139473926  1.0000
  C   C46       1.0  0.9212490514450453  0.31802022855229956  0.34574390917831727  1.0000
  C   C47       1.0  0.9983990062625098  0.3184794591661059  0.3790454225760413  1.0000
  C   C48       1.0  0.0756289747850616  0.39091900227753484  0.401398240998418  1.0000
  C   C49       1.0  0.5654396259757135  0.7265812189994705  0.24090707614923454  1.0000
  C   C50       1.0  0.5268019214318825  0.7432002362904058  0.18024061814762146  1.0000
  C   C51       1.0  0.4471795904042823  0.6831602155121032  0.12011223581198745  1.0000
  C   C52       1.0  0.8663061357776275  0.0315490388751842  0.59121011916222  1.0000
  C   C53       1.0  0.40123892252549354  0.602664926145536  0.1171306243117982  1.0000
  C   C54       1.0  0.4376177821504896  0.588480947849561  0.1801252985385986  1.0000
  C   C55       1.0  0.5173447336335003  0.6484470031666875  0.240491970208673  1.0000
  C   C56       1.0  0.29977957610084627  0.1562948885684605  0.5633148152818563  1.0000
  C   C57       1.0  0.1898558999466857  0.37388636561928473  0.9115798645010145  1.0000
  C   C58       1.0  0.14800181133578863  0.30093799412461647  0.8448070021272187  1.0000
  C   C59       1.0  0.15789360038077402  0.3851968106697825  0.7748246601885214  1.0000
  C   C60       1.0  0.20000093606824984  0.4595940497879382  0.8415572569020355  1.0000
  C   C61       1.0  0.2220689851954134  0.4551755584633455  0.9127688879342274  1.0000
  C   C62       1.0  0.32492405730904045  0.5321247508407866  0.050898836566304326  1.0000
  C   C63       1.0  0.283915858912188  0.5311055128412078  0.9831817873748819  1.0000
  C   C64       1.0  0.9307210124336226  0.1661760891511579  0.36941499125657634  1.0000
  C   C65       1.0  0.13545172690907495  0.3052398199885786  0.7746113123549209  1.0000
  C   C66       1.0  0.9969109831806124  0.8136741466227376  0.7494458877646721  1.0000
  C   C67       1.0  0.0720731962086631  0.8545438425286278  0.46622371838814297  1.0000
  C   C68       1.0  0.0754643830029167  0.8345152355209249  0.8065505416545803  1.0000
  C   C69       1.0  0.07939866647627271  0.8151084434698814  0.8680136607688026  1.0000
  C   C70       1.0  0.0046289479241111  0.7736436366966614  0.87547491543733  1.0000
  C   C71       1.0  0.9256686292965954  0.7436500666808499  0.8137428441652688  1.0000
  C   C72       1.0  0.9218792695175894  0.7639601476614074  0.7525588799632175  1.0000
  C   C73       1.0  0.014136685607425602  0.7936526770957854  0.10592857020519374  1.0000
  C   C74       1.0  0.0062931318883841  0.8196266943622772  0.17257109416358665  1.0000
  C   C75       1.0  0.1056463722061451  0.9651263969457768  0.2076603475328652  1.0000
  C   C76       1.0  0.06454836296697411  0.9092090911769045  0.6915211568734135  1.0000
  C   C77       1.0  0.11549569282453832  0.9385925961172104  0.1414470759441072  1.0000
  C   C78       1.0  0.959424587047373  0.9167402184831982  0.2943922123967653  1.0000
  C   C79       1.0  0.06781635568371773  0.8524965958643235  0.08823414425827976  1.0000
  C   C80       1.0  0.005911725142645701  0.7728618557621302  0.947030250474981  1.0000
  C   C81       1.0  0.07122016270533751  0.8329387247138627  0.015649456141986134  1.0000
  C   C82       1.0  0.0506554972358018  0.9054107580888767  0.2242935665342287  1.0000
  C   C83       1.0  0.9947893522727899  0.8475757541850799  0.6929089664752158  1.0000
  C   C84       1.0  0.7128276063825112  0.2770169223587119  0.5095672916433216  1.0000
  C   C85       1.0  0.6843694026235952  0.214317355926923  0.42866533169839033  1.0000
  C   C86       1.0  0.2267301773699941  0.5428794433162238  0.8355636355512814  1.0000
  C   C87       1.0  0.3158724663941684  0.5813060595298863  0.838436502287479  1.0000
  C   C88       1.0  0.10009135355284123  0.09246385364547652  0.25360749686264944  1.0000
  C   C89       1.0  0.09951406142152312  0.9969979119530309  0.3650171467123542  1.0000
  C   C90       1.0  0.16096252152807014  0.18690185950569574  0.294566310367081  1.0000
  C   C91       1.0  0.1332320667112157  0.03337831619035819  0.08285676277304792  1.0000
  C   C92       1.0  0.19506336502782776  0.07893940718930283  0.055831915410379906  1.0000
  C   C93       1.0  0.7238345208981444  0.7398494582176198  0.46626279405133186  1.0000
  C   C94       1.0  0.6715861068695193  0.6724688248843051  0.4853053048597076  1.0000
  N   N1        1.0  0.9496228543076767  0.882600853189757  0.596703409449887  1.0000
  N   N2        1.0  0.0869686735913646  0.10621136439393551  0.6315884282833865  1.0000
  N   N3        1.0  0.9001941661706074  0.049983599980308505  0.5007179126456551  1.0000
  N   N4        1.0  0.08888204237472762  0.15308199836459113  0.5912477253984463  1.0000
  N   N5        1.0  0.8978202335084192  0.006493890117582255  0.5441595898272524  1.0000
  N   N6        1.0  0.9589863415277408  0.1198891460575879  0.39774703801717937  1.0000
  N   N7        1.0  0.03728373559540191  0.9297222642740053  0.6343358736933452  1.0000
  N   N8        1.0  0.7816151861366123  0.8499745509017202  0.40310237279999217  1.0000
  N   N9        1.0  0.22073568126862142  0.12356388038610785  0.5588657586250536  1.0000
  N   N10       1.0  0.0434989681757401  0.9071555097922608  0.48993858025302456  1.0000
  N   N11       1.0  0.9745250679913867  0.9663514156372202  0.3638706398051068  1.0000
  N   N12       1.0  0.06054157346985531  0.015125340937693497  0.40721541766325947  1.0000
  N   N13       1.0  0.9568041106085802  0.8647656419491484  0.451298875304829  1.0000
  N   N14       1.0  0.7902240713931904  0.8941926737147342  0.3589333004314453  1.0000
  N   N15       1.0  0.2150723879798733  0.07267782572476021  0.5964246909705582  1.0000
  N   N16       1.0  0.046078851432959304  0.1687918406313287  0.4408140244369606  1.0000
  O   O1        1.0  0.15086165635458573  0.0507429728610305  0.254804868310039  1.0000
  O   O2        1.0  0.17111044669721315  0.9974267716703551  0.1270218180132829  1.0000
  O   O3        1.0  0.6684720872288992  0.7292553184116527  0.3940790032022932  1.0000
