data_image0
_chemical_formula_structural       Zn2H44C52N4O12
_chemical_formula_sum              "Zn2 H44 C52 N4 O12"
_cell_length_a       9.075742526923175
_cell_length_b       9.95173511830272
_cell_length_c       14.739580109160906
_cell_angle_alpha    70.19710780851177
_cell_angle_beta     81.39308302265903
_cell_angle_gamma    63.77454613808575

_space_group_name_H-M_alt    "P 1"
_space_group_IT_number       1

loop_
  _space_group_symop_operation_xyz
  'x, y, z'

loop_
  _atom_site_type_symbol
  _atom_site_label
  _atom_site_symmetry_multiplicity
  _atom_site_fract_x
  _atom_site_fract_y
  _atom_site_fract_z
  _atom_site_occupancy
  Zn  Zn1       1.0  0.7499482216963288  0.22357083048132873  0.5524217056177818  1.0000
  Zn  Zn2       1.0  0.2500504776381193  0.7764286430618983  0.44758015929753714  1.0000
  H   H1        1.0  0.8833886656880383  0.429145322183132  0.39008394046653894  1.0000
  H   H2        1.0  0.6170274952817323  0.18005735649565954  0.3901681682869479  1.0000
  H   H3        1.0  0.11661016952693627  0.5708593258072556  0.6099150644533818  1.0000
  H   H4        1.0  0.38296873854418595  0.8199482472874992  0.60983344177653  1.0000
  H   H5        1.0  0.47781431141316244  0.20267602714782398  0.5799820382064594  1.0000
  H   H6        1.0  0.02204630861574938  0.21674082821022034  0.5800077780149022  1.0000
  H   H7        1.0  0.5221864986279602  0.7973214144040812  0.42001948132359246  1.0000
  H   H8        1.0  0.9779538698815033  0.7832551026153214  0.4199941038863102  1.0000
  H   H9        1.0  0.8931477139800564  0.5195943081325254  0.21318757112942413  1.0000
  H   H10       1.0  0.6070723978408882  0.26713638435290943  0.21332449294258987  1.0000
  H   H11       1.0  0.10684824025757687  0.48040839520101775  0.7868122830380242  1.0000
  H   H12       1.0  0.3929224334589277  0.7328644091870519  0.7866773037282329  1.0000
  H   H13       1.0  0.6882491103015412  0.2768792128569189  0.07345022952867447  1.0000
  H   H14       1.0  0.8118374954626694  0.6499505983138006  0.07306080481328084  1.0000
  H   H15       1.0  0.3117500811384206  0.7231199826221941  0.9265507348805142  1.0000
  H   H16       1.0  0.18815747242923925  0.3500546925419815  0.9269388114882202  1.0000
  H   H17       1.0  0.6874071183674315  0.36745742166402845  0.896283015409814  1.0000
  H   H18       1.0  0.813160691672728  0.7362069973191013  0.895888251146921  1.0000
  H   H19       1.0  0.31259369096212475  0.6325406970192092  0.10371782449416135  1.0000
  H   H20       1.0  0.18683786608866634  0.2637927188276592  0.10411103675519229  1.0000
  H   H21       1.0  0.7505632136556741  0.5970255836215943  0.805317170336323  1.0000
  H   H22       1.0  0.24943647060136703  0.40297265666207255  0.19468357319279755  1.0000
  H   H23       1.0  0.5283243454113772  0.33309607906394256  0.7141914092521587  1.0000
  H   H24       1.0  0.9714251359981462  0.9530628678260133  0.7142462582697104  1.0000
  H   H25       1.0  0.47166661856537234  0.6669053573414062  0.28581099880024396  1.0000
  H   H26       1.0  0.028570464860763423  0.04694257949346085  0.2857543549127826  1.0000
  H   H27       1.0  0.5174291448371734  0.25286568910860335  0.8929031187564005  1.0000
  H   H28       1.0  0.9827326237016724  0.8543766959774717  0.8929592036012435  1.0000
  H   H29       1.0  0.48256470082848335  0.7471370148222575  0.10709911967455096  1.0000
  H   H30       1.0  0.017262205463453018  0.1456261289564935  0.10704055419135017  1.0000
  H   H31       1.0  0.49004378255695974  0.1316921973885883  0.03155121611536769  1.0000
  H   H32       1.0  0.01003569882634278  0.8367947998525623  0.03150789398406321  1.0000
  H   H33       1.0  0.5099573077840137  0.8683074674816003  0.9684527389367898  1.0000
  H   H34       1.0  0.989963210890629  0.16320352657094625  0.9684892756508602  1.0000
  H   H35       1.0  0.49254522804107387  0.04395526250044679  0.20980368943639854  1.0000
  H   H36       1.0  0.007819470934521277  0.7459303909074252  0.20975903594180062  1.0000
  H   H37       1.0  0.5074619797679963  0.9560435163035025  0.7901998469838954  1.0000
  H   H38       1.0  0.9921873150016369  0.25406640718177476  0.7902394879431751  1.0000
  H   H39       1.0  0.7502510049713536  0.8501158234821987  0.2992826848848295  1.0000
  H   H40       1.0  0.24975606126465524  0.1498831979252845  0.700718274522252  1.0000
  H   H41       1.0  0.41523508001812814  0.3882592270906431  0.5149061606312202  1.0000
  H   H42       1.0  0.08450912717753314  0.0967938722670284  0.5147313136605333  1.0000
  H   H43       1.0  0.5847646042389132  0.6117390131930236  0.4850945828979007  1.0000
  H   H44       1.0  0.915489922689368  0.9032055658156255  0.4852670737354429  1.0000
  C   C1        1.0  0.8246756553974208  0.394143537514424  0.3484837877634277  1.0000
  C   C2        1.0  0.675736453599356  0.25677353031771594  0.34855537749520943  1.0000
  C   C3        1.0  0.17532529265892546  0.6058570470906307  0.6515169106494482  1.0000
  C   C4        1.0  0.3242591472595608  0.7432319170017581  0.6514452356872836  1.0000
  C   C5        1.0  0.8283210848074348  0.44587429486752234  0.24832594902576932  1.0000
  C   C6        1.0  0.6720065821925022  0.3055639847397772  0.24840335738792865  1.0000
  C   C7        1.0  0.1716769808484386  0.5541256993433524  0.7516742393824811  1.0000
  C   C8        1.0  0.32798937275669704  0.6944380414624264  0.7515971764055961  1.0000
  C   C9        1.0  0.7501126623953882  0.40261266293645553  0.19477052567668093  1.0000
  C   C10       1.0  0.24988392480925392  0.5973901968607722  0.8052303253717665  1.0000
  C   C11       1.0  0.7501347220732696  0.4560425423607697  0.08794259629704726  1.0000
  C   C12       1.0  0.24986376047454695  0.5439641724842166  0.9120578472639945  1.0000
  C   C13       1.0  0.7146966768594895  0.3787599738635238  0.035688516418794274  1.0000
  C   C14       1.0  0.785635892383674  0.5856153785331699  0.03545919581009829  1.0000
  C   C15       1.0  0.28530152752318116  0.6212424862691681  0.9643115304983637  1.0000
  C   C16       1.0  0.21435844467593065  0.41438772446491656  0.9645414624886399  1.0000
  C   C17       1.0  0.7147602401380838  0.42931128629936716  0.9351454793837133  1.0000
  C   C18       1.0  0.7858808728703511  0.6353927009616387  0.9349177540801746  1.0000
  C   C19       1.0  0.2852416942639878  0.5706867107834483  0.06485545689511696  1.0000
  C   C20       1.0  0.2141178236178263  0.36460948110693886  0.06508139233084617  1.0000
  C   C21       1.0  0.7505019677513477  0.5577108218607664  0.8840433787147359  1.0000
  C   C22       1.0  0.24949609648139412  0.4422905266127871  0.1159554504413691  1.0000
  C   C23       1.0  0.6265045607575815  0.22822670951030255  0.7573708888724864  1.0000
  C   C24       1.0  0.8733556641910811  0.014768726710883955  0.7574209527243807  1.0000
  C   C25       1.0  0.373488160547126  0.7717754388896411  0.24263193280967954  1.0000
  C   C26       1.0  0.1266402907581252  0.9852332994913201  0.2425795810691511  1.0000
  C   C27       1.0  0.6217092053749055  0.1813308757791676  0.8573861159344033  1.0000
  C   C28       1.0  0.878360903806609  0.9615230250600394  0.8574347474226939  1.0000
  C   C29       1.0  0.37828612016512153  0.8186676083026684  0.14261681910851107  1.0000
  C   C30       1.0  0.1216356812633279  0.03848186613120675  0.14256406474752478  1.0000
  C   C31       1.0  0.7500508802384475  0.04460598951219937  0.9109475766300008  1.0000
  C   C32       1.0  0.24994894345694982  0.9553940395619448  0.08905370503410377  1.0000
  C   C33       1.0  0.7500446566324969  0.9914144833053411  0.017351433388853442  1.0000
  C   C34       1.0  0.24995291549473117  0.00858714323231893  0.9826482962733818  1.0000
  C   C35       1.0  0.6050319758939723  0.048662349575970196  0.06955023260459109  1.0000
  C   C36       1.0  0.8951169017781384  0.881793939232999  0.06953860801858978  1.0000
  C   C37       1.0  0.3949641184935829  0.9513414654167109  0.9304508393239174  1.0000
  C   C38       1.0  0.10488228681555978  0.11820796477146472  0.9304596378862937  1.0000
  C   C39       1.0  0.6053729387039157  0.9988883722267516  0.16999943881127416  1.0000
  C   C40       1.0  0.8949440099883577  0.8308964813532855  0.16997371295183678  1.0000
  C   C41       1.0  0.3946315254314784  0.0011122821048348518  0.8300034461133022  1.0000
  C   C42       1.0  0.10505729002357371  0.1691027135285169  0.8300248671938488  1.0000
  C   C43       1.0  0.7501930610393973  0.8894588457447838  0.2208112402910699  1.0000
  C   C44       1.0  0.24981076799429058  0.1105436835171222  0.7791886088742854  1.0000
  C   C45       1.0  0.6660976807230838  0.9349961105598157  0.587665686059587  1.0000
  C   C46       1.0  0.8342151989462822  0.4765296274785273  0.5874699003411408  1.0000
  C   C47       1.0  0.333905588422475  0.06500129493418462  0.412329971687626  1.0000
  C   C48       1.0  0.1658035437609161  0.5234611437659069  0.4125273896362102  1.0000
  C   C49       1.0  0.7247783108462973  0.7703499956919589  0.5938963475533966  1.0000
  C   C50       1.0  0.7755817875752413  0.6348119572545202  0.5938389392731265  1.0000
  C   C51       1.0  0.2752324850128289  0.22963961058011526  0.4060917777453169  1.0000
  C   C52       1.0  0.2244348351749252  0.3651896486886133  0.4061498609505135  1.0000
  N   N1        1.0  0.7501813301625192  0.3003620157588004  0.3986462613462719  1.0000
  N   N2        1.0  0.24981687493171734  0.6996397672425518  0.6013544651969622  1.0000
  N   N3        1.0  0.7498701516651923  0.14639003946336285  0.7075882923614074  1.0000
  N   N4        1.0  0.2501248176498551  0.8536138971297406  0.2924126831922463  1.0000
  O   O1        1.0  0.49364277303715215  0.3008776495974178  0.565945316709417  1.0000
  O   O2        1.0  0.006257268098622161  0.13263593766068055  0.5659010199446398  1.0000
  O   O3        1.0  0.5063574040369619  0.6991196354907956  0.4340552059396358  1.0000
  O   O4        1.0  0.9937422760084972  0.8673611909638411  0.43409850582342796  1.0000
  O   O5        1.0  0.7715453772941604  0.9936995295177411  0.5546535031108559  1.0000
  O   O6        1.0  0.7287737571382993  0.4512533679418812  0.5542071031623549  1.0000
  O   O7        1.0  0.22846126778051012  0.006296834043652876  0.4453431233869906  1.0000
  O   O8        1.0  0.27123394277627716  0.5487451327979542  0.445795532751795  1.0000
  O   O9        1.0  0.5211388646447478  0.005381065665176447  0.6134082674660704  1.0000
  O   O10       1.0  0.979092309455958  0.3801390655689048  0.613322440365394  1.0000
  O   O11       1.0  0.4788665216115789  0.9946082136554751  0.3865931615305484  1.0000
  O   O12       1.0  0.02092165693072462  0.6198459059709266  0.386676106346897  1.0000
