data_image0
_chemical_formula_structural       Zn2H41C54N9O14
_chemical_formula_sum              "Zn2 H41 C54 N9 O14"
_cell_length_a       14.529119367964212
_cell_length_b       15.965958599297997
_cell_length_c       23.716396473510322
_cell_angle_alpha    89.65596148105107
_cell_angle_beta     90.1788418636005
_cell_angle_gamma    90.33583850654634

_space_group_name_H-M_alt    "P 1"
_space_group_IT_number       1

loop_
  _space_group_symop_operation_xyz
  'x, y, z'

loop_
  _atom_site_type_symbol
  _atom_site_label
  _atom_site_symmetry_multiplicity
  _atom_site_fract_x
  _atom_site_fract_y
  _atom_site_fract_z
  _atom_site_occupancy
  Zn  Zn1       1.0  0.4079187750084827  0.48810778708192964  0.49902927825507254  1.0000
  Zn  Zn2       1.0  0.598836906657752  0.5012319464546023  0.5000290066505358  1.0000
  H   H1        1.0  0.4363934732477617  0.29533024853075324  0.9443427664241355  1.0000
  H   H2        1.0  0.362179799906535  0.07163683042482918  0.5261593184252576  1.0000
  H   H3        1.0  0.6322637156384731  0.911132955514404  0.4746575866267905  1.0000
  H   H4        1.0  0.35064624772738995  0.9263371085168186  0.5310300053235509  1.0000
  H   H5        1.0  0.4159681284299808  0.08514794298556438  0.42557996897373573  1.0000
  H   H6        1.0  0.533590398511066  0.06730578702983077  0.4099310964052664  1.0000
  H   H7        1.0  0.0687317607640878  0.3691592369523208  0.48221668847028104  1.0000
  H   H8        1.0  0.9213987816777448  0.3896178735221625  0.5101148250882943  1.0000
  H   H9        1.0  0.947854148769643  0.5935935291209304  0.5738024563826799  1.0000
  H   H10       1.0  0.09772682593361279  0.5404955226638035  0.5863932261400252  1.0000
  H   H11       1.0  0.9125771078242622  0.48930797906306367  0.5879013652917067  1.0000
  H   H12       1.0  0.35784520298149397  0.5037772924602065  0.6766201155675378  1.0000
  H   H13       1.0  0.0619569389467927  0.4358638944742025  0.5766466091477866  1.0000
  H   H14       1.0  0.9467088662159001  0.574876740925042  0.4166909440682717  1.0000
  H   H15       1.0  0.1013843863618433  0.581955422099803  0.4267155041298025  1.0000
  H   H16       1.0  0.560625888045678  0.6995251450551833  0.0536191143221885  1.0000
  H   H17       1.0  0.5593456472786968  0.7018783838999666  0.9466976153469774  1.0000
  H   H18       1.0  0.6549545761047001  0.4864037802672101  0.2114828848264594  1.0000
  H   H19       1.0  0.6605069156073783  0.48507944876830333  0.3175642233435312  1.0000
  H   H20       1.0  0.36621513779276427  0.49808278455204663  0.32316773741747806  1.0000
  H   H21       1.0  0.35992928323811674  0.5008252848075188  0.2170329738071857  1.0000
  H   H22       1.0  0.354328906679207  0.5018048754153455  0.7827291257037814  1.0000
  H   H23       1.0  0.6526109741571843  0.5005747803824789  0.6803246017201445  1.0000
  H   H24       1.0  0.3384486744467949  0.975035219200862  0.3894676234037178  1.0000
  H   H25       1.0  0.3470644118824778  0.8797305925175107  0.4158210298020464  1.0000
  H   H26       1.0  0.49874958248912554  0.943252041048005  0.35105735665634097  1.0000
  H   H27       1.0  0.5787768634179786  0.9140659947044941  0.39587214980125657  1.0000
  H   H28       1.0  0.41577858861533196  0.2234451104226949  0.032847843222562303  1.0000
  H   H29       1.0  0.43302257513940395  0.27564100918064577  0.09856178753090461  1.0000
  H   H30       1.0  0.9507751774898168  0.7277482116582376  0.4425737357695851  1.0000
  H   H31       1.0  0.1881951463294413  0.6547503907805492  0.5043661383864517  1.0000
  H   H32       1.0  0.8165519069924939  0.4265507145238346  0.4298979864494754  1.0000
  H   H33       1.0  0.8904485926988742  0.3534852533154549  0.4145216637355276  1.0000
  H   H34       1.0  0.6500727355491023  0.49815586681623364  0.7864500923761996  1.0000
  H   H35       1.0  0.11510392223073038  0.3951563026250611  0.3920378262175888  1.0000
  H   H36       1.0  0.0082548045354116  0.43116600286938916  0.380349780836113  1.0000
  H   H37       1.0  0.44461266356789503  0.9196514101338806  0.5786456624169602  1.0000
  H   H38       1.0  0.6026417334611125  0.9008667874713294  0.5458055356383228  1.0000
  H   H39       1.0  0.4423304694070325  0.0664413150230629  0.5823690543312453  1.0000
  H   H40       1.0  0.6136825416316469  0.04584230166668139  0.5584090775158687  1.0000
  H   H41       1.0  0.6505944954266666  0.0559744732782335  0.48785766973368544  1.0000
  C   C1        1.0  0.51425317495044  0.33157427373316745  0.5036121051895321  1.0000
  C   C2        1.0  0.5253644599492446  0.5713505852729241  0.12121275018636621  1.0000
  C   C3        1.0  0.5920561573978418  0.4886726173854186  0.2363462440052473  1.0000
  C   C4        1.0  0.5158879787624713  0.49004444042797957  0.3895037198450241  1.0000
  C   C5        1.0  0.5951035169800393  0.4878530321987711  0.2950449682164944  1.0000
  C   C6        1.0  0.5134860612472066  0.4908545405752491  0.3262235244619803  1.0000
  C   C7        1.0  0.42877436645527217  0.4953888815125254  0.298072497875161  1.0000
  C   C8        1.0  0.4253743337417006  0.4969343058527612  0.23945013798196163  1.0000
  C   C9        1.0  0.5071139448546446  0.49322052993788656  0.2089994890852864  1.0000
  C   C10       1.0  0.4193357355399526  0.5016392837164361  0.759922026932294  1.0000
  C   C11       1.0  0.4211926733586465  0.5027425958267457  0.7012703934123439  1.0000
  C   C12       1.0  0.4536864267831219  0.35108840315531614  0.9687187226124437  1.0000
  C   C13       1.0  0.5053327799927131  0.5022940636167803  0.6726275134649883  1.0000
  C   C14       1.0  0.5878642703907032  0.5007877372994258  0.7033237103356952  1.0000
  C   C15       1.0  0.5864130162920275  0.49930262688989313  0.7620185786799567  1.0000
  C   C16       1.0  0.46972777688567646  0.6550383468647922  0.49250392478496957  1.0000
  C   C17       1.0  0.5020278248625374  0.4997539314172527  0.7898360509211031  1.0000
  C   C18       1.0  0.42756037155375987  0.04359983726238429  0.5396599250254965  1.0000
  C   C19       1.0  0.5955046776756702  0.030393066381485298  0.5146604768718319  1.0000
  C   C20       1.0  0.5850513533749293  0.9348115520260121  0.5068754634652067  1.0000
  C   C21       1.0  0.42155995696303716  0.9471292966602719  0.5384593044942606  1.0000
  C   C22       1.0  0.46856813437943146  0.7453877096530803  0.4902971791835782  1.0000
  C   C23       1.0  0.4532828615302975  0.347636822547166  0.028898388148483906  1.0000
  C   C24       1.0  0.5042234276367382  0.074610205597196  0.4992806293317501  1.0000
  C   C25       1.0  0.4841321254261929  0.911806039698817  0.49144439385020894  1.0000
  C   C26       1.0  0.45744699122768406  0.9537465493091731  0.4335128009762458  1.0000
  C   C27       1.0  0.47717148374326257  0.0495177996472549  0.4384325986152362  1.0000
  C   C28       1.0  0.47381752291592244  0.8213626001291414  0.4889758228792545  1.0000
  C   C29       1.0  0.5134513523585015  0.16502959385834973  0.5020880772469027  1.0000
  C   C30       1.0  0.5068406218383784  0.5021296653233734  0.6093346099207011  1.0000
  C   C31       1.0  0.5172933105626142  0.24107544182282237  0.5033824685982254  1.0000
  C   C32       1.0  0.9373542479368737  0.4336875622662363  0.4753596000998855  1.0000
  C   C33       1.0  0.04357123280927771  0.42837842341646143  0.46378815019186  1.0000
  C   C34       1.0  0.47670075436678877  0.42108528382257754  0.0594552727562387  1.0000
  C   C35       1.0  0.9541919955939662  0.5286733468968735  0.5595801973709413  1.0000
  C   C36       1.0  0.05515329569291789  0.49974895809078407  0.559680276386807  1.0000
  C   C37       1.0  0.9156057598469047  0.5230398929940422  0.4987207920984815  1.0000
  C   C38       1.0  0.09120971512881232  0.5007129412082919  0.4984142244048401  1.0000
  C   C39       1.0  0.06813137484279959  0.5852738622709596  0.4684029376755916  1.0000
  C   C40       1.0  0.9622550359212454  0.5903370033954118  0.4610661641645352  1.0000
  C   C41       1.0  0.18941262108133827  0.48649667096010774  0.49768438098251283  1.0000
  C   C42       1.0  0.8161098274439736  0.5310186799353075  0.5004713894271832  1.0000
  C   C43       1.0  0.522039096460439  0.5745518103263904  0.878315132496205  1.0000
  C   C44       1.0  0.47625447742700533  0.4227005779297103  0.8773920084498955  1.0000
  C   C45       1.0  0.49901118973490094  0.49598263288801553  0.029879232021286808  1.0000
  C   C46       1.0  0.47591165486745973  0.4234696906975586  0.9401253790048968  1.0000
  C   C47       1.0  0.498789428711369  0.49790050530737073  0.969822764761233  1.0000
  C   C48       1.0  0.5211141230825618  0.5725045731011633  0.9407945714491392  1.0000
  C   C49       1.0  0.9216134209761863  0.6771682142260003  0.4696673500558647  1.0000
  C   C50       1.0  0.11172892856043862  0.6571161478932338  0.5001420150090254  1.0000
  C   C51       1.0  0.522345311278066  0.5704469191277254  0.059010706133904  1.0000
  C   C52       1.0  0.5434014231240737  0.6437873019212007  0.029353658454830605  1.0000
  C   C53       1.0  0.5428313639380775  0.6451817891310938  0.970455245074291  1.0000
  C   C54       1.0  0.4788115128660451  0.419778436573516  0.12093437324963222  1.0000
  N   N1        1.0  0.5002585582835478  0.49864987353037554  0.8507212589098431  1.0000
  N   N2        1.0  0.503808195462021  0.4946187046042354  0.1481536904746079  1.0000
  N   N3        1.0  0.26758865965956596  0.4727219822069628  0.496921063273291  1.0000
  N   N4        1.0  0.7369071124563078  0.5218791664882262  0.5014846908453663  1.0000
  N   N5        1.0  0.3588217231820323  0.9416988203510855  0.4241797315723587  1.0000
  N   N6        1.0  0.5094894085806556  0.9123550112387094  0.3883597357515143  1.0000
  N   N7        1.0  0.4310253230694627  0.2752886253312995  0.055334469759699814  1.0000
  N   N8        1.0  0.8851856315398406  0.4155057735983832  0.42419801103765314  1.0000
  N   N9        1.0  0.0662367405827382  0.43622658507849366  0.4046192944704288  1.0000
  O   O1        1.0  0.43375576710349156  0.36288403834192456  0.504969418598975  1.0000
  O   O2        1.0  0.45735578608865524  0.3598651142673504  0.8499045747905073  1.0000
  O   O3        1.0  0.46042468580940726  0.35646445370176844  0.14991044639633344  1.0000
  O   O4        1.0  0.5453127549352033  0.6337353439720558  0.148974790057963  1.0000
  O   O5        1.0  0.8545666318892985  0.6889910515264147  0.4993821789579584  1.0000
  O   O6        1.0  0.0679156002674901  0.7148324614371192  0.5201255553325269  1.0000
  O   O7        1.0  0.590435281838012  0.3714153537892386  0.502118872894485  1.0000
  O   O8        1.0  0.4384216514730994  0.48573737092227276  0.4144336151565824  1.0000
  O   O9        1.0  0.5945270906041245  0.4939423981661548  0.4132920767423372  1.0000
  O   O10       1.0  0.39249989642715377  0.6163921535646467  0.4924347499678703  1.0000
  O   O11       1.0  0.5491573447092789  0.6217927739969368  0.49470911553840585  1.0000
  O   O12       1.0  0.42921265372098105  0.5009207410164932  0.5841656497637757  1.0000
  O   O13       1.0  0.5855092789803821  0.5026161421983276  0.5858197941848431  1.0000
  O   O14       1.0  0.5405740955139108  0.6379284765324795  0.8509363029760878  1.0000
