data_image0
_chemical_formula_structural       Cu3H28C42N6O20
_chemical_formula_sum              "Cu3 H28 C42 N6 O20"
_cell_length_a       6.618576913222855
_cell_length_b       10.843830338040917
_cell_length_c       14.234198326547892
_cell_angle_alpha    103.79279811611383
_cell_angle_beta     98.65538474873121
_cell_angle_gamma    91.50851470120705

_space_group_name_H-M_alt    "P 1"
_space_group_IT_number       1

loop_
  _space_group_symop_operation_xyz
  'x, y, z'

loop_
  _atom_site_type_symbol
  _atom_site_label
  _atom_site_symmetry_multiplicity
  _atom_site_fract_x
  _atom_site_fract_y
  _atom_site_fract_z
  _atom_site_occupancy
  Cu  Cu1       1.0  0.46194582224503483  0.7072571646695638  0.2891749858177662  1.0000
  Cu  Cu2       1.0  0.53789546954129  0.29265662789761393  0.7107823639714542  1.0000
  Cu  Cu3       1.0  5.1861012515515476e-05  0.9999848849380228  0.500067677998999  1.0000
  H   H1        1.0  0.8680961839972808  0.8842796310376786  0.02675921144577135  1.0000
  H   H2        1.0  0.1317655956626353  0.11562634319972893  0.9732221945790233  1.0000
  H   H3        1.0  0.9013255856028124  0.6285583572374095  0.2564700847167388  1.0000
  H   H4        1.0  0.0987427918764041  0.37146147088163434  0.7435842504453095  1.0000
  H   H5        1.0  0.9069858739815615  0.7755472660153374  0.29025066682236683  1.0000
  H   H6        1.0  0.0930576185709526  0.2244673404806435  0.7097869765822583  1.0000
  H   H7        1.0  0.15644834255493115  0.6295984237334693  0.8068925936565993  1.0000
  H   H8        1.0  0.8435123231801426  0.37037955388917976  0.19309021694813577  1.0000
  H   H9        1.0  0.15623506162442874  0.518634590474676  0.928405756077034  1.0000
  H   H10       1.0  0.843642351768352  0.48135193851006625  0.07157886426367106  1.0000
  H   H11       1.0  0.7779919906606308  0.9889715803215609  0.8315387524406082  1.0000
  H   H12       1.0  0.2219124263649945  0.010995772786401403  0.16846991237574835  1.0000
  H   H13       1.0  0.24318406893999617  0.5187685498750055  0.10318320840794834  1.0000
  H   H14       1.0  0.7566863643998686  0.4812096275232849  0.8968072609162409  1.0000
  H   H15       1.0  0.16636045925285706  0.5432475120520196  0.4889628009092849  1.0000
  H   H16       1.0  0.8338041205472209  0.4567977724429825  0.5110217944253892  1.0000
  H   H17       1.0  0.4542655400611649  0.8971204941734927  0.000877731937414783  1.0000
  H   H18       1.0  0.5456625679182636  0.10283761839919953  0.9991057928718666  1.0000
  H   H19       1.0  0.6524661537790307  0.6028247391982617  0.5595082354774308  1.0000
  H   H20       1.0  0.3477265050085308  0.39719273301810887  0.44043088864965824  1.0000
  H   H21       1.0  0.18500728828078652  0.975239950122955  0.6984183983567863  1.0000
  H   H22       1.0  0.8149441615960598  0.024742175387885406  0.30164244224448583  1.0000
  H   H23       1.0  0.07896353794406961  0.7303329676686448  0.4216142927687445  1.0000
  H   H24       1.0  0.9211899986373737  0.2697417439794805  0.5784060117687988  1.0000
  H   H25       1.0  0.5400487238986215  0.8787778253692979  0.17049358193328612  1.0000
  H   H26       1.0  0.4598192096428447  0.12120609382490241  0.8294990658111774  1.0000
  H   H27       1.0  0.2588280448600315  0.5737443476241424  0.6705193649096659  1.0000
  H   H28       1.0  0.7412793178738678  0.42623263011278567  0.32946037978473447  1.0000
  C   C1        1.0  0.238440977334072  0.6017536439464097  0.9800245746503298  1.0000
  C   C2        1.0  0.761459598556911  0.39821947993993934  0.01995455642339291  1.0000
  C   C3        1.0  0.7580527289359864  0.9039000424589433  0.7714584305363421  1.0000
  C   C4        1.0  0.24190024601250565  0.09609329871115341  0.22853199868039561  1.0000
  C   C5        1.0  0.2868003847772513  0.6011740931786705  0.07816049608958765  1.0000
  C   C6        1.0  0.713056217862487  0.3988028968802483  0.9218217642500338  1.0000
  C   C7        1.0  0.168593491248501  0.6366803075763061  0.5386290620859884  1.0000
  C   C8        1.0  0.8315180115927345  0.36335510663086273  0.46137471137910796  1.0000
  C   C9        1.0  0.7328413417163943  0.674252563348695  0.7161834851322271  1.0000
  C   C10       1.0  0.26726567610952395  0.3257352347845881  0.2837776491250993  1.0000
  C   C11       1.0  0.6498585461142099  0.8102998025129368  0.4915067067232643  1.0000
  C   C12       1.0  0.3500963286445113  0.18982044195951894  0.5084859062307105  1.0000
  C   C13       1.0  0.7286218402042053  0.05255646374368443  0.6670678479501365  1.0000
  C   C14       1.0  0.27150696805009034  0.9474536982340286  0.3329463266732519  1.0000
  C   C15       1.0  0.6872501259578456  0.8061961695105995  0.5976411636686978  1.0000
  C   C16       1.0  0.3129435076503597  0.19380247509172221  0.402334262237517  1.0000
  C   C17       1.0  0.4053454046561384  0.8112742883880556  0.019664850723060623  1.0000
  C   C18       1.0  0.5945747316967881  0.18869633371695477  0.9803257999297519  1.0000
  C   C19       1.0  0.6878139139276198  0.6871373090210257  0.6200553275773688  1.0000
  C   C20       1.0  0.312292218040426  0.3128572674548806  0.3799110825735001  1.0000
  C   C21       1.0  0.22065330006589073  0.7774511825072851  0.6992574043808804  1.0000
  C   C22       1.0  0.779386522920106  0.22252463539723513  0.3007482552342112  1.0000
  C   C23       1.0  0.1795810553653183  0.8778983773335586  0.654622364509564  1.0000
  C   C24       1.0  0.8204169765349503  0.12210477182979672  0.34541225040364765  1.0000
  C   C25       1.0  0.1213390069587987  0.7404383834601732  0.4999618247528234  1.0000
  C   C26       1.0  0.8787488649258037  0.25959076754837446  0.5000546870663387  1.0000
  C   C27       1.0  0.7666128162233932  0.7850842741004556  0.7933090284675334  1.0000
  C   C28       1.0  0.23341382728474258  0.21489518651092965  0.2066590526344855  1.0000
  C   C29       1.0  0.8033679855521496  0.7780506558044281  0.8972762177682942  1.0000
  C   C30       1.0  0.1965728007082674  0.22189564374350818  0.10269149681109013  1.0000
  C   C31       1.0  0.452286634194671  0.8012903389563988  0.11550057024477679  1.0000
  C   C32       1.0  0.547617344309664  0.19868688320953964  0.8844893198783342  1.0000
  C   C33       1.0  0.2674780998935232  0.8098923664124129  0.8086131108780283  1.0000
  C   C34       1.0  0.7325309523191804  0.19008158019837407  0.1913935600816147  1.0000
  C   C35       1.0  0.21788033810769036  0.6541277236201425  0.6395475563073563  1.0000
  C   C36       1.0  0.7822304733499905  0.34586968495923304  0.3604512777550825  1.0000
  C   C37       1.0  0.7510977300090927  0.5416134314910295  0.7318429280223884  1.0000
  C   C38       1.0  0.24902022968866072  0.4583776333516668  0.26813287813742204  1.0000
  C   C39       1.0  0.7242822626555706  0.9163694289918637  0.6751773354130964  1.0000
  C   C40       1.0  0.2757766182030251  0.08362743060077801  0.324802951419244  1.0000
  C   C41       1.0  0.2945013057743395  0.7096124817653974  0.9489479421000911  1.0000
  C   C42       1.0  0.7054341379697887  0.29035797151135506  0.051036744136119715  1.0000
  N   N1        1.0  0.39056537370748157  0.69989153676012  0.14592784363767927  1.0000
  N   N2        1.0  0.6093072973323074  0.3000778610630307  0.8540536011119716  1.0000
  N   N3        1.0  0.2422436522584305  0.7093038821992438  0.850486753639608  1.0000
  N   N4        1.0  0.7577419604829101  0.2906637928943496  0.1494996411377799  1.0000
  N   N5        1.0  0.12694812787918153  0.8593590030984404  0.5572464193448144  1.0000
  N   N6        1.0  0.8731292555295693  0.14067365097908888  0.4427931145600611  1.0000
  O   O1        1.0  0.5293151246816094  0.7210945069904113  0.43353725307365937  1.0000
  O   O2        1.0  0.4701788996719216  0.2791771954396083  0.5665249134267472  1.0000
  O   O3        1.0  0.7864804225260043  0.6806879897374642  0.9256276072281229  1.0000
  O   O4        1.0  0.21335305818136865  0.3192553920809403  0.07433830366188943  1.0000
  O   O5        1.0  0.580322433928508  0.47931959977816524  0.7239253683855654  1.0000
  O   O6        1.0  0.4198249318143111  0.5206605484950373  0.2760654810691039  1.0000
  O   O7        1.0  0.8898659524001997  0.10316580026049853  0.6514009684442501  1.0000
  O   O8        1.0  0.1102975304376201  0.8968585016084276  0.3486763426269591  1.0000
  O   O9        1.0  0.7358570135493565  0.8977179092905205  0.4630720203961405  1.0000
  O   O10       1.0  0.2639857564703476  0.1024443745806991  0.5369350290801764  1.0000
  O   O11       1.0  0.5660841236058971  0.10665903213971012  0.6861840524094165  1.0000
  O   O12       1.0  0.4340387035919021  0.8933665906934468  0.31380836543853274  1.0000
  O   O13       1.0  0.8560981734977842  0.8936306910238513  0.9593987587374929  1.0000
  O   O14       1.0  0.14383428255816  0.10629432614678791  0.04058591794250082  1.0000
  O   O15       1.0  0.3227888943633345  0.9201132452650997  0.8559651615234931  1.0000
  O   O16       1.0  0.6772484346795123  0.0798533415755074  0.14404862908448735  1.0000
  O   O17       1.0  0.9290608315590418  0.5031437806684806  0.7459264165553423  1.0000
  O   O18       1.0  0.07107435381258402  0.4968843448352161  0.2540869718148216  1.0000
  O   O19       1.0  0.8116228259546716  0.7001224103943215  0.2621580643641864  1.0000
  O   O20       1.0  0.18841873215825442  0.2998905636451142  0.7379213326871581  1.0000
