data_image0
_chemical_formula_structural       Zn6H82C73O35
_chemical_formula_sum              "Zn6 H82 C73 O35"
_cell_length_a       18.576192246866842
_cell_length_b       18.746497323952106
_cell_length_c       18.893622766029324
_cell_angle_alpha    109.06379667906715
_cell_angle_beta     109.51574304127247
_cell_angle_gamma    109.16796199397697

_space_group_name_H-M_alt    "P 1"
_space_group_IT_number       1

loop_
  _space_group_symop_operation_xyz
  'x, y, z'

loop_
  _atom_site_type_symbol
  _atom_site_label
  _atom_site_symmetry_multiplicity
  _atom_site_fract_x
  _atom_site_fract_y
  _atom_site_fract_z
  _atom_site_occupancy
  Zn  Zn1       1.0  0.0022138732388227935  0.06481726993574448  0.5652211737469559  1.0000
  Zn  Zn2       1.0  0.004126515625458171  0.9393674023716441  0.4453627132547097  1.0000
  Zn  Zn3       1.0  0.4383508003076527  0.9350549260538442  0.9988206405901182  1.0000
  Zn  Zn4       1.0  0.5644208844924776  0.06711981640186342  0.009923702209391668  1.0000
  Zn  Zn5       1.0  0.4183812272903253  0.4893882994900309  0.4274523376371064  1.0000
  Zn  Zn6       1.0  0.5488547502889461  0.49460995886860804  0.5511524180747713  1.0000
  H   H1        1.0  0.7484800241861362  0.6801707482978185  0.5359501352941435  1.0000
  H   H2        1.0  0.5523322809431336  0.32172543094331724  0.3503048037799559  1.0000
  H   H3        1.0  0.3617976669493288  0.24611848358537713  0.21178979269578246  1.0000
  H   H4        1.0  0.5603973333856587  0.23033518383067528  0.22480764237697307  1.0000
  H   H5        1.0  0.3780697399674223  0.09641447482663781  0.17709014923827482  1.0000
  H   H6        1.0  0.5942337513561854  0.7748696236192032  0.7062962787850681  1.0000
  H   H7        1.0  0.5627802058005996  0.8902007941919975  0.7915065331604936  1.0000
  H   H8        1.0  0.6108762174992891  0.09178716230981372  0.23083432628619965  1.0000
  H   H9        1.0  0.5873056948045202  0.11079146874123319  0.3541423639558587  1.0000
  H   H10       1.0  0.5637906714391647  0.030236570123570096  0.5022198115823997  1.0000
  H   H11       1.0  0.5302951622955518  0.03683632333125791  0.40580154072555535  1.0000
  H   H12       1.0  0.7589083112956702  0.7158296139113105  0.3599487649773039  1.0000
  H   H13       1.0  0.6545936201154491  0.1906791239447472  0.5899742811963692  1.0000
  H   H14       1.0  0.6220851006298602  0.2007197072326576  0.4962551168293744  1.0000
  H   H15       1.0  0.4638216975976023  0.1305830058636843  0.46153650207384095  1.0000
  H   H16       1.0  0.5310052826203558  0.22429929216090722  0.5652574779969939  1.0000
  H   H17       1.0  0.4957718768570699  0.11961952986111157  0.5553477597003393  1.0000
  H   H18       1.0  0.8913868746964438  0.9003604917677347  0.6960798201644067  1.0000
  H   H19       1.0  0.9551300881362436  0.911676462452263  0.6441522293285757  1.0000
  H   H20       1.0  0.8738802129711302  0.7542403239920075  0.6666144521903234  1.0000
  H   H21       1.0  0.9314876078268027  0.7602524781269934  0.6088046271930807  1.0000
  H   H22       1.0  0.06786025258023197  0.8875334854474204  0.7439036789207378  1.0000
  H   H23       1.0  0.36080841739106256  0.0765012799277187  0.8048693481392563  1.0000
  H   H24       1.0  0.030067389014241986  0.7972631757646765  0.7600375622693747  1.0000
  H   H25       1.0  0.01009636980148795  0.8836194314150844  0.8023700576704442  1.0000
  H   H26       1.0  0.15096648656422218  0.006246339136225699  0.8894594615085296  1.0000
  H   H27       1.0  0.19783039350799209  0.12088380086073156  0.9565654386048977  1.0000
  H   H28       1.0  0.21840275679679882  0.0559756795246713  0.0037393087280009245  1.0000
  H   H29       1.0  0.09728729294131  0.1866325931258501  0.4321485925190133  1.0000
  H   H30       1.0  0.0024675185260321056  0.1818631250386673  0.3604883499986827  1.0000
  H   H31       1.0  0.1388855532475901  0.14940333622362087  0.31840631327101226  1.0000
  H   H32       1.0  0.04084483807047689  0.13414555855198526  0.2422283777487522  1.0000
  H   H33       1.0  0.08724706613817547  0.2919765244631306  0.3267806899823498  1.0000
  H   H34       1.0  0.1913446734050552  0.11908204158491739  0.8294636612110153  1.0000
  H   H35       1.0  0.16468892102568594  0.2790703500862151  0.29597889552614737  1.0000
  H   H36       1.0  0.18773618926721264  0.30993497937191705  0.403053634017553  1.0000
  H   H37       1.0  0.3254865466914935  0.5821700045521964  0.679504874849961  1.0000
  H   H38       1.0  0.35107233293461343  0.5321900727074577  0.6004943749420875  1.0000
  H   H39       1.0  0.2138935369990307  0.5911292211178676  0.5642228958090882  1.0000
  H   H40       1.0  0.23549592113992196  0.5307104513144553  0.48807444277007767  1.0000
  H   H41       1.0  0.18838517111883846  0.40791561499574397  0.5231427963492976  1.0000
  H   H42       1.0  0.10253793990401047  0.43032425736221563  0.4826937130602644  1.0000
  H   H43       1.0  0.16249571151718814  0.468690849321426  0.5948988589307119  1.0000
  H   H44       1.0  0.571640554965974  0.7399547501293994  0.9114662324225834  1.0000
  H   H45       1.0  0.2040416255569041  0.9820885045986002  0.6972585745696733  1.0000
  H   H46       1.0  0.467367996148603  0.6508607872548706  0.8742205042497488  1.0000
  H   H47       1.0  0.49695949648359067  0.7592695126130594  0.9454037954587735  1.0000
  H   H48       1.0  0.02033874246630069  0.8730254018022735  0.14682674441690585  1.0000
  H   H49       1.0  0.9045529773447002  0.831686839065533  0.10000855828383239  1.0000
  H   H50       1.0  0.033804050202761046  0.9046113627932755  0.2903234096240084  1.0000
  H   H51       1.0  0.9201529439780883  0.8687633351285697  0.24720652438259802  1.0000
  H   H52       1.0  0.8850704278802792  0.717753971389662  0.15038574823679332  1.0000
  H   H53       1.0  0.9510462062707177  0.7512656059263634  0.26014016396602807  1.0000
  H   H54       1.0  0.9988612705520692  0.7524173342742554  0.19320416362100432  1.0000
  H   H55       1.0  0.9543042080378257  0.9199623549595302  0.032191368224893206  1.0000
  H   H56       1.0  0.4015528778550533  0.22297288749827257  0.49683538300442365  1.0000
  H   H57       1.0  0.939803793754173  0.012025362221521597  0.04353372945868729  1.0000
  H   H58       1.0  0.8763617401373838  0.915023567774405  0.9407297858882872  1.0000
  H   H59       1.0  0.6830240000652807  0.9991295167127986  0.947908926786802  1.0000
  H   H60       1.0  0.7591428829195975  0.9609587163992471  0.9477068669922559  1.0000
  H   H61       1.0  0.7999962682693535  0.13015215763203966  0.09172896652150088  1.0000
  H   H62       1.0  0.8766441665699459  0.09486963817884939  0.08917813141152203  1.0000
  H   H63       1.0  0.8568137398605061  0.1024644198866582  0.9528157855604534  1.0000
  H   H64       1.0  0.8930122959839153  0.20418923470030137  0.03938788894691209  1.0000
  H   H65       1.0  0.7815223053107799  0.14030866239928486  0.9568435807997702  1.0000
  H   H66       1.0  0.7268818320276296  0.8871825122556415  0.42187129562472575  1.0000
  H   H67       1.0  0.27818205584443945  0.29803291757134087  0.5058656603330647  1.0000
  H   H68       1.0  0.6468657740623627  0.9216817155285639  0.409528456230511  1.0000
  H   H69       1.0  0.7956678905063299  0.967923888787375  0.5797249778268848  1.0000
  H   H70       1.0  0.7243245791205268  0.012488713975251602  0.5716682368210542  1.0000
  H   H71       1.0  0.5941717801742215  0.8617932633264614  0.4962201233844468  1.0000
  H   H72       1.0  0.6715964523162938  0.8868332639787085  0.5988458761242939  1.0000
  H   H73       1.0  0.6658254415289235  0.8174146231737112  0.5049977543454603  1.0000
  H   H74       1.0  0.5354555995890423  0.555052181820173  0.205924926221293  1.0000
  H   H75       1.0  0.6496714570545166  0.618378032751842  0.24858133590976905  1.0000
  H   H76       1.0  0.5278956365693688  0.6885951547075704  0.27742232945666945  1.0000
  H   H77       1.0  0.6410017243343445  0.7532467683649384  0.31806344633898215  1.0000
  H   H78       1.0  0.25731300626674175  0.08316835908244968  0.4335170422616272  1.0000
  H   H79       1.0  0.6168457951603514  0.7011101437934143  0.16609791269048194  1.0000
  H   H80       1.0  0.5537572202016321  0.7513819815040462  0.18273617164426528  1.0000
  H   H81       1.0  0.502752322754361  0.6366406264826733  0.12471985068231803  1.0000
  H   H82       1.0  0.23941439681494356  0.21557452360691087  0.5647993096508515  1.0000
  C   C1        1.0  0.8873647082747382  0.8643297438734688  0.4858135304667285  1.0000
  C   C2        1.0  0.738868101765206  0.04318310629868449  0.4027658590768014  1.0000
  C   C3        1.0  0.6797307627380961  0.6570528523179391  0.4104341457228813  1.0000
  C   C4        1.0  0.8991801794565503  0.032503703063227404  0.4090034247580761  1.0000
  C   C5        1.0  0.6846519088464477  0.6439381769598073  0.47864580295962605  1.0000
  C   C6        1.0  0.7550174687400356  0.7228208326392077  0.41781904574051504  1.0000
  C   C7        1.0  0.820820128004776  0.7974222484783199  0.491175870350709  1.0000
  C   C8        1.0  0.28624493055535544  0.0731999047972351  0.8683889203247689  1.0000
  C   C9        1.0  0.3519150001316404  0.06628802209510098  0.8554851761186341  1.0000
  C   C10       1.0  0.2169913405051815  0.07717133774430349  0.806464903142981  1.0000
  C   C11       1.0  0.182339508746999  0.027599746393519812  0.7211503947897882  1.0000
  C   C12       1.0  0.8467603251210106  0.02304924672180419  0.26417011260664947  1.0000
  C   C13       1.0  0.3438360888167011  0.22481843341191873  0.49807284655382483  1.0000
  C   C14       1.0  0.33905666007745344  0.2981433697279741  0.5133704432456128  1.0000
  C   C15       1.0  0.27140390159195954  0.14657644562177546  0.4787788570568878  1.0000
  C   C16       1.0  0.1411933587385192  0.0824085061006485  0.4982556904318401  1.0000
  C   C17       1.0  0.22176265178482166  0.15225434182855216  0.5162292151258966  1.0000
  C   C18       1.0  0.45430404472285346  0.06712174033015829  0.11536499832501329  1.0000
  C   C19       1.0  0.6450027076551521  0.025419786182666798  0.12009319232321058  1.0000
  C   C20       1.0  0.48920028657038034  0.8727399167881414  0.8870747521762111  1.0000
  C   C21       1.0  0.4161012091246263  0.0504379577916723  0.9096995528036019  1.0000
  C   C22       1.0  0.4287523991600324  0.35747400197426765  0.3430284512105573  1.0000
  C   C23       1.0  0.7145311454457896  0.03010267548295789  0.19393027957759304  1.0000
  C   C24       1.0  0.6156601635093182  0.5857684762662174  0.4845022174022731  1.0000
  C   C25       1.0  0.4682641847282695  0.6143853617619469  0.5825491318013718  1.0000
  C   C26       1.0  0.4055371796602146  0.377894774644794  0.5260937064021505  1.0000
  C   C27       1.0  0.49278636723713015  0.27414533058509244  0.28815323065280296  1.0000
  C   C28       1.0  0.11303847473135423  0.0264606925267472  0.6527683671832847  1.0000
  C   C29       1.0  0.4219768088383233  0.28495117255519636  0.27397885657221377  1.0000
  C   C30       1.0  0.499195676273601  0.2094735738119908  0.22707879897532735  1.0000
  C   C31       1.0  0.43837485539472004  0.1250140329147058  0.17515078772593284  1.0000
  C   C32       1.0  0.5343744741888299  0.7585596665594777  0.7107436454792974  1.0000
  C   C33       1.0  0.4630916784170651  0.6804000154760814  0.6489875888054898  1.0000
  C   C34       1.0  0.7100081569189385  0.0540452742494466  0.27077011764339426  1.0000
  C   C35       1.0  0.5327879364815118  0.8229229988177593  0.7773952023839427  1.0000
  C   C36       1.0  0.4967459966380048  0.8056432601584902  0.8256165109587031  1.0000
  C   C37       1.0  0.922753577814255  0.0217586508990024  0.26199730142332806  1.0000
  C   C38       1.0  0.9176534192227026  0.978556651836172  0.18384614928795184  1.0000
  C   C39       1.0  0.8434818750906673  0.9512681878198421  0.1050038640821781  1.0000
  C   C40       1.0  0.7788255136475328  0.9721246301409818  0.10740791868778382  1.0000
  C   C41       1.0  0.777840384620795  0.0073785991195905  0.18661655607435526  1.0000
  C   C42       1.0  0.5834974581934915  0.06963645541549819  0.47285147998154303  1.0000
  C   C43       1.0  0.600212715052983  0.16065530215186638  0.5242496412413971  1.0000
  C   C44       1.0  0.5182385179044928  0.15872834802308228  0.5267805100048761  1.0000
  C   C45       1.0  0.7645445075793588  0.04576141716123769  0.3395431929741406  1.0000
  C   C46       1.0  0.9030411381033117  0.8643875597892218  0.6461679661556303  1.0000
  C   C47       1.0  0.9269377110559132  0.7992114817784213  0.6634781840534387  1.0000
  C   C48       1.0  0.013573988077524815  0.8444030500608974  0.7470253438300604  1.0000
  C   C49       1.0  0.20842725805542264  0.0648368476395831  0.9473527378492435  1.0000
  C   C50       1.0  0.048310339460712705  0.15598225150438338  0.36397295707764243  1.0000
  C   C51       1.0  0.09118658550668361  0.1728592706234338  0.3108312315350262  1.0000
  C   C52       1.0  0.1349492152714404  0.26854146611179885  0.3356244858489532  1.0000
  C   C53       1.0  0.32499623746370093  0.5757827021194188  0.6192741621138893  1.0000
  C   C54       1.0  0.23353296552760844  0.5412532729886621  0.5480488392879438  1.0000
  C   C55       1.0  0.16813969823848401  0.4575303754218041  0.5365795247011107  1.0000
  C   C56       1.0  0.8366863867456472  0.03641001565610938  0.3377051697960098  1.0000
  C   C57       1.0  0.5021331817959549  0.7191705164712942  0.8920184249462866  1.0000
  C   C58       1.0  0.9681438663267766  0.8775949451259775  0.15993551283758464  1.0000
  C   C59       1.0  0.9693979888448254  0.8579548092702963  0.23225613132671438  1.0000
  C   C60       1.0  0.9500986264725952  0.7648565587981861  0.20759713427470658  1.0000
  C   C61       1.0  0.9062658513166326  0.9408237492071901  0.01069766746757483  1.0000
  C   C62       1.0  0.742348111006052  0.001145178185368001  0.989193168346482  1.0000
  C   C63       1.0  0.8176937047488834  0.0939605403775872  0.0481691377821462  1.0000
  C   C64       1.0  0.8383137779618507  0.1374872936343294  0.9964204351426178  1.0000
  C   C65       1.0  0.7146144723764039  0.9397551213421735  0.4520988892566181  1.0000
  C   C66       1.0  0.728869282879117  0.9545208172477968  0.540700966228357  1.0000
  C   C67       1.0  0.6479020567301957  0.0797636744903514  0.2795202649325503  1.0000
  C   C68       1.0  0.6614596923331604  0.8758200783975097  0.5346554157048329  1.0000
  C   C69       1.0  0.5943900708463659  0.6157247134072675  0.2595989272651023  1.0000
  C   C70       1.0  0.5818990431249987  0.6929852563939534  0.2638150580972152  1.0000
  C   C71       1.0  0.5627267482687301  0.6956420435315707  0.1797466618135033  1.0000
  C   C72       1.0  0.6337042162315711  0.08916363872260288  0.3479661973733172  1.0000
  C   C73       1.0  0.6768529978552636  0.0677251340726173  0.4086009353075114  1.0000
  O   O1        1.0  0.9096886536878658  0.9424433161157636  0.5327912431214655  1.0000
  O   O2        1.0  0.4894701448917901  0.39051255137410107  0.41934152776325817  1.0000
  O   O3        1.0  0.5350952830448464  0.561371443079473  0.43774829017424116  1.0000
  O   O4        1.0  0.9150476815101598  0.8374505392680334  0.4342482288280466  1.0000
  O   O5        1.0  0.6438097110348123  0.5644226637084984  0.543337065177873  1.0000
  O   O6        1.0  0.40937455218867314  0.5803953934185984  0.5035005284531522  1.0000
  O   O7        1.0  0.5282636932941998  0.5958429909551909  0.6089578367054429  1.0000
  O   O8        1.0  0.3760864189398064  0.4160612292189184  0.4895959051779286  1.0000
  O   O9        1.0  0.4878433494595811  0.4037010481363481  0.57111735758307  1.0000
  O   O10       1.0  0.9379455601756987  0.09480104035814207  0.4865838024991619  1.0000
  O   O11       1.0  0.9093279486052098  0.9659665056283018  0.38796621404186743  1.0000
  O   O12       1.0  0.516644107599106  0.10020605163747119  0.10212744154693353  1.0000
  O   O13       1.0  0.1040604258578668  0.10842923638354308  0.5384294958722863  1.0000
  O   O14       1.0  0.11123248202020622  0.0022743571308936  0.4449887658090078  1.0000
  O   O15       1.0  0.08439073129472521  0.0800689793500595  0.6734392399213506  1.0000
  O   O16       1.0  0.08560502231657816  0.9704119171510966  0.5763873408630644  1.0000
  O   O17       1.0  0.4031434120762967  0.984376622951437  0.07951664628735235  1.0000
  O   O18       1.0  0.6610746361461822  0.0685444415136018  0.4745032593124706  1.0000
  O   O19       1.0  0.8206159972195691  0.8207433369665934  0.566873716122501  1.0000
  O   O20       1.0  0.28713437858803553  0.07960642495205413  0.9427812012962989  1.0000
  O   O21       1.0  0.001209279802417004  0.0643769112471162  0.33757916654092673  1.0000
  O   O22       1.0  0.3822063078511492  0.662063393536009  0.638576203870734  1.0000
  O   O23       1.0  0.5675113985781906  0.9643714591968475  0.08405835338921004  1.0000
  O   O24       1.0  0.4604879776290716  0.7241024289510705  0.8155687518694351  1.0000
  O   O25       1.0  0.9859682707555564  0.9657325474801866  0.18163871476929933  1.0000
  O   O26       1.0  0.834702497571911  0.9065766511213839  0.02593363392298186  1.0000
  O   O27       1.0  0.7139075980337992  0.9593624137215712  0.035212133872079054  1.0000
  O   O28       1.0  0.7755106368305816  0.0165237575250998  0.4577109392221459  1.0000
  O   O29       1.0  0.6039326480081185  0.604771824100304  0.33371138352407564  1.0000
  O   O30       1.0  0.667581646051083  0.0880153353993975  0.10305412971013078  1.0000
  O   O31       1.0  0.4328553223021316  0.843358239134659  0.9100869624031704  1.0000
  O   O32       1.0  0.5358978368336551  0.9523703710487864  0.9119030194773147  1.0000
  O   O33       1.0  0.3879852553004212  0.9872874717444942  0.9228437089177461  1.0000
  O   O34       1.0  0.49826010157059386  0.1013262582934544  0.9387117437274244  1.0000
  O   O35       1.0  0.37311409560843606  0.3843454432709663  0.32145568893215426  1.0000
