data_image0
_chemical_formula_structural       Zn6H48C96N72
_chemical_formula_sum              "Zn6 H48 C96 N72"
_cell_length_a       13.491072299123893
_cell_length_b       16.138264507791003
_cell_length_c       16.507480831401367
_cell_angle_alpha    110.05287775091386
_cell_angle_beta     100.50688254865562
_cell_angle_gamma    109.81333873224554

_space_group_name_H-M_alt    "P 1"
_space_group_IT_number       1

loop_
  _space_group_symop_operation_xyz
  'x, y, z'

loop_
  _atom_site_type_symbol
  _atom_site_label
  _atom_site_symmetry_multiplicity
  _atom_site_fract_x
  _atom_site_fract_y
  _atom_site_fract_z
  _atom_site_occupancy
  Zn  Zn1       1.0  0.4974524580873235  0.5726557752707819  0.17372724316808788  1.0000
  Zn  Zn2       1.0  0.5025472321668261  0.4273437888411493  0.8262730481756366  1.0000
  Zn  Zn3       1.0  0.16870843249154885  0.45831282169781656  0.5741459133451059  1.0000
  Zn  Zn4       1.0  0.831292721436  0.541689670352781  0.4258549657364626  1.0000
  Zn  Zn5       1.0  0.5863608534317136  0.2023008512930673  0.5078916481107072  1.0000
  Zn  Zn6       1.0  0.4136388250184168  0.7977001731836707  0.4921073067770507  1.0000
  H   H1        1.0  0.10953278434448065  0.31106285364176495  0.11856887358305102  1.0000
  H   H2        1.0  0.8904673216211165  0.6889345091879164  0.8814301483476896  1.0000
  H   H3        1.0  0.14866355070799384  0.32253565801450884  0.2754782200617996  1.0000
  H   H4        1.0  0.8513354135283607  0.6774624393420295  0.7245208686886927  1.0000
  H   H5        1.0  0.3476272918809826  0.4233749669886748  0.3869525714032562  1.0000
  H   H6        1.0  0.6523720334246336  0.5766238646742465  0.6130474215519544  1.0000
  H   H7        1.0  0.4937946606031288  0.5136183054169691  0.336006703844717  1.0000
  H   H8        1.0  0.5062035425358006  0.4863797966932352  0.6639934807538098  1.0000
  H   H9        1.0  0.9551515820032891  0.270511012130008  0.8817280926018827  1.0000
  H   H10       1.0  0.04484926566340151  0.7294863552328791  0.11827286256185232  1.0000
  H   H11       1.0  0.8089230620164186  0.10524794040074428  0.8436280455598251  1.0000
  H   H12       1.0  0.19107700499029776  0.8947508957953828  0.1563738806283794  1.0000
  H   H13       1.0  0.8691483970797194  0.9924001532384068  0.8928238821549999  1.0000
  H   H14       1.0  0.13085130885772858  0.007597948651337598  0.1071771398284938  1.0000
  H   H15       1.0  0.07273506485901042  0.051611167171593295  0.9763170510335826  1.0000
  H   H16       1.0  0.9272646722787882  0.9483854650664512  0.023682278324848535  1.0000
  H   H17       1.0  0.9850916303013477  0.10205824605738906  0.3170174282384012  1.0000
  H   H18       1.0  0.014905415591286466  0.8979405980091641  0.6829852464447015  1.0000
  H   H19       1.0  0.1631533896814261  0.09126005952752081  0.306147322547929  1.0000
  H   H20       1.0  0.8368462654931077  0.908740976093476  0.6938552672370619  1.0000
  H   H21       1.0  0.34632008772224043  0.2352216162587054  0.4095212769541732  1.0000
  H   H22       1.0  0.6536787945508422  0.7647808844807784  0.5904810722228788  1.0000
  H   H23       1.0  0.34314566679863373  0.3865007803636117  0.5187479271436075  1.0000
  H   H24       1.0  0.6568528307971274  0.61350390679911  0.4812508449167794  1.0000
  H   H25       1.0  0.8852131438787723  0.19278288435361904  0.2143278935360939  1.0000
  H   H26       1.0  0.11478950120949342  0.8072196130486374  0.7856756403790541  1.0000
  H   H27       1.0  0.7951486268324927  0.037285333469704106  0.06685263255326392  1.0000
  H   H28       1.0  0.20485663529620968  0.9627193517722431  0.9331496048313568  1.0000
  H   H29       1.0  0.6767632914916886  0.879471406233364  0.06947792436039879  1.0000
  H   H30       1.0  0.323239769141786  0.12053034467933088  0.9305211862371793  1.0000
  H   H31       1.0  0.6500603739425515  0.8851617359149698  0.21644648437003156  1.0000
  H   H32       1.0  0.3499412073342398  0.11483854928125228  0.7835513078499334  1.0000
  H   H33       1.0  0.9660734346788118  0.242009834630494  0.7083477199077352  1.0000
  H   H34       1.0  0.03392814271870742  0.7579904524231083  0.29165067812844114  1.0000
  H   H35       1.0  0.027567679483091488  0.4081350540438606  0.8262909635700596  1.0000
  H   H36       1.0  0.9724335174488343  0.5918645079902304  0.17370955934242718  1.0000
  H   H37       1.0  0.9112518711635144  0.5002269645497747  0.8116700654749067  1.0000
  H   H38       1.0  0.0887481958432019  0.4997718716463595  0.18833186071330488  1.0000
  H   H39       1.0  0.736056315647673  0.4155997843479541  0.6758127242538025  1.0000
  H   H40       1.0  0.26394634883691737  0.5844027037674309  0.3241877805803171  1.0000
  H   H41       1.0  0.8912029460554081  0.0350928684813496  0.6816158850571485  1.0000
  H   H42       1.0  0.1087975599383383  0.964903755288276  0.31838113682083957  1.0000
  H   H43       1.0  0.09594692128986539  0.09288473095740102  0.7693889914968752  1.0000
  H   H44       1.0  0.904054302796922  0.9071148180750582  0.2306072907021743  1.0000
  H   H45       1.0  0.2408207888090601  0.1848506910557219  0.717330797072961  1.0000
  H   H46       1.0  0.7591793169903055  0.8151481265666477  0.2826650709531934  1.0000
  H   H47       1.0  0.17870341733510733  0.21575660006929104  0.5833415486439862  1.0000
  H   H48       1.0  0.8212947895168624  0.7842429549762214  0.41665487623374986  1.0000
  C   C1        1.0  0.45057033302971655  0.5868047527169722  0.9990042280337053  1.0000
  C   C2        1.0  0.5494289688340784  0.41319554488288895  0.0009962459141518933  1.0000
  C   C3        1.0  0.2712651509290821  0.43823387106719025  0.8116417365255801  1.0000
  C   C4        1.0  0.7287345470835971  0.5617656893299879  0.18835734318572855  1.0000
  C   C5        1.0  0.3529923339650836  0.5002397948774231  0.9814578489150136  1.0000
  C   C6        1.0  0.6470062184390882  0.4997605019039852  0.018541903432264865  1.0000
  C   C7        1.0  0.26558660180941723  0.4331435710998476  0.8978842582916473  1.0000
  C   C8        1.0  0.7344127234961986  0.5668552605630736  0.10211573466357042  1.0000
  C   C9        1.0  0.1797460050081057  0.3416985663355874  0.968525846221617  1.0000
  C   C10       1.0  0.8202537125671371  0.6582995299820241  0.03147335831326368  1.0000
  C   C11       1.0  0.2676978341583265  0.4076969995983006  0.05332630006743237  1.0000
  C   C12       1.0  0.7323026094347184  0.5923025634747107  0.9466741070606731  1.0000
  C   C13       1.0  0.2813177573561916  0.40539243308426626  0.14370752510355092  1.0000
  C   C14       1.0  0.7186830785064658  0.5946063946434351  0.8562920936042177  1.0000
  C   C15       1.0  0.19427088392990294  0.3538862235156656  0.16743726007721446  1.0000
  C   C16       1.0  0.8057277153579177  0.6461111413918558  0.832561530284771  1.0000
  C   C17       1.0  0.21675969653966834  0.3598934240359953  0.25565359283772443  1.0000
  C   C18       1.0  0.7832407704951975  0.640104673100076  0.7443463332977346  1.0000
  C   C19       1.0  0.32569316002523857  0.41619439672486885  0.3174129673106094  1.0000
  C   C20       1.0  0.6743058042111157  0.5838037006316695  0.6825861214398827  1.0000
  C   C21       1.0  0.40774957845046345  0.4674212002380925  0.2898016701127801  1.0000
  C   C22       1.0  0.5922505001940479  0.5325776303859087  0.7101984386268115  1.0000
  C   C23       1.0  0.0886371785745652  0.247094458627771  0.9507566948006956  1.0000
  C   C24       1.0  0.9113618052243451  0.7529021746491934  0.049242518773361575  1.0000
  C   C25       1.0  0.9772969583061694  0.22031660844245238  0.9028739095421445  1.0000
  C   C26       1.0  0.02270425818831945  0.7796814895120714  0.09712673819389998  1.0000
  C   C27       1.0  0.8959015167393717  0.1280903412498162  0.8822267282511265  1.0000
  C   C28       1.0  0.1040985541466029  0.871908493088938  0.1177745921208739  1.0000
  C   C29       1.0  0.9296331560618467  0.0657139292336382  0.9086440039081796  1.0000
  C   C30       1.0  0.07036694602448512  0.9342834354534232  0.09135562383877263  1.0000
  C   C31       1.0  0.0430035847688828  0.0988922113143644  0.9556515540216921  1.0000
  C   C32       1.0  0.9569957639785541  0.9011051544116101  0.04434795794087172  1.0000
  C   C33       1.0  0.9665624922969016  0.4856878030077069  0.5913759140655515  1.0000
  C   C34       1.0  0.03343867343467363  0.5143132286780768  0.4086263014719904  1.0000
  C   C35       1.0  0.7178794053247016  0.3609714304710322  0.4607219770659938  1.0000
  C   C36       1.0  0.28212287076952686  0.6390317911322825  0.5392787103722583  1.0000
  C   C37       1.0  0.9201106980206004  0.3894048835107141  0.5148545893218781  1.0000
  C   C38       1.0  0.07989010664170583  0.6105954138686797  0.48514672201094555  1.0000
  C   C39       1.0  0.8076826209145408  0.3290746756161624  0.4582148698697993  1.0000
  C   C40       1.0  0.19231777967411995  0.6709278174733554  0.5417858934273879  1.0000
  C   C41       1.0  0.8568949963555212  0.21040585295803993  0.37510959910210323  1.0000
  C   C42       1.0  0.1431035521693857  0.7895944456807341  0.6248907590613798  1.0000
  C   C43       1.0  0.971376326984533  0.271156781373648  0.4292970692654734  1.0000
  C   C44       1.0  0.0286214526844261  0.728843525733552  0.5707055963784526  1.0000
  C   C45       1.0  0.07045897841361885  0.2527977579230977  0.4192897802650109  1.0000
  C   C46       1.0  0.929538832455691  0.7472010795324094  0.5807111927538529  1.0000
  C   C47       1.0  0.06534261648315005  0.16462741840501843  0.3590469591543908  1.0000
  C   C48       1.0  0.9346551554272793  0.8353728924169416  0.640956918121944  1.0000
  C   C49       1.0  0.16473957644296178  0.15810680194806534  0.35414794550997203  1.0000
  C   C50       1.0  0.8352582305470905  0.8418920373648219  0.6458536333251033  1.0000
  C   C51       1.0  0.26704969376257987  0.23755634011526888  0.41131203854397574  1.0000
  C   C52       1.0  0.7329487962408836  0.7624468959695181  0.5886910990534135  1.0000
  C   C53       1.0  0.2658527953131013  0.3219636903256812  0.47176029945859455  1.0000
  C   C54       1.0  0.7341442504132941  0.6780366085335601  0.5282392213199216  1.0000
  C   C55       1.0  0.8127494169091776  0.1173742534584292  0.29001198601188355  1.0000
  C   C56       1.0  0.18725063441424783  0.8826260449598848  0.709989209536559  1.0000
  C   C57       1.0  0.8332491923389043  0.12246664693481792  0.21126777144641556  1.0000
  C   C58       1.0  0.16675083166342108  0.8775351192778159  0.7887345109108851  1.0000
  C   C59       1.0  0.7831332814174129  0.036136721273301496  0.13014167663823878  1.0000
  C   C60       1.0  0.21686901036011344  0.963865038107819  0.8698597414397824  1.0000
  C   C61       1.0  0.7166249090347989  0.9489845921559165  0.13096520071217546  1.0000
  C   C62       1.0  0.28337663716236955  0.0510171645493784  0.8690348899490559  1.0000
  C   C63       1.0  0.7013889764555187  0.9521119627725125  0.21335806112382008  1.0000
  C   C64       1.0  0.2986129581320042  0.047889060444845186  0.7866418469332785  1.0000
  C   C65       1.0  0.4920580587411152  0.9954744986962396  0.38089539679256756  1.0000
  C   C66       1.0  0.5079412547604818  0.0045257933314886  0.6191032597066696  1.0000
  C   C67       1.0  0.575505851507735  0.83773720104584  0.3797053924397956  1.0000
  C   C68       1.0  0.4244938347009182  0.16226381971614498  0.6202923508155536  1.0000
  C   C69       1.0  0.600551635763864  0.012937936892527098  0.4362854099863611  1.0000
  C   C70       1.0  0.3994469282781097  0.9870623543167485  0.5637125249122975  1.0000
  C   C71       1.0  0.6433723034667479  0.9442435564131768  0.43451843718337096  1.0000
  C   C72       1.0  0.35662774381117407  0.055758198655197995  0.5654802102766896  1.0000
  C   C73       1.0  0.8132159481004777  0.06873992059671959  0.5405736997152957  1.0000
  C   C74       1.0  0.18678300433185052  0.9312596371246258  0.45942405257923014  1.0000
  C   C75       1.0  0.7664315555721258  0.13680042630128494  0.5541830726362421  1.0000
  C   C76       1.0  0.23356663188351218  0.863199138031106  0.44581638132252255  1.0000
  C   C77       1.0  0.8164074268139103  0.23843592477459907  0.6280773858876074  1.0000
  C   C78       1.0  0.183592632268045  0.761564369928969  0.3719225980284193  1.0000
  C   C79       1.0  0.9154970607003748  0.2807474126058552  0.701913547416986  1.0000
  C   C80       1.0  0.08450412442752499  0.7192536097930499  0.2980856390395276  1.0000
  C   C81       1.0  0.949834287053747  0.37509616722756073  0.7695356057352782  1.0000
  C   C82       1.0  0.05016504213114101  0.6249026625779805  0.23046378140372786  1.0000
  C   C83       1.0  0.8859358466126466  0.42550912586028017  0.7618348286969265  1.0000
  C   C84       1.0  0.11406532299819346  0.5744919039681304  0.23816678102440386  1.0000
  C   C85       1.0  0.7886044696631771  0.3791020538781779  0.6858411051778363  1.0000
  C   C86       1.0  0.21139634275766633  0.6208982397864631  0.31415899452257184  1.0000
  C   C87       1.0  0.9323659336652029  0.09691754700214969  0.5891612269342873  1.0000
  C   C88       1.0  0.06763228111152823  0.9030805495359217  0.4108371402156266  1.0000
  C   C89       1.0  0.958628928238511  0.07362526863592221  0.6619193572726019  1.0000
  C   C90       1.0  0.04137118936488086  0.9263720886216333  0.3380778472095258  1.0000
  C   C91       1.0  0.07101190296675947  0.10637221635914067  0.7102271728592697  1.0000
  C   C92       1.0  0.9289874690562742  0.8936251382225822  0.2897687042060611  1.0000
  C   C93       1.0  0.15199973733809455  0.15844561257901546  0.6822597047456116  1.0000
  C   C94       1.0  0.8479988735875208  0.8415517467563728  0.3177372681677538  1.0000
  C   C95       1.0  0.11706644791829038  0.1762562468066307  0.6075112212204062  1.0000
  C   C96       1.0  0.8829306679673437  0.8237411090344722  0.39248370267558397  1.0000
  N   N1        1.0  0.5325676987929739  0.6334454098409027  0.08154779410087087  1.0000
  N   N2        1.0  0.4674316303919141  0.36655341996463864  0.9184515930381423  1.0000
  N   N3        1.0  0.6113226988420235  0.7091355773330432  0.07931909335465534  1.0000
  N   N4        1.0  0.38867624583176746  0.29086398410305486  0.9206798705722791  1.0000
  N   N5        1.0  0.5769116014739238  0.7081078803945005  0.997698861272667  1.0000
  N   N6        1.0  0.423086947050983  0.2918924182442808  0.0023014968908085793  1.0000
  N   N7        1.0  0.4763957563695555  0.6318999218800484  0.9457213011156895  1.0000
  N   N8        1.0  0.5236016738679297  0.3680996453486358  0.05427864287489833  1.0000
  N   N9        1.0  0.3570025775229765  0.4354792412390366  0.7805656559862229  1.0000
  N   N10       1.0  0.6429974738004417  0.5645210571792773  0.21943553956222672  1.0000
  N   N11       1.0  0.33309177589878647  0.439038328083704  0.7003376287304663  1.0000
  N   N12       1.0  0.6669105158787403  0.5609634312974165  0.2996637893475551  1.0000
  N   N13       1.0  0.2368285817620545  0.44473843682533937  0.6851753699983975  1.0000
  N   N14       1.0  0.7631736904529093  0.5552647866353483  0.3148259232560663  1.0000
  N   N15       1.0  0.19476693017232793  0.443739217580692  0.7525826390563283  1.0000
  N   N16       1.0  0.8052349809733742  0.5562632715736128  0.24741774999341717  1.0000
  N   N17       1.0  0.3498022010109735  0.484905176822565  0.056045553196277346  1.0000
  N   N18       1.0  0.6501982425820713  0.5150943862504462  0.943954853931828  1.0000
  N   N19       1.0  0.1793710800354801  0.35794761983641615  0.893910350621816  1.0000
  N   N20       1.0  0.820628998609024  0.6420512107875852  0.10608975811777557  1.0000
  N   N21       1.0  0.385996057012484  0.46334873199406695  0.20570105951880893  1.0000
  N   N22       1.0  0.6140025149542437  0.5366501007077742  0.7942988176520275  1.0000
  N   N23       1.0  0.12160154599204989  0.1879534001294445  0.9775727411537221  1.0000
  N   N24       1.0  0.8783985560942825  0.8120439645576171  0.022426886593223155  1.0000
  N   N25       1.0  0.0789333793139163  0.5352368176766119  0.6322412369237398  1.0000
  N   N26       1.0  0.9210677941761959  0.46476421029442605  0.36775976698139357  1.0000
  N   N27       1.0  0.0980389361154153  0.6197458666656104  0.6999170712189483  1.0000
  N   N28       1.0  0.9019633517828466  0.3802558945728832  0.3000849526752773  1.0000
  N   N29       1.0  0.9996223328483183  0.6207837499797861  0.6995630842515014  1.0000
  N   N30       1.0  0.00038033568176843536  0.37921728148553063  0.3004399686710073  1.0000
  N   N31       1.0  0.9153938404228227  0.5376172256629986  0.6316749368972694  1.0000
  N   N32       1.0  0.08460732530875247  0.4623838060227854  0.3683272786402725  1.0000
  N   N33       1.0  0.6210858607765958  0.31304087109894135  0.4700058420640972  1.0000
  N   N34       1.0  0.37891605036910647  0.6869616180553635  0.5299945469856484  1.0000
  N   N35       1.0  0.5585725562383742  0.36215870963211216  0.4627174501211044  1.0000
  N   N36       1.0  0.44142860156843966  0.6378437805611056  0.5372828231442597  1.0000
  N   N37       1.0  0.6147966380411348  0.4363340194047042  0.44855944294063493  1.0000
  N   N38       1.0  0.38520451588641436  0.5636684726458939  0.5514414361409338  1.0000
  N   N39       1.0  0.7157063213595832  0.4377560710787804  0.4470917678854107  1.0000
  N   N40       1.0  0.28429483256795857  0.5622464209718173  0.5529091111961578  1.0000
  N   N41       1.0  0.9973801414120588  0.35746223842436103  0.4981267084565104  1.0000
  N   N42       1.0  0.00261953332503136  0.642537333117076  0.5018760061520382  1.0000
  N   N43       1.0  0.7782025874625236  0.23986264241145255  0.39265616651375274  1.0000
  N   N44       1.0  0.22179857034429046  0.7601398477817651  0.6073441067516113  1.0000
  N   N45       1.0  0.17063106917229484  0.32977530779232467  0.4746673852297931  1.0000
  N   N46       1.0  0.8293655804052165  0.6702257282695995  0.5253335297852644  1.0000
  N   N47       1.0  0.7474745492351146  0.03470279327078169  0.2921234788847896  1.0000
  N   N48       1.0  0.25252587479536714  0.9652982338817965  0.707876803419758  1.0000
  N   N49       1.0  0.46474009188755616  0.07157117066881108  0.3967176187668073  1.0000
  N   N50       1.0  0.5352577344988134  0.9284276593571974  0.603280930987232  1.0000
  N   N51       1.0  0.36069180889991503  0.03443334293714169  0.3387706478273955  1.0000
  N   N52       1.0  0.6393060058486597  0.9655654926609925  0.6612297193752711  1.0000
  N   N53       1.0  0.32690679623131286  0.9388253212106716  0.2897728310951847  1.0000
  N   N54       1.0  0.6730917679768921  0.061173515205922506  0.7102282577080601  1.0000
  N   N55       1.0  0.40765015819619066  0.9121703896213447  0.3148399584567372  1.0000
  N   N56       1.0  0.592349535937231  0.08782917263320658  0.6851597270707828  1.0000
  N   N57       1.0  0.5870890297935247  0.7840573866410948  0.3033273232703805  1.0000
  N   N58       1.0  0.41291067597769165  0.2159421700413304  0.6966705448085265  1.0000
  N   N59       1.0  0.5126566924273204  0.6922949620294074  0.2793379013742977  1.0000
  N   N60       1.0  0.4873437589242469  0.3077045973288505  0.7206612941213919  1.0000
  N   N61       1.0  0.4582153236913343  0.6883577280865368  0.33721026327309295  1.0000
  N   N62       1.0  0.5417851042184123  0.3116432972086613  0.6627894132152435  1.0000
  N   N63       1.0  0.4962131899710869  0.7798240985285503  0.40140385471018203  1.0000
  N   N64       1.0  0.5037864923583015  0.220176924090822  0.5985944943613646  1.0000
  N   N65       1.0  0.6628295776814995  0.10643892722237781  0.4988067095670701  1.0000
  N   N66       1.0  0.3371701164519151  0.8935606350321733  0.5011929759604499  1.0000
  N   N67       1.0  0.749234526624164  0.9736759819550683  0.48458384318426084  1.0000
  N   N68       1.0  0.25076517526778735  0.026323576584729797  0.5154146307108505  1.0000
  N   N69       1.0  0.7544917348981457  0.2882430255320543  0.6214724513431876  1.0000
  N   N70       1.0  0.24550830462124637  0.7117587332510736  0.37852740774928145  1.0000
  N   N71       1.0  0.00932568035477738  0.1481279877666211  0.5618546210661464  1.0000
  N   N72       1.0  0.9906710355027074  0.8518701071345377  0.4381423028825965  1.0000
