data_image0
_chemical_formula_structural       Sm4Cu4H32C56N8O32
_chemical_formula_sum              "Sm4 Cu4 H32 C56 N8 O32"
_cell_length_a       9.213897397
_cell_length_b       9.573651293267748
_cell_length_c       21.585
_cell_angle_alpha    90.0
_cell_angle_beta     90.0
_cell_angle_gamma    115.87929475329634

_space_group_name_H-M_alt    "P 1"
_space_group_IT_number       1

loop_
  _space_group_symop_operation_xyz
  'x, y, z'

loop_
  _atom_site_type_symbol
  _atom_site_label
  _atom_site_symmetry_multiplicity
  _atom_site_fract_x
  _atom_site_fract_y
  _atom_site_fract_z
  _atom_site_occupancy
  Sm  Sm1       1.0  0.3777700161955693  0.14426201818127282  0.0091128098216373  1.0000
  Sm  Sm2       1.0  0.1222333251852135  0.8557341362556912  0.5091128098216373  1.0000
  Sm  Sm3       1.0  0.6222285986539547  0.8557329752959504  0.990887653463055  1.0000
  Sm  Sm4       1.0  0.8777727900348398  0.1442678229799697  0.49088719017836274  1.0000
  Cu  Cu1       1.0  0.044095134889076314  0.1931755739229217  0.1454283066944626  1.0000
  Cu  Cu2       1.0  0.45590324185756975  0.8068263853127391  0.6454264535557073  1.0000
  Cu  Cu3       1.0  0.9558899296387225  0.8068182585945607  0.8545735464442927  1.0000
  Cu  Cu4       1.0  0.5441044206306813  0.1931813787216186  0.3545716933055374  1.0000
  H   H1        1.0  0.3931817861369424  0.1987679169877552  0.8387773917072039  1.0000
  H   H2        1.0  0.10681774049266582  0.8012293984089425  0.3387769284225186  1.0000
  H   H3        1.0  0.6068173552296301  0.8012282374492088  0.1612221450081108  1.0000
  H   H4        1.0  0.893185709859175  0.1987690779474889  0.6612235348621738  1.0000
  H   H5        1.0  0.9290519695521624  0.71495848017193  0.0683585823488499  1.0000
  H   H6        1.0  0.5709472485025202  0.2850423181039901  0.5683590456335423  1.0000
  H   H7        1.0  0.07094713953146231  0.2850399961845085  0.9316409543664578  1.0000
  H   H8        1.0  0.4290566960834212  0.7149596411316637  0.4316423442205206  1.0000
  H   H9        1.0  0.719638727561673  0.49410330414152526  0.1282418346073655  1.0000
  H   H10       1.0  0.7803637464441736  0.5058974941343948  0.6282427611767432  1.0000
  H   H11       1.0  0.2803618965071877  0.5059032989330916  0.8717567755385716  1.0000
  H   H12       1.0  0.21964023042472294  0.4941021431817845  0.3717586286773198  1.0000
  H   H13       1.0  0.2236068192963074  0.46730603143601  0.071261060921934  1.0000
  H   H14       1.0  0.27639155745033855  0.5326959277996437  0.5712587444984933  1.0000
  H   H15       1.0  0.7763793951144536  0.5326831572425093  0.928741718786192  1.0000
  H   H16       1.0  0.7236161696038224  0.46730719239575075  0.4287412555015067  1.0000
  H   H17       1.0  0.34445812188226904  0.2439246070126089  0.7263381978225638  1.0000
  H   H18       1.0  0.15554347853258582  0.7560796741425264  0.2263377345378714  1.0000
  H   H19       1.0  0.655544705103658  0.7560796741425264  0.2736622654621286  1.0000
  H   H20       1.0  0.8444587896533378  0.2439257679723497  0.7736627287468139  1.0000
  H   H21       1.0  0.7818366766513094  0.2769353362435538  0.161971739634005  1.0000
  H   H22       1.0  0.718163067920422  0.723066622992107  0.661971739634005  1.0000
  H   H23       1.0  0.2181499028617324  0.723066622992107  0.8380301135047502  1.0000
  H   H24       1.0  0.2818452179337427  0.2769353362435538  0.3380291869353726  1.0000
  H   H25       1.0  0.5047137768941496  0.8307108100320235  0.7757377808663435  1.0000
  H   H26       1.0  0.9952875795116898  0.169292310163371  0.2757387074357212  1.0000
  H   H27       1.0  0.49528691174062095  0.1692911492036302  0.2242594394255235  1.0000
  H   H28       1.0  0.004707188303704911  0.8307061661930675  0.7242631457030342  1.0000
  H   H29       1.0  0.3700815266068318  0.071087886764758  0.6447940699559851  1.0000
  H   H30       1.0  0.12992168564213102  0.9289175553501181  0.1447945332406775  1.0000
  H   H31       1.0  0.6299255770814085  0.9289210382293334  0.3552050034746372  1.0000
  H   H32       1.0  0.8700709115391518  0.0710809210063204  0.8552068566133855  1.0000
  C   C1        1.0  0.4534252986195357  0.0113251622581387  0.8144836692147307  1.0000
  C   C2        1.0  0.04657853699534801  0.9886744750580405  0.3144827426453531  1.0000
  C   C3        1.0  0.54657542229819  0.9886744750580405  0.18551401436182857  1.0000
  C   C4        1.0  0.9534233015223921  0.0113228403386572  0.6855163307852692  1.0000
  C   C5        1.0  0.49046550435842573  0.976895377541787  0.8787973129488053  1.0000
  C   C6        1.0  0.009542113724677401  0.0231054207341259  0.3787977762334975  1.0000
  C   C7        1.0  0.5095325194081397  0.0231030988146514  0.1211999073430619  1.0000
  C   C8        1.0  0.9904650545294801  0.9768988604210093  0.6212017604818172  1.0000
  C   C9        1.0  0.4063618941467126  0.1287074795923928  0.8012096363215164  1.0000
  C   C10       1.0  0.09364355330227886  0.8712933186835272  0.3012082464674535  1.0000
  C   C11       1.0  0.5936393532880686  0.8712933186835272  0.19878943710910593  1.0000
  C   C12       1.0  0.9063625942007363  0.128706318632652  0.6987917535325465  1.0000
  C   C13       1.0  0.2238081807518668  0.7391877099338231  0.0304998841788304  1.0000
  C   C14       1.0  0.2761870046095254  0.2608096054628746  0.5304998841788304  1.0000
  C   C15       1.0  0.7761834925271387  0.2607991568252217  0.9695010423905472  1.0000
  C   C16       1.0  0.72381907832758  0.7391946756922607  0.4695024322446173  1.0000
  C   C17       1.0  0.09323665280296468  0.6084183658442086  0.0657590919620077  1.0000
  C   C18       1.0  0.40675688844135754  0.3915801105122299  0.5657586286773224  1.0000
  C   C19       1.0  0.9067527529930572  0.3915754666732738  0.9342427611767407  1.0000
  C   C20       1.0  0.5932476149445876  0.6084206877636831  0.4342436877461182  1.0000
  C   C21       1.0  0.9502883372209255  0.6163314674281608  0.0825443595089155  1.0000
  C   C22       1.0  0.5497028216632245  0.3836635260490624  0.5825438962242302  1.0000
  C   C23       1.0  0.04969889794098489  0.3836623650893216  0.9174565670604552  1.0000
  C   C24       1.0  0.4502995110886161  0.6163372722268576  0.4174588834839028  1.0000
  C   C25       1.0  0.8350709227792877  0.4951539727057082  0.1165772527217968  1.0000
  C   C26       1.0  0.6649256949730926  0.5048386988520335  0.6165777160064891  1.0000
  C   C27       1.0  0.1649211801678945  0.5048410207715079  0.8834227472782032  1.0000
  C   C28       1.0  0.3350777230958002  0.4951620994238866  0.3834232105628885  1.0000
  C   C29       1.0  0.11522795428037821  0.479067714556173  0.0840162149640946  1.0000
  C   C30       1.0  0.3847698959492193  0.520933083719747  0.5840157516794093  1.0000
  C   C31       1.0  0.8847592808815322  0.5209261179613094  0.9159842483205907  1.0000
  C   C32       1.0  0.6152367457878896  0.4790700364756475  0.4159856381746607  1.0000
  C   C33       1.0  0.3788616386136212  0.1525512707207994  0.7393713226777834  1.0000
  C   C34       1.0  0.12113834996713281  0.8474518494745951  0.2393685429696575  1.0000
  C   C35       1.0  0.6211406618552573  0.8474518494745951  0.2606282140375242  1.0000
  C   C36       1.0  0.8788601680335262  0.1525501097610586  0.7606305304609648  1.0000
  C   C37       1.0  0.8675866824417044  0.3723894460194614  0.1344039842483227  1.0000
  C   C38       1.0  0.6324109883447733  0.6276055474577618  0.634404447533008  1.0000
  C   C39       1.0  0.1323978555690388  0.6276032255382802  0.865596942321055  1.0000
  C   C40       1.0  0.36759673870938775  0.3723975727376327  0.365596942321055  1.0000
  C   C41       1.0  0.4676782817558092  0.9220121668199894  0.7659397729904995  1.0000
  C   C42       1.0  0.0323249627761157  0.0779909533754051  0.2659397729904995  1.0000
  C   C43       1.0  0.5323229656789722  0.0779886314559306  0.23405744730136752  1.0000
  C   C44       1.0  0.9676698050392788  0.9220075229810334  0.734061153578871  1.0000
  C   C45       1.0  0.3939402952300597  0.0576439729821629  0.693338892749594  1.0000
  C   C46       1.0  0.10606400233596248  0.9423614691327131  0.1933384294649088  1.0000
  C   C47       1.0  0.6060684202922958  0.9423661129716693  0.3066592541116506  1.0000
  C   C48       1.0  0.8939313242794356  0.0576358462639845  0.8066615705350914  1.0000
  C   C49       1.0  0.5108096389723258  0.5076842111733768  0.0358605513087795  1.0000
  C   C50       1.0  0.9891874084482383  0.4923165871025432  0.5358614778781572  1.0000
  C   C51       1.0  0.48919377909656714  0.4923165871025432  0.9641366689830875  1.0000
  C   C52       1.0  0.010809530001267808  0.5076818892538952  0.4641385221218428  1.0000
  C   C53       1.0  0.9948821572110946  0.0215671490793881  0.0340310400741259  1.0000
  C   C54       1.0  0.5051197902777035  0.9784324882367912  0.5340282603659929  1.0000
  C   C55       1.0  0.005117510672526702  0.9784301663173168  0.9659698864952517  1.0000
  C   C56       1.0  0.49488576614234603  0.0215706319586033  0.46596757007181117  1.0000
  N   N1        1.0  0.005643822330483806  0.363163298970214  0.1187065091498738  1.0000
  N   N2        1.0  0.4943567573332289  0.6368363383459652  0.6187055825804961  1.0000
  N   N3        1.0  0.9943401568802557  0.6368305335472684  0.8812939541348186  1.0000
  N   N4        1.0  0.5056541933891482  0.3631691037689109  0.38129488070418927  1.0000
  N   N5        1.0  0.4366337353098687  0.9420445271238479  0.7063178132962733  1.0000
  N   N6        1.0  0.0633689504220527  0.0579597540312875  0.20631827658095864  1.0000
  N   N7        1.0  0.5633733683783789  0.0579643978702435  0.2936794069956008  1.0000
  N   N8        1.0  0.9366231525251366  0.9420352394459357  0.7936826499884191  1.0000
  O   O1        1.0  0.125860876009348  0.11986793213637272  0.05863979615473619  1.0000
  O   O2        1.0  0.3741408535373339  0.8801270613408434  0.5586379430159809  1.0000
  O   O3        1.0  0.8741404037083883  0.8801305442200658  0.941359277275886  1.0000
  O   O4        1.0  0.6258637144145283  0.11986909309611352  0.4413578874218231  1.0000
  O   O5        1.0  0.21556150283115733  0.8681749808234187  0.0313300903405107  1.0000
  O   O6        1.0  0.28444016214961476  0.1318246564927605  0.5313310169098884  1.0000
  O   O7        1.0  0.7844463533548236  0.1318188516940637  0.968668056520734  1.0000
  O   O8        1.0  0.7155632236363232  0.868178463702634  0.4686689830901117  1.0000
  O   O9        1.0  0.4512600286920403  0.0368163552567964  0.9243558026407257  1.0000
  O   O10       1.0  0.04873897142051926  0.9631797991801676  0.424356265925411  1.0000
  O   O11       1.0  0.5487337506551597  0.9631751553412045  0.0756428075052114  1.0000
  O   O12       1.0  0.9512579024630838  0.0368233210152269  0.5756446606439667  1.0000
  O   O13       1.0  0.44695069529741005  0.3838005192983118  0.0669608524438274  1.0000
  O   O14       1.0  0.05304929328333694  0.6162026008970827  0.5669613157285127  1.0000
  O   O15       1.0  0.5530521316885171  0.6162037618568235  0.9330377577021096  1.0000
  O   O16       1.0  0.9469486659173115  0.3838005192983118  0.4330382209867949  1.0000
  O   O17       1.0  0.3319106076212607  0.7118691663053056  0.0042191336576352  1.0000
  O   O18       1.0  0.16808556620831896  0.2881351148498297  0.5042233032198311  1.0000
  O   O19       1.0  0.6680868896282564  0.2881281490913921  0.9957799397729872  1.0000
  O   O20       1.0  0.8319231815969915  0.7118726491845209  0.49577947648830184  1.0000
  O   O21       1.0  0.559556654867322  0.8883454953362673  0.8840481816075964  1.0000
  O   O22       1.0  0.9404501926897099  0.1116529810201712  0.3840518878851071  1.0000
  O   O23       1.0  0.44043926283104184  0.111648337181208  0.1159495019689629  1.0000
  O   O24       1.0  0.05956128454971584  0.8883536220544457  0.6159527449617812  1.0000
  O   O25       1.0  0.5906811737088944  0.6432506409063166  0.0576381746583294  1.0000
  O   O26       1.0  0.9092995616728744  0.3567524792890779  0.5576367848042594  1.0000
  O   O27       1.0  0.4093173765747196  0.3567489964098627  0.9423618253416706  1.0000
  O   O28       1.0  0.09070273879600418  0.6432506409063166  0.4423646050498036  1.0000
  O   O29       1.0  0.8604006973342707  0.9591373373674728  0.060913134120916396  1.0000
  O   O30       1.0  0.6395985207204049  0.0408634609084473  0.5609122075515387  1.0000
  O   O31       1.0  0.13959676763228404  0.0408622999487065  0.9390864025943912  1.0000
  O   O32       1.0  0.3604037474655186  0.9591419812064288  0.4390854760250207  1.0000
