data_image0
_chemical_formula_structural       Zn4H15C30NO13
_chemical_formula_sum              "Zn4 H15 C30 N1 O13"
_cell_length_a       10.82432401573889
_cell_length_b       10.916268114376729
_cell_length_c       17.96230691050916
_cell_angle_alpha    72.53278498829116
_cell_angle_beta     82.77399445977231
_cell_angle_gamma    82.29444911278615

_space_group_name_H-M_alt    "P 1"
_space_group_IT_number       1

loop_
  _space_group_symop_operation_xyz
  'x, y, z'

loop_
  _atom_site_type_symbol
  _atom_site_label
  _atom_site_symmetry_multiplicity
  _atom_site_fract_x
  _atom_site_fract_y
  _atom_site_fract_z
  _atom_site_occupancy
  Zn  Zn1       1.0  0.5826914936924013  0.5643121502114639  0.5651536863001994  1.0000
  Zn  Zn2       1.0  0.6158644209078544  0.40432030034396876  0.44015470955292096  1.0000
  Zn  Zn3       1.0  0.41148963810375255  0.6458583142152464  0.42398168090775107  1.0000
  Zn  Zn4       1.0  0.3756752196861939  0.38321903893290005  0.5687302664861349  1.0000
  H   H1        1.0  0.42083802635597317  0.16748550600792808  0.07903499347015241  1.0000
  H   H2        1.0  0.37696707197165585  0.195102817494373  0.8145322167304414  1.0000
  H   H3        1.0  0.4796963122208097  0.30883472854979044  0.14868292807648228  1.0000
  H   H4        1.0  0.6224518359916332  0.6370309721637497  0.8564028578193829  1.0000
  H   H5        1.0  0.6517197987805758  0.0074558968587652005  0.6294981848888385  1.0000
  H   H6        1.0  0.5648561860306885  0.8709818280343454  0.6499390442977742  1.0000
  H   H7        1.0  0.696184574153385  0.8863391197567977  0.5800486949006043  1.0000
  H   H8        1.0  0.6752963216649591  0.842859297762452  0.045011017044480205  1.0000
  H   H9        1.0  0.4132796419386437  0.033609995703173516  0.45249547712433  1.0000
  H   H10       1.0  0.018508992146451006  0.5837366349903377  0.3924657246012019  1.0000
  H   H11       1.0  0.9952968235708678  0.4105928718305591  0.563810120917985  1.0000
  H   H12       1.0  0.5203610267355999  0.4257619404477283  0.20388328731709038  1.0000
  H   H13       1.0  0.6300235787504959  0.794762596989486  0.1904216890359081  1.0000
  H   H14       1.0  0.6828863695729411  0.7773273540262051  0.9249299334395645  1.0000
  H   H15       1.0  0.3798660261676046  0.12732256391358737  0.9603386158019233  1.0000
  C   C1        1.0  0.516860368163627  0.1581874953404281  0.5271748458056322  1.0000
  C   C2        1.0  0.6008581475558614  0.6134724170418197  0.9194292022978772  1.0000
  C   C3        1.0  0.6363779773398263  0.6919880472294865  0.9578993543494293  1.0000
  C   C4        1.0  0.48310886709398915  0.832211339169227  0.4954046994317025  1.0000
  C   C5        1.0  0.6134019894174544  0.6650411277218994  0.04064172179577233  1.0000
  C   C6        1.0  0.5648761598790982  0.5461622289571225  0.08460284327588141  1.0000
  C   C7        1.0  0.6384533384532389  0.7526898429912097  0.07984990222953309  1.0000
  C   C8        1.0  0.6149676818534857  0.7261188925332078  0.16001445255129448  1.0000
  C   C9        1.0  0.5515638746462415  0.5171232024286638  0.1671136045380166  1.0000
  C   C10       1.0  0.47359528819171703  0.968021487766663  0.4947987068752937  1.0000
  C   C11       1.0  0.533022587991347  0.014612349392344006  0.5406289754168725  1.0000
  C   C12       1.0  0.4056895501774136  0.2581205265201732  0.8446915118819334  1.0000
  C   C13       1.0  0.045092983894576825  0.525845342380741  0.45013506799026  1.0000
  C   C14       1.0  0.9637616317428838  0.461874713577295  0.506167849422873  1.0000
  C   C15       1.0  0.8273232449776771  0.46762974880615366  0.5006498958770109  1.0000
  C   C16       1.0  0.17579963763819248  0.5265427957156421  0.46722208963464607  1.0000
  C   C17       1.0  0.5513441072802221  0.5739143180060964  0.2911184363747523  1.0000
  C   C18       1.0  0.44496379629033106  0.4154172953611592  0.7124351431834697  1.0000
  C   C19       1.0  0.43904011315566294  0.38059843127042114  0.8000137472592073  1.0000
  C   C20       1.0  0.5735352821647624  0.6058025516875745  0.20415843781643872  1.0000
  C   C21       1.0  0.4088971469162174  0.22084646352099213  0.9249581813238237  1.0000
  C   C22       1.0  0.6164554847768854  0.9414175846077059  0.6035147770267885  1.0000
  C   C23       1.0  0.4738427993809895  0.4660822438696499  0.8370723968569821  1.0000
  C   C24       1.0  0.47667793125889807  0.5984328943442563  0.7920242967736967  1.0000
  C   C25       1.0  0.48872731859703583  0.4254178111128936  0.9193123455279277  1.0000
  C   C26       1.0  0.45027620376504257  0.30152850410046034  0.9633214210203603  1.0000
  C   C27       1.0  0.5380293446598754  0.5019516332806689  0.9601165804828042  1.0000
  C   C28       1.0  0.5287926095369428  0.4626814318859331  0.04346982185497695  1.0000
  C   C29       1.0  0.48467687630294876  0.34101956554227536  0.08496851049282131  1.0000
  C   C30       1.0  0.45087286410569044  0.26186484273507926  0.046420674808302906  1.0000
  N   N1        1.0  0.46784708153160887  0.7080605974038862  0.7572133171050055  1.0000
  O   O1        1.0  0.49422234255919756  0.49712999025651766  0.4999222034392404  1.0000
  O   O2        1.0  0.5766691233241801  0.45584788590866765  0.3302394916978741  1.0000
  O   O3        1.0  0.37249727956285733  0.36417768148312046  0.6822015703214745  1.0000
  O   O4        1.0  0.5087943581079415  0.6665324470645333  0.3199416317695096  1.0000
  O   O5        1.0  0.527213302037488  0.4901522648445678  0.6759211920507866  1.0000
  O   O6        1.0  0.7602990427399162  0.49597899173294013  0.5580899380021408  1.0000
  O   O7        1.0  0.2102969564579809  0.4489788376988103  0.5316457285843441  1.0000
  O   O8        1.0  0.606873472374538  0.2175658585968776  0.48535688446857955  1.0000
  O   O9        1.0  0.4128364105966967  0.8063853716137855  0.45071968305570215  1.0000
  O   O10       1.0  0.41862823219448586  0.2058151650362703  0.5594650209281085  1.0000
  O   O11       1.0  0.5602836565795571  0.7510231024648136  0.5389166889989951  1.0000
  O   O12       1.0  0.7887884249489759  0.4442439233988012  0.4425913457537618  1.0000
  O   O13       1.0  0.24163427627311043  0.606490912979645  0.41588865297862293  1.0000
