data_image0
_chemical_formula_structural       Cd2H24C32N20O4
_chemical_formula_sum              "Cd2 H24 C32 N20 O4"
_cell_length_a       9.447944001385453
_cell_length_b       10.168261547666349
_cell_length_c       10.592706884659618
_cell_angle_alpha    118.68144944997552
_cell_angle_beta     90.00043603757416
_cell_angle_gamma    90.00061178709345

_space_group_name_H-M_alt    "P 1"
_space_group_IT_number       1

loop_
  _space_group_symop_operation_xyz
  'x, y, z'

loop_
  _atom_site_type_symbol
  _atom_site_label
  _atom_site_symmetry_multiplicity
  _atom_site_fract_x
  _atom_site_fract_y
  _atom_site_fract_z
  _atom_site_occupancy
  Cd  Cd1       1.0  0.4999994820632453  0.5000005556325889  8.072343434397021e-07  1.0000
  Cd  Cd2       1.0  7.589774285000018e-07  0.4999966274701962  0.49999898016676536  1.0000
  H   H1        1.0  0.4376055111423084  0.8830588644156663  0.11188318015590677  1.0000
  H   H2        1.0  0.9376052517712309  0.11693474271384473  0.38811498158564467  1.0000
  H   H3        1.0  0.5623945249636576  0.11694198427881018  0.8881188427975105  1.0000
  H   H4        1.0  0.06239160898564929  0.8830605477669241  0.6118815838314549  1.0000
  H   H5        1.0  0.5519169360495368  0.020487911266997103  0.22912350304278564  1.0000
  H   H6        1.0  0.0519175360205821  0.9795101410665481  0.2708789267014494  1.0000
  H   H7        1.0  0.4480820416038397  0.979510711059348  0.7708765242678981  1.0000
  H   H8        1.0  0.9480814416124516  0.0204874066364127  0.7291177606638897  1.0000
  H   H9        1.0  0.650967727480527  0.3561206238083017  0.6810449244524364  1.0000
  H   H10       1.0  0.1509648840433755  0.6438834592346863  0.8189558766656618  1.0000
  H   H11       1.0  0.3490323086176658  0.6438802557310553  0.318955224798657  1.0000
  H   H12       1.0  0.8490362104580169  0.35611637653535416  0.18103905894559352  1.0000
  H   H13       1.0  0.6089882095803745  0.17358530952208182  0.42590287678096683  1.0000
  H   H14       1.0  0.10898749787674689  0.8264160202809664  0.07409864613271114  1.0000
  H   H15       1.0  0.3910107680777982  0.8264144491174008  0.5740967430704274  1.0000
  H   H16       1.0  0.8910146550559829  0.1735838154982474  0.9258962894863885  1.0000
  H   H17       1.0  0.19370111000770143  0.09617606971345793  0.5488983970956909  1.0000
  H   H18       1.0  0.6937019487512471  0.9038187124717467  0.9510954616436395  1.0000
  H   H19       1.0  0.8062989261030536  0.9038259152941566  0.45110321839843  1.0000
  H   H20       1.0  0.3062991457357782  0.0961777143588662  0.04890069634550541  1.0000
  H   H21       1.0  0.2542603703376756  0.28559837524488074  0.8038574949587416  1.0000
  H   H22       1.0  0.7542547525706594  0.714395215005567  0.6961362015381456  1.0000
  H   H23       1.0  0.7457407241996349  0.7144024734587688  0.1961445280025131  1.0000
  H   H24       1.0  0.24574422503154383  0.2855978337121599  0.30385930511089754  1.0000
  C   C1        1.0  0.8383854524348138  0.4247762257859336  0.8915729384436022  1.0000
  C   C2        1.0  0.33838850021673744  0.5752288184793741  0.6084323892358441  1.0000
  C   C3        1.0  0.16161564213631147  0.5752279547449319  0.10843254639556217  1.0000
  C   C4        1.0  0.6616125943370362  0.42477312027008923  0.39157203681959635  1.0000
  C   C5        1.0  0.9651746000672927  0.3341185326776143  0.684278340522674  1.0000
  C   C6        1.0  0.46518256599162555  0.6658842261831596  0.8157267467583724  1.0000
  C   C7        1.0  0.03482331920413629  0.6658833597770057  0.31572889606274407  1.0000
  C   C8        1.0  0.5348185285630436  0.3341188643018853  0.1842763349866061  1.0000
  C   C9        1.0  0.5505379873504664  0.29638415811305663  0.6480945900186798  1.0000
  C   C10       1.0  0.050533992493519996  0.7036181683691397  0.8519056610644499  1.0000
  C   C11       1.0  0.44946310718773924  0.7036178423261743  0.3519060886321128  1.0000
  C   C12       1.0  0.9494671020117591  0.2963816519784643  0.14809021139797104  1.0000
  C   C13       1.0  0.5254583183827464  0.19426083140291442  0.5042684180018996  1.0000
  C   C14       1.0  0.025454600387682498  0.8057388030771192  0.9957313398423937  1.0000
  C   C15       1.0  0.4745417177154465  0.8057400481364425  0.4957317312491939  1.0000
  C   C16       1.0  0.9745454356862594  0.1942610172613044  0.004264532612189996  1.0000
  C   C17       1.0  0.3948716471706533  0.12018884659889302  0.4658625598750206  1.0000
  C   C18       1.0  0.8948686684363095  0.8798074131563992  0.034134683638306684  1.0000
  C   C19       1.0  0.6051294473627636  0.8798120175271934  0.5341385262350685  1.0000
  C   C20       1.0  0.1051303091889437  0.120190165391449  0.9658601300247158  1.0000
  C   C21       1.0  0.2957142142458267  0.1525295058039546  0.5748419963431388  1.0000
  C   C22       1.0  0.7957120690183926  0.8474647877303525  0.9251532507610919  1.0000
  C   C23       1.0  0.7042858218475772  0.8474702374222645  0.4251585603672512  1.0000
  C   C24       1.0  0.2042879670459712  0.1525327599817885  0.0748434366120847  1.0000
  C   C25       1.0  0.32926027283139797  0.2561814621421021  0.7159799455513821  1.0000
  C   C26       1.0  0.8292557391642389  0.7438145492653024  0.7840153907303817  1.0000
  C   C27       1.0  0.6707408217020188  0.7438194019839913  0.2840211405587071  1.0000
  C   C28       1.0  0.1707432384562253  0.2561818929694084  0.21597983039193747  1.0000
  C   C29       1.0  0.35690334744806756  0.0041088558695108  0.3144363364154117  1.0000
  C   C30       1.0  0.8569029871620869  0.9958833521434234  0.18556063051755728  1.0000
  C   C31       1.0  0.6430966886414353  0.9958909027791447  0.6855632834438126  1.0000
  C   C32       1.0  0.1430970488983903  0.004114210991161799  0.8144351200044541  1.0000
  N   N1        1.0  0.7416190153701548  0.47995120320209844  0.9695778372054493  1.0000
  N   N2        1.0  0.24161970893509022  0.520056569874903  0.5304328596379904  1.0000
  N   N3        1.0  0.25837996234309196  0.5200541136235585  0.03042724015875816  1.0000
  N   N4        1.0  0.7583813855965288  0.479941990780027  0.46957091509301563  1.0000
  N   N5        1.0  0.9516443632195645  0.36653588703794077  0.8169155994929087  1.0000
  N   N6        1.0  0.45165506414525686  0.6334677735889329  0.6830888800318675  1.0000
  N   N7        1.0  0.048355672932800096  0.633469398952009  0.18309135158144582  1.0000
  N   N8        1.0  0.5483439135593073  0.36653642234602307  0.3169156679404708  1.0000
  N   N9        1.0  0.9882995701166165  0.30255814128597075  0.5629930998711287  1.0000
  N   N10       1.0  0.488304694767393  0.6974427612588698  0.9370122078250134  1.0000
  N   N11       1.0  0.0116962322535272  0.697439283009942  0.4370110822799875  1.0000
  N   N12       1.0  0.511696399778593  0.302559208335481  0.06299034452809597  1.0000
  N   N13       1.0  0.4549432060954429  0.3270771543318105  0.7526581015260803  1.0000
  N   N14       1.0  0.954937547268628  0.6729221568939752  0.7473396248941955  1.0000
  N   N15       1.0  0.5450578884427626  0.6729248461074208  0.24734257712471225  1.0000
  N   N16       1.0  0.0450614303605121  0.3270754062314367  0.2526561256199855  1.0000
  N   N17       1.0  0.45240438804729166  0.9749953656805984  0.21096687373562162  1.0000
  N   N18       1.0  0.9524054072226206  0.025000739806280602  0.2890325658987507  1.0000
  N   N19       1.0  0.5475956480547878  0.0250054984363146  0.7890342123666373  1.0000
  N   N20       1.0  0.0475925119790759  0.9749968078875146  0.7109641214587514  1.0000
  O   O1        1.0  0.2399275968157397  0.9381836317391076  0.289980118492288  1.0000
  O   O2        1.0  0.7399294256448669  0.061805427419173484  0.2100145872212096  1.0000
  O   O3        1.0  0.7600713808597918  0.06181836868177021  0.7100205601428371  1.0000
  O   O4        1.0  0.2600695519669144  0.9381898939248289  0.7899801045092404  1.0000
