data_image0
_chemical_formula_structural       Ag2H26C26S2N4O4
_chemical_formula_sum              "Ag2 H26 C26 S2 N4 O4"
_cell_length_a       5.164781586086492
_cell_length_b       8.530549406192005
_cell_length_c       15.593945539259602
_cell_angle_alpha    102.46353771162462
_cell_angle_beta     92.4615736900899
_cell_angle_gamma    102.49097599024815

_space_group_name_H-M_alt    "P 1"
_space_group_IT_number       1

loop_
  _space_group_symop_operation_xyz
  'x, y, z'

loop_
  _atom_site_type_symbol
  _atom_site_label
  _atom_site_symmetry_multiplicity
  _atom_site_fract_x
  _atom_site_fract_y
  _atom_site_fract_z
  _atom_site_occupancy
  Ag  Ag1       1.0  0.7704710297831098  0.4890698087008261  0.0507770680554387  1.0000
  Ag  Ag2       1.0  0.24886262465737724  0.5109753903762737  0.9496470419905592  1.0000
  H   H1        1.0  0.7585842487010411  0.8141315483281276  0.977522936859124  1.0000
  H   H2        1.0  0.26001713158303374  0.18761155053079653  0.023290053777422798  1.0000
  H   H3        1.0  0.875847246742758  0.10348954031822899  0.07518798576652588  1.0000
  H   H4        1.0  0.13737194388507123  0.8987597609540002  0.9251011455929614  1.0000
  H   H5        1.0  0.5960423205940869  0.17218860485616014  0.1961390564656185  1.0000
  H   H6        1.0  0.4136611287355265  0.8289332709596026  0.8033743180390402  1.0000
  H   H7        1.0  0.2720175988155517  0.9656679266333653  0.31208448487907237  1.0000
  H   H8        1.0  0.7386665921213477  0.03253633949767481  0.6874814769985775  1.0000
  H   H9        1.0  0.9901328070672974  0.8709310586293668  0.2355005685116112  1.0000
  H   H10       1.0  0.0223452083662892  0.1276113306736875  0.7632973128951193  1.0000
  H   H11       1.0  0.13959205053176763  0.0857174274200148  0.24896059734703604  1.0000
  H   H12       1.0  0.8721912304598262  0.913152829717333  0.750756248277902  1.0000
  H   H13       1.0  0.6089654258996546  0.7529721449362723  0.331673635061115  1.0000
  H   H14       1.0  0.4084352871813906  0.24874960478022964  0.669037715098149  1.0000
  H   H15       1.0  0.5612927781379468  0.8772890819485111  0.4879597171219032  1.0000
  H   H16       1.0  0.4522293130869953  0.12493399426057289  0.5123520036512019  1.0000
  H   H17       1.0  0.7626046953922553  0.5805993218674742  0.46190637312127336  1.0000
  H   H18       1.0  0.2536360258991835  0.41715796749107176  0.5374960579573624  1.0000
  H   H19       1.0  0.8081854636652324  0.4587203792393452  0.3048176770977093  1.0000
  H   H20       1.0  0.2117174262867819  0.5388624450494388  0.6948815612443795  1.0000
  H   H21       1.0  0.010484040107144169  0.7321809442131482  0.6126295446697867  1.0000
  H   H22       1.0  0.0142837719896463  0.26553040446729886  0.3884036065647152  1.0000
  H   H23       1.0  0.002219375073380389  0.9161767710206233  0.5790183998426457  1.0000
  H   H24       1.0  0.9960909981763351  0.0766587492068211  0.4199217095120886  1.0000
  H   H25       1.0  0.3101412829240501  0.8846287282555279  0.6173351853151416  1.0000
  H   H26       1.0  0.7012865689109519  0.12370604684187468  0.3813867824773141  1.0000
  C   C1        1.0  0.6554436487590322  0.8493584754703959  0.03567012939603128  1.0000
  C   C2        1.0  0.3618725823329497  0.1520161504104678  0.9648720098374639  1.0000
  C   C3        1.0  0.716858515246578  0.0080272811435975  0.088591378743331  1.0000
  C   C4        1.0  0.2972299442397812  0.993648642917755  0.9116117295331491  1.0000
  C   C5        1.0  0.5603632216061668  0.04552123668887019  0.15725113221144937  1.0000
  C   C6        1.0  0.4520757436928662  0.9554705762910272  0.8425771500186059  1.0000
  C   C7        1.0  0.35652163154775707  0.9231850328310925  0.17564083719656054  1.0000
  C   C8        1.0  0.6574910364509635  0.07689376886293792  0.8241957101999589  1.0000
  C   C9        1.0  0.32005765648149515  0.761462359034411  0.12308705792148798  1.0000
  C   C10       1.0  0.697475063664257  0.23848989247227348  0.8771648582011836  1.0000
  C   C11       1.0  0.17932821241024027  0.963763421081907  0.246951734334921  1.0000
  C   C12       1.0  0.8328412048707394  0.03515993866733421  0.7525230675942325  1.0000
  C   C13       1.0  0.2100947614393362  0.5999105207683681  0.309077126313035  1.0000
  C   C14       1.0  0.8086823936524894  0.3995968633403848  0.6911806808419741  1.0000
  C   C15       1.0  0.4223012364736717  0.717801668368878  0.3601310640513518  1.0000
  C   C16       1.0  0.5948205911156849  0.2829730321864048  0.6402671322308536  1.0000
  C   C17       1.0  0.39390653777660845  0.7871251809550301  0.44782063717899223  1.0000
  C   C18       1.0  0.6210956387477892  0.21396033162544373  0.5523655690598233  1.0000
  C   C19       1.0  0.1556630068049216  0.7419017228103116  0.4856004082833749  1.0000
  C   C20       1.0  0.8590641759189453  0.2579877810756557  0.5142139158637065  1.0000
  C   C21       1.0  0.9476796734817227  0.6203315515528587  0.4333630161122812  1.0000
  C   C22       1.0  0.06881992531430829  0.3782032123224539  0.5663244914080181  1.0000
  C   C23       1.0  0.9723402029721271  0.5499095147405555  0.3457187554837304  1.0000
  C   C24       1.0  0.046205340912521736  0.4484634279322463  0.654182666029989  1.0000
  C   C25       1.0  0.11926577698158514  0.822355594003035  0.5785238759467433  1.0000
  C   C26       1.0  0.8932073580836927  0.17746286716197798  0.42110474173565376  1.0000
  S   S1        1.0  0.23873285741767356  0.5147960084474122  0.1961438501549893  1.0000
  S   S2        1.0  0.7817530624421422  0.4850371896882065  0.8042158035868283  1.0000
  N   N1        1.0  0.45943046603389337  0.7298235195833058  0.051827328746554685  1.0000
  N   N2        1.0  0.5594653873688742  0.2706317208346931  0.9487194699613539  1.0000
  N   N3        1.0  0.13215058108659855  0.6273809525444207  0.1388753672406935  1.0000
  N   N4        1.0  0.8870759826258592  0.37188236126768  0.8614370144357861  1.0000
  O   O1        1.0  0.058069300190752  0.35232750320275136  0.1741145217258904  1.0000
  O   O2        1.0  0.9642390569428513  0.6468687388762006  0.8261040761468691  1.0000
  O   O3        1.0  0.5236836235202063  0.5223437104849181  0.190584585745313  1.0000
  O   O4        1.0  0.49729575035909324  0.4789833345384976  0.8100244044667377  1.0000
