data_image0
_chemical_formula_structural       ZnH46C44N2O6
_chemical_formula_sum              "Zn1 H46 C44 N2 O6"
_cell_length_a       8.57047802968385
_cell_length_b       10.7024516604651
_cell_length_c       10.993504866687603
_cell_angle_alpha    81.80378210244704
_cell_angle_beta     69.59983889888497
_cell_angle_gamma    78.45820865370895

_space_group_name_H-M_alt    "P 1"
_space_group_IT_number       1

loop_
  _space_group_symop_operation_xyz
  'x, y, z'

loop_
  _atom_site_type_symbol
  _atom_site_label
  _atom_site_symmetry_multiplicity
  _atom_site_fract_x
  _atom_site_fract_y
  _atom_site_fract_z
  _atom_site_occupancy
  Zn  Zn1       1.0  1.2419870074323423e-06  0.9999993284556795  0.4999999900087032  1.0000
  H   H1        1.0  0.501363829709163  0.23774429202437364  0.41685481807721186  1.0000
  H   H2        1.0  0.49864330838687465  0.7622552212184458  0.5831502866388404  1.0000
  H   H3        1.0  0.5620778842073264  0.1841755308230049  0.2607287077467077  1.0000
  H   H4        1.0  0.43792178747393967  0.8158239341233866  0.7392757151396266  1.0000
  H   H5        1.0  0.7472750095592459  0.35075473730500323  0.3501499307261182  1.0000
  H   H6        1.0  0.25273190183806077  0.6492457210098905  0.6498496448652983  1.0000
  H   H7        1.0  0.6050612367078614  0.5455968390810781  0.40293112178390084  1.0000
  H   H8        1.0  0.3949315815029877  0.4544054641891364  0.597076592847763  1.0000
  H   H9        1.0  0.37945273910547433  0.7311353280710193  0.3957107909299962  1.0000
  H   H10       1.0  0.6205380091108383  0.268865038126286  0.6042932143645601  1.0000
  H   H11       1.0  0.2133215627327373  0.7366817644740492  0.24963362573073766  1.0000
  H   H12       1.0  0.7866760367923007  0.26331576147256197  0.7503661790491234  1.0000
  H   H13       1.0  0.274574610757206  0.5574034596790014  0.10909388666357962  1.0000
  H   H14       1.0  0.7254304486975229  0.4425941087834245  0.8909038736379171  1.0000
  H   H15       1.0  0.49749973986522616  0.37276316663920983  0.1172328019067663  1.0000
  H   H16       1.0  0.5025061441007355  0.6272363298832815  0.8827680997088689  1.0000
  H   H17       1.0  0.7364592742816569  0.20540138239280736  0.058670571690477444  1.0000
  H   H18       1.0  0.2635429166076051  0.7945923440590972  0.9413312431921168  1.0000
  H   H19       1.0  0.9820147027972438  0.1850163439523058  0.8563371289545143  1.0000
  H   H20       1.0  0.017976451259300995  0.8149820897096588  0.14365794166332788  1.0000
  H   H21       1.0  0.23691573020764167  0.277466389380038  0.8314167886126637  1.0000
  H   H22       1.0  0.7630749400483765  0.7225396890193706  0.1685700590362202  1.0000
  H   H23       1.0  0.24589796779807216  0.38768265778129757  0.01232610375289772  1.0000
  H   H24       1.0  0.7541049284306072  0.6123244538917234  0.9876599862316623  1.0000
  H   H25       1.0  0.9994784442800362  0.4090811612702011  0.21583290034014624  1.0000
  H   H26       1.0  0.0005290845243947706  0.59091640594918  0.7841569083136546  1.0000
  H   H27       1.0  0.989387283713462  0.9696766915611904  0.7823979240982978  1.0000
  H   H28       1.0  0.010609801607984097  0.030334233716153798  0.21759649299291783  1.0000
  H   H29       1.0  0.7809555962340442  0.9765852461152988  0.002254714739180582  1.0000
  H   H30       1.0  0.21904668258751772  0.023424756653234596  0.9977411421830024  1.0000
  H   H31       1.0  0.3934274578528374  0.0184764518972003  0.82171864041274  1.0000
  H   H32       1.0  0.6065714326904156  0.9815153419570637  0.17828525849532165  1.0000
  H   H33       1.0  0.6178730870817548  0.0057431247436099  0.6128732202932594  1.0000
  H   H34       1.0  0.38211850956378174  0.9942534091398513  0.3871283647270331  1.0000
  H   H35       1.0  0.18520648556219751  0.45132011730473204  0.477678989915148  1.0000
  H   H36       1.0  0.8147969139222226  0.548679366972692  0.5223235019626383  1.0000
  H   H37       1.0  0.2539662158074876  0.3222670822180618  0.5781590622076961  1.0000
  H   H38       1.0  0.7460396746435478  0.6777324200850429  0.4218445657160287  1.0000
  H   H39       1.0  0.04150792738201395  0.40122954778255593  0.6310871585908727  1.0000
  H   H40       1.0  0.9584969291526022  0.5987689869475332  0.3689150690489738  1.0000
  H   H41       1.0  0.9859278057848967  0.31429443142928193  0.4531523806376894  1.0000
  H   H42       1.0  0.014076625454258373  0.6857060184942938  0.5468506027546097  1.0000
  H   H43       1.0  0.20224922742930568  0.24791990715699794  0.38798383657815777  1.0000
  H   H44       1.0  0.7977541742168058  0.7520795790473045  0.6120195640689943  1.0000
  H   H45       1.0  0.15985075382359779  0.11582396402000937  0.5932591360567441  1.0000
  H   H46       1.0  0.8401528615510899  0.8841745655509851  0.4067443410988644  1.0000
  C   C1        1.0  0.7238027029964229  0.09922769369893558  0.37319580353631915  1.0000
  C   C2        1.0  0.276202157861576  0.9007708448849031  0.6268082416422586  1.0000
  C   C3        1.0  0.6115355340718692  0.2128999602042683  0.3301420932818643  1.0000
  C   C4        1.0  0.388466410524053  0.7871004755473762  0.6698615716032207  1.0000
  C   C5        1.0  0.6981852872898742  0.3312561003950377  0.2759529065059922  1.0000
  C   C6        1.0  0.301817505735272  0.6687405030427555  0.7240483381048362  1.0000
  C   C7        1.0  0.5678992716429793  0.446542596278256  0.2610201708298589  1.0000
  C   C8        1.0  0.4321026707912522  0.5534578375465102  0.7389825852858675  1.0000
  C   C9        1.0  0.5335240845496119  0.549242897528188  0.33738379488243436  1.0000
  C   C10       1.0  0.46646834309223095  0.45075557019595897  0.6626236577600932  1.0000
  C   C11       1.0  0.4074524877431216  0.6533817715302918  0.333234081780013  1.0000
  C   C12       1.0  0.5925407471164236  0.34661860883895196  0.6667692420217505  1.0000
  C   C13       1.0  0.31380711696460384  0.6565750842971453  0.25098100640177984  1.0000
  C   C14       1.0  0.686190702774084  0.34342149079677853  0.7490216011946271  1.0000
  C   C15       1.0  0.34755762659410283  0.5551732873439691  0.1734033320426747  1.0000
  C   C16       1.0  0.6524437093808543  0.4448242656411595  0.8265981768060937  1.0000
  C   C17       1.0  0.4733795710444894  0.45103661208600704  0.17843143640224207  1.0000
  C   C18       1.0  0.5266215576869725  0.5489619033130494  0.8215727222461522  1.0000
  C   C19       1.0  0.8490846777921846  0.31036435923694927  0.15215395992665037  1.0000
  C   C20       1.0  0.15091185308997265  0.6896379498761931  0.8478454623109283  1.0000
  C   C21       1.0  0.8473055006654421  0.24604847855002274  0.050029474525892716  1.0000
  C   C22       1.0  0.15269106926655235  0.753948083677315  0.9499707475088214  1.0000
  C   C23       1.0  0.9858002745898489  0.23420840695229114  0.9353560869515928  1.0000
  C   C24       1.0  0.014190240442658783  0.7657928985364675  0.0646396629102384  1.0000
  C   C25       1.0  0.1291531423208099  0.28575321266994547  0.9209769609248182  1.0000
  C   C26       1.0  0.8708371460129741  0.7142490378908803  0.07901325981237765  1.0000
  C   C27       1.0  0.13391487254590118  0.3477768422602309  0.02284067326161929  1.0000
  C   C28       1.0  0.8660849327419626  0.652227376328085  0.9771457597181407  1.0000
  C   C29       1.0  0.9953395531858719  0.35969834577969806  0.13691737893684314  1.0000
  C   C30       1.0  0.004663004493785593  0.6402991950226847  0.8630747014719018  1.0000
  C   C31       1.0  0.8556044038123075  0.9800297577820557  0.7959440510193897  1.0000
  C   C32       1.0  0.144393540746826  0.019977344815806895  0.20405248964438266  1.0000
  C   C33       1.0  0.7368165925414017  0.9847682335116872  0.9195600703462572  1.0000
  C   C34       1.0  0.26318259750104295  0.0152388780990194  0.0804370383404844  1.0000
  C   C35       1.0  0.5649401657237971  0.9978910072362976  0.9350428655016854  1.0000
  C   C36       1.0  0.4350624092493902  0.002106548981061  0.06495648506196258  1.0000
  C   C37       1.0  0.5226818118817393  0.0065124841461852  0.8215415001059508  1.0000
  C   C38       1.0  0.4773160078569416  0.9934840909477316  0.178461107490456  1.0000
  C   C39       1.0  0.6495230649087418  0.00027787401486989953  0.7014481811440447  1.0000
  C   C40       1.0  0.3504695591681397  0.9997196216609933  0.29855207785203663  1.0000
  C   C41       1.0  0.14724536343527458  0.3681921842329388  0.5452998060686269  1.0000
  C   C42       1.0  0.8527592836941481  0.6318073109842003  0.4547041626014944  1.0000
  C   C43       1.0  0.09970123546515451  0.27389512868462856  0.47895770509167324  1.0000
  C   C44       1.0  0.9003031979356921  0.7261053231658252  0.5210461870699915  1.0000
  N   N1        1.0  0.8137082618925789  0.9873394359893837  0.6878611620952167  1.0000
  N   N2        1.0  0.1862855686177767  0.012663815585128203  0.3121388651266912  1.0000
  O   O1        1.0  0.7117143695000009  0.9872737315927366  0.35452260685499226  1.0000
  O   O2        1.0  0.2882877866628064  0.012725745598722001  0.6454802257691908  1.0000
  O   O3        1.0  0.8207795112539176  0.12521286305565843  0.4284013897155956  1.0000
  O   O4        1.0  0.1792244903663943  0.8747894982076543  0.5716005318904251  1.0000
  O   O5        1.0  0.0604276728456341  0.1612424432948174  0.5642396735366829  1.0000
  O   O6        1.0  0.9395749086126274  0.838755118703162  0.4357624033350476  1.0000
