data_image0
_chemical_formula_structural       Rb2H4C10N6O10
_chemical_formula_sum              "Rb2 H4 C10 N6 O10"
_cell_length_a       4.224823728511464
_cell_length_b       9.015984645117896
_cell_length_c       10.891255060808502
_cell_angle_alpha    91.94947179597415
_cell_angle_beta     90.56891677653743
_cell_angle_gamma    102.64055993756931

_space_group_name_H-M_alt    "P 1"
_space_group_IT_number       1

loop_
  _space_group_symop_operation_xyz
  'x, y, z'

loop_
  _atom_site_type_symbol
  _atom_site_label
  _atom_site_symmetry_multiplicity
  _atom_site_fract_x
  _atom_site_fract_y
  _atom_site_fract_z
  _atom_site_occupancy
  Rb  Rb1       1.0  0.7913819880379973  0.19096296990429806  0.6193048898154531  1.0000
  Rb  Rb2       1.0  0.20861928605051355  0.8090368075045619  0.38069519217619074  1.0000
  H   H1        1.0  0.638092036452555  0.5359299975183802  0.8842732350287648  1.0000
  H   H2        1.0  0.3619068725296016  0.46406978407353705  0.11572683752935832  1.0000
  H   H3        1.0  0.2764203969588339  0.9822106814262389  0.907232149675437  1.0000
  H   H4        1.0  0.7235808771296776  0.0177890959826215  0.0927679323162138  1.0000
  C   C1        1.0  0.7985075315053223  0.8204914252103707  0.6719337542995731  1.0000
  C   C2        1.0  0.20149137747682735  0.17950835638154672  0.3280663182585499  1.0000
  C   C3        1.0  0.6612891500581243  0.6759110570447291  0.7277326742900101  1.0000
  C   C4        1.0  0.33870975892402566  0.32408872454718823  0.272267398268113  1.0000
  C   C5        1.0  0.7457405271315594  0.6443245290397145  0.8450172397828979  1.0000
  C   C6        1.0  0.2542583832649541  0.35567525313197024  0.1549819146293956  1.0000
  C   C7        1.0  0.9679182072449919  0.7565165525583171  0.9110288655235266  1.0000
  C   C8        1.0  0.03208360762054239  0.2434843623176803  0.0889712510526692  1.0000
  C   C9        1.0  0.10146479217743823  0.8949345553088577  0.8552627139747316  1.0000
  C   C10       1.0  0.8985341168047184  0.10506522628305962  0.1447373585833915  1.0000
  N   N1        1.0  0.024416252634935718  0.925763831831759  0.7427875792900522  1.0000
  N   N2        1.0  0.9755826563472211  0.0742359497601655  0.2572124932680708  1.0000
  N   N3        1.0  0.43437792609163495  0.557861902417571  0.6602836283826221  1.0000
  N   N4        1.0  0.5656209828905149  0.44213787917434655  0.339716444175501  1.0000
  N   N5        1.0  0.054873430575852956  0.7320520871919457  0.034693983271552  1.0000
  N   N6        1.0  0.9451249376292807  0.26794655693283437  0.965306054702019  1.0000
  O   O1        1.0  0.7311595120135691  0.8534618210074001  0.5652202133037463  1.0000
  O   O2        1.0  0.2688417620749419  0.1465379564014597  0.4347798686879046  1.0000
  O   O3        1.0  0.24707844086645986  0.5939916980585807  0.5839011730259713  1.0000
  O   O4        1.0  0.7529233739990672  0.4060092168174165  0.4160989435502245  1.0000
  O   O5        1.0  0.4325078474725571  0.4225443342807013  0.6831586558766389  1.0000
  O   O6        1.0  0.5674934266159539  0.5774554431281587  0.3168414261150048  1.0000
  O   O7        1.0  0.9043842084335125  0.6166109967185919  0.0860669672811341  1.0000
  O   O8        1.0  0.09561470054863724  0.3833887848733256  0.913933105276989  1.0000
  O   O9        1.0  0.2796837126197431  0.8281445615102783  0.0874712438280838  1.0000
  O   O10       1.0  0.7203175614687679  0.1718552158985815  0.9125288381635671  1.0000
