data_image0
_chemical_formula_structural       Cu12H48C84N28O12
_chemical_formula_sum              "Cu12 H48 C84 N28 O12"
_cell_length_a       21.871961979951518
_cell_length_b       24.78876508759474
_cell_length_c       27.58806776356435
_cell_angle_alpha    91.70998403567306
_cell_angle_beta     90.2505420513612
_cell_angle_gamma    95.34798987338772

_space_group_name_H-M_alt    "P 1"
_space_group_IT_number       1

loop_
  _space_group_symop_operation_xyz
  'x, y, z'

loop_
  _atom_site_type_symbol
  _atom_site_label
  _atom_site_symmetry_multiplicity
  _atom_site_fract_x
  _atom_site_fract_y
  _atom_site_fract_z
  _atom_site_occupancy
  Cu  Cu1       1.0  0.16574298691169537  0.16672297689015636  0.9062153937206217  1.0000
  Cu  Cu2       1.0  0.10118958076827061  0.20012592656673436  0.8097268789126983  1.0000
  Cu  Cu3       1.0  0.18253360079457792  0.1000072152800797  0.8089177112413919  1.0000
  Cu  Cu4       1.0  0.648019976196821  0.8510098719087509  0.5945807279975027  1.0000
  Cu  Cu5       1.0  0.5886799951751415  0.8141118621609635  0.6935091955897048  1.0000
  Cu  Cu6       1.0  0.6707470411396059  0.9275030278774921  0.6856706140451435  1.0000
  Cu  Cu7       1.0  0.3351251213876267  0.6498691192939389  0.10484522033913628  1.0000
  Cu  Cu8       1.0  0.4462484226244782  0.693904469002483  0.17659705084677307  1.0000
  Cu  Cu9       1.0  0.37720061184383985  0.5855040272292841  0.19916255329772525  1.0000
  Cu  Cu10      1.0  0.7788191771538847  0.3129445071582566  0.38612933392685267  1.0000
  Cu  Cu11      1.0  0.8963024281302409  0.33271387513163825  0.31790212933023543  1.0000
  Cu  Cu12      1.0  0.7793656753234757  0.39185693331158694  0.2983727314360037  1.0000
  H   H1        1.0  0.13430257975031173  0.26288720846451946  0.9781976952156409  1.0000
  H   H2        1.0  0.055824392507318514  0.3131696503264791  0.8442420994338701  1.0000
  H   H3        1.0  0.2744087999307823  0.015591463774221404  0.8445475412831198  1.0000
  H   H4        1.0  0.23486124836131236  0.0974434419898174  0.9802394448614391  1.0000
  H   H5        1.0  0.0317876623736311  0.1788144901637452  0.7075963364943616  1.0000
  H   H6        1.0  0.1506317173474443  0.048275812774988915  0.7055648928837569  1.0000
  H   H7        1.0  0.6114864381229027  0.7475892667465447  0.5274477762903158  1.0000
  H   H8        1.0  0.5590899528764411  0.6865023993930989  0.6683215829909057  1.0000
  H   H9        1.0  0.7820889862965785  0.0106865915674277  0.6467819388888357  1.0000
  H   H10       1.0  0.7295181962766577  0.9144595854314375  0.5168920600307698  1.0000
  H   H11       1.0  0.5141587408412036  0.8374508707815237  0.7900578113972329  1.0000
  H   H12       1.0  0.6269372920487087  0.9896458968937266  0.7778011406261738  1.0000
  H   H13       1.0  0.35167058013066577  0.741287151840048  0.022898411742488592  1.0000
  H   H14       1.0  0.5034216916259312  0.7918449473896346  0.12035711112324778  1.0000
  H   H15       1.0  0.28675725688241727  0.4829586706542344  0.19148703907112716  1.0000
  H   H16       1.0  0.21695507320576013  0.5696147380787835  0.07214813198211087  1.0000
  H   H17       1.0  0.5337056479846467  0.7155359298753082  0.270023481162326  1.0000
  H   H18       1.0  0.44147911311811333  0.5578197216768146  0.3005002356979601  1.0000
  H   H19       1.0  0.82819314495498  0.22965898730774373  0.45959960511068215  1.0000
  H   H20       1.0  0.9930219448463973  0.2749426909407049  0.37807647496934027  1.0000
  H   H21       1.0  0.6738200710442329  0.4643555523727089  0.3321259831872751  1.0000
  H   H22       1.0  0.6544623704855185  0.3388032035992198  0.4384048499327091  1.0000
  H   H23       1.0  0.9722283415740733  0.35776851533471904  0.22031519075098763  1.0000
  H   H24       1.0  0.8015660704245775  0.42606414050247576  0.1890565698093666  1.0000
  H   H25       1.0  0.0340860638355238  0.4815271295905177  0.9730807949682327  1.0000
  H   H26       1.0  0.05474359055704533  0.4185843401109396  0.8920533548088014  1.0000
  H   H27       1.0  0.5708688192733363  0.5073327313649756  0.5457738423363023  1.0000
  H   H28       1.0  0.5844073687038147  0.5795836930678534  0.623192116316204  1.0000
  H   H29       1.0  0.5513933648497301  0.9277418168399124  0.9807717928533817  1.0000
  H   H30       1.0  0.5581340655609281  0.8469964831471161  0.046407823663272986  1.0000
  H   H31       1.0  0.0719986798578844  0.14714521129513972  0.5156997356344276  1.0000
  H   H32       1.0  0.05946127432727621  0.2280718627927811  0.45128305035241556  1.0000
  H   H33       1.0  0.3749028147361386  0.94368106122662  0.03695591316817118  1.0000
  H   H34       1.0  0.28190334420312274  0.0098832654527357  0.02770931678542609  1.0000
  H   H35       1.0  0.46909310436707585  0.4694666634890723  0.47632886009717607  1.0000
  H   H36       1.0  0.5213091480068996  0.37863370954518427  0.4426869010327507  1.0000
  H   H37       1.0  0.9049277357912898  0.05796148006066201  0.4513827679253806  1.0000
  H   H38       1.0  0.8032024039187748  0.986289148881241  0.464223665217794  1.0000
  H   H39       1.0  0.09373984479473313  0.3498483389362975  0.13579269768391097  1.0000
  H   H40       1.0  0.1990689576432416  0.40218403801808483  0.17600437377470962  1.0000
  H   H41       1.0  0.014667599196172899  0.004839844016359501  0.5449396805350444  1.0000
  H   H42       1.0  0.08984739932532901  0.004999228124830802  0.6250961922998923  1.0000
  H   H43       1.0  0.6351025198274839  0.6666995588601029  0.4400456198275647  1.0000
  H   H44       1.0  0.6047753064108293  0.7080655025678837  0.3528667953084577  1.0000
  H   H45       1.0  0.9255369516950935  0.4327260074319669  0.017806948044629692  1.0000
  H   H46       1.0  0.8373619848241278  0.41959806435549757  0.08812359709178708  1.0000
  H   H47       1.0  0.4753145489117331  0.0350885056467618  0.9212631064742849  1.0000
  H   H48       1.0  0.5496899123817512  0.0357810984297302  0.8412151670509898  1.0000
  C   C1        1.0  0.1178294648841316  0.266964985984437  0.941484941190218  1.0000
  C   C2        1.0  0.08801851365825542  0.30916671278372115  0.9217659544521692  1.0000
  C   C3        1.0  0.07818889983335002  0.2931035651977325  0.872886784188864  1.0000
  C   C4        1.0  0.2586533289595677  0.04131835684668059  0.8734972287314162  1.0000
  C   C5        1.0  0.2695233776882588  0.0404496434546076  0.9236990291197668  1.0000
  C   C6        1.0  0.23789572452112398  0.08292879110346969  0.9429249924879739  1.0000
  C   C7        1.0  0.06515774950021581  0.150216141861037  0.7146080241332979  1.0000
  C   C8        1.0  0.07986355591255291  0.1050492443070468  0.6865521748274758  1.0000
  C   C9        1.0  0.12586389922908128  0.08337793435533308  0.7135494595901546  1.0000
  C   C10       1.0  0.6004020806673438  0.7416491717793646  0.5653092102299337  1.0000
  C   C11       1.0  0.5808603913586765  0.69362819105649  0.5887618333479876  1.0000
  C   C12       1.0  0.5741928172105802  0.7102475459922817  0.6374586190036522  1.0000
  C   C13       1.0  0.7618891272253235  0.9819045177858355  0.6195347911151355  1.0000
  C   C14       1.0  0.7752104920339066  0.9767913838134065  0.5698862185095519  1.0000
  C   C15       1.0  0.7346779312187409  0.9328977774819907  0.5530078972574229  1.0000
  C   C16       1.0  0.5467075116351908  0.8710204884217634  0.7802893091802614  1.0000
  C   C17       1.0  0.5570709684183726  0.9232117943187462  0.8017706401726483  1.0000
  C   C18       1.0  0.6041827968985629  0.9489306919424436  0.7738737992346925  1.0000
  C   C19       1.0  0.3854944190650187  0.7465175510821994  0.05193247536605128  1.0000
  C   C20       1.0  0.4365453349423589  0.7851065514261393  0.05770600496995828  1.0000
  C   C21       1.0  0.4633612303388687  0.7720093709290337  0.10163514628561636  1.0000
  C   C22       1.0  0.27772366959700184  0.5110500281327717  0.16349768505536835  1.0000
  C   C23       1.0  0.23061868408888841  0.5076030311031942  0.12852310521895294  1.0000
  C   C24       1.0  0.24195540799289006  0.5554529305142709  0.10258625706209297  1.0000
  C   C25       1.0  0.505813659901648  0.6770070268059953  0.2700828123081037  1.0000
  C   C26       1.0  0.5026358811929796  0.6363301145586462  0.30467206939835717  1.0000
  C   C27       1.0  0.45842961662670234  0.596361795868468  0.28568642029197366  1.0000
  C   C28       1.0  0.8627574470093365  0.24595437131986134  0.4345580858221253  1.0000
  C   C29       1.0  0.9257286755379255  0.23898113568729673  0.4327552343909033  1.0000
  C   C30       1.0  0.9471597771075791  0.2693325401602635  0.393045397320442  1.0000
  C   C31       1.0  0.6773667352966513  0.429412199235891  0.354370471446522  1.0000
  C   C32       1.0  0.6419851138492731  0.41211431541206184  0.3943191307477746  1.0000
  C   C33       1.0  0.6669208776448842  0.36474373558424134  0.4083471818350474  1.0000
  C   C34       1.0  0.9270593649983923  0.3724471620973091  0.22062541677262704  1.0000
  C   C35       1.0  0.896034519235684  0.3968400017961642  0.18361255188496264  1.0000
  C   C36       1.0  0.8396488975459349  0.40712318137607195  0.20447459113881905  1.0000
  C   C37       1.0  0.05467727943462112  0.4092309726996391  0.010835856799246795  1.0000
  C   C38       1.0  0.046187704715570994  0.44007481317915154  0.9715742935039058  1.0000
  C   C39       1.0  0.056604498743013196  0.40714139108037967  0.9296336524367346  1.0000
  C   C40       1.0  0.07147722608673493  0.3579904994335338  0.9458457289456701  1.0000
  C   C41       1.0  0.5628332817016711  0.5813248850919238  0.5053486245449219  1.0000
  C   C42       1.0  0.5701202236453113  0.5509172702177382  0.5453965553345127  1.0000
  C   C43       1.0  0.5764346080236535  0.5887921431085985  0.5856267740140735  1.0000
  C   C44       1.0  0.5731649611622062  0.6395472628805763  0.5679908065782938  1.0000
  C   C45       1.0  0.45631991508106756  0.892238016310131  0.97385507815666  1.0000
  C   C46       1.0  0.5153081940702364  0.8974634790626297  0.991292693426487  1.0000
  C   C47       1.0  0.5183242111562693  0.855794733592461  0.025523080234336186  1.0000
  C   C48       1.0  0.46087311453217694  0.8282596655530482  0.027457196425451982  1.0000
  C   C49       1.0  0.971528567323482  0.1435924584078734  0.5161343991691324  1.0000
  C   C50       1.0  0.029920133773700303  0.16205657630993642  0.5030090920697174  1.0000
  C   C51       1.0  0.022989394183056806  0.20394004796395393  0.46941287221935096  1.0000
  C   C52       1.0  0.9612075427362896  0.20784977520472844  0.46358957560187963  1.0000
  C   C53       1.0  0.3795978812189702  0.9516709778371751  0.9580699421046146  1.0000
  C   C54       1.0  0.3582231730434343  0.9601904849613376  0.004011831702769096  1.0000
  C   C55       1.0  0.309853306753567  0.9946850806684182  0.9988940742969983  1.0000
  C   C56       1.0  0.30526161201512986  0.005552297444836501  0.9505749156986805  1.0000
  C   C57       1.0  0.5507807582980035  0.511270465662463  0.44446325700516087  1.0000
  C   C58       1.0  0.5118636971516183  0.4676206059907885  0.45690807388486815  1.0000
  C   C59       1.0  0.5394713990096845  0.42064439470862425  0.43986506622168503  1.0000
  C   C60       1.0  0.5933332271071308  0.4385279209553802  0.41751092256594535  1.0000
  C   C61       1.0  0.9009683762807087  0.06602246933430682  0.5305652202958127  1.0000
  C   C62       1.0  0.8829946876960618  0.046645509989488694  0.4852169693056607  1.0000
  C   C63       1.0  0.8301183735075953  0.00947234848514  0.4921477892982507  1.0000
  C   C64       1.0  0.8195498672265061  0.007888562875770302  0.5412039287980048  1.0000
  C   C65       1.0  0.09731273284496922  0.4215004248282739  0.09159079360138377  1.0000
  C   C66       1.0  0.11659532582709181  0.38880918861023156  0.12645995483864425  1.0000
  C   C67       1.0  0.17111202396795733  0.4161586262507768  0.14720413643357225  1.0000
  C   C68       1.0  0.18247640222364941  0.4640658765581095  0.12334672573787488  1.0000
  C   C69       1.0  0.9926648444568188  0.08214097211364899  0.5773174215320294  1.0000
  C   C70       1.0  0.021298487284489902  0.03541926239150681  0.5738956488466298  1.0000
  C   C71       1.0  0.0603013253110447  0.0358271444987182  0.615428173521998  1.0000
  C   C72       1.0  0.053440740777475106  0.0830245220636172  0.6415739006656833  1.0000
  C   C73       1.0  0.5612726842068342  0.604192729976468  0.4199350586441567  1.0000
  C   C74       1.0  0.599828171302171  0.6503738682550306  0.41456311120790434  1.0000
  C   C75       1.0  0.5837696669408247  0.6716613695904103  0.3692009833624466  1.0000
  C   C76       1.0  0.5370322422552931  0.6369824571504878  0.34926195054664066  1.0000
  C   C77       1.0  0.9866582448554482  0.4173052690153654  0.07797030424885067  1.0000
  C   C78       1.0  0.9320020657582974  0.42428615153875177  0.055654221259786085  1.0000
  C   C79       1.0  0.8863976101925176  0.417614337429093  0.09261381190565025  1.0000
  C   C80       1.0  0.9157788783250923  0.40747636992323066  0.13491713385707266  1.0000
  C   C81       1.0  0.46566378666367586  0.9476893783620287  0.9054245472730569  1.0000
  C   C82       1.0  0.48678724760923586  0.0007046597004887012  0.8990395576534379  1.0000
  C   C83       1.0  0.5254610278710601  0.0007893623729913008  0.8575775921479686  1.0000
  C   C84       1.0  0.5262481954078879  0.9477808850128396  0.84149205119283  1.0000
  N   N1        1.0  0.5526858562507685  0.5665633374003534  0.45644858016967743  1.0000
  N   N2        1.0  0.04663225075120891  0.4173788660085336  0.06051962091535047  1.0000
  N   N3        1.0  0.9491722006773673  0.10303085308531479  0.5473982976139026  1.0000
  N   N4        1.0  0.4269433834648809  0.9224393852042283  0.9400821382514051  1.0000
  N   N5        1.0  0.10065506818270362  0.24492563239819987  0.8642699597516593  1.0000
  N   N6        1.0  0.12525945868829783  0.2287467235512253  0.9067382784595704  1.0000
  N   N7        1.0  0.21001495940917891  0.10701042686162762  0.9068675849043185  1.0000
  N   N8        1.0  0.2229154316452764  0.08134975645887721  0.8638507191353139  1.0000
  N   N9        1.0  0.1373922857816083  0.11329305768823163  0.7546904249742423  1.0000
  N   N10       1.0  0.09988806211495671  0.1547525166838852  0.7553959734169308  1.0000
  N   N11       1.0  0.5892516433677245  0.7641777466827263  0.6425498698072544  1.0000
  N   N12       1.0  0.6054509754652672  0.7835937730510949  0.5978576096050218  1.0000
  N   N13       1.0  0.6998506638316967  0.9134806181536632  0.5898310943870867  1.0000
  N   N14       1.0  0.7166630516468971  0.9436542134183271  0.631090224651295  1.0000
  N   N15       1.0  0.6202809860609833  0.9147387166415512  0.7382987367806704  1.0000
  N   N16       1.0  0.584755254003433  0.8663769212042067  0.7422327351558946  1.0000
  N   N17       1.0  0.431058756660974  0.7287891453972578  0.12039808629374697  1.0000
  N   N18       1.0  0.3826408664162955  0.7128547290550602  0.08974635553228437  1.0000
  N   N19       1.0  0.292211748917758  0.5850836952102655  0.12105257402664896  1.0000
  N   N20       1.0  0.3141656986274626  0.5574197755504784  0.15882667564611094  1.0000
  N   N21       1.0  0.43716396347353037  0.6123154336929275  0.2429083391370454  1.0000
  N   N22       1.0  0.46646103640217973  0.6621574028964259  0.23332663772239204  1.0000
  N   N23       1.0  0.9003977046108035  0.2927588823111122  0.37291016265852045  1.0000
  N   N24       1.0  0.8480479813998797  0.2782423509159102  0.3985306608284984  1.0000
  N   N25       1.0  0.7137792341138294  0.35460104825274646  0.3788132865280429  1.0000
  N   N26       1.0  0.7200299973759385  0.3946441851572756  0.34529983267729136  1.0000
  N   N27       1.0  0.8373833116569358  0.3899154220056289  0.25039610389696776  1.0000
  N   N28       1.0  0.8914715201227067  0.36846767215178033  0.2604739257883962  1.0000
  O   O1        1.0  0.07002516968435661  0.3585140047900524  0.9957753847536635  1.0000
  O   O2        1.0  0.5643267579919709  0.6350237703889903  0.5177946655425953  1.0000
  O   O3        1.0  0.4221782790319041  0.849942541881049  0.9948215365338908  1.0000
  O   O4        1.0  0.9288877715280109  0.17114720821689386  0.49338556723419186  1.0000
  O   O5        1.0  0.34772390676364046  0.9778625308853107  0.9247734299382271  1.0000
  O   O6        1.0  0.6010234369633451  0.49451444113591964  0.4203497799274202  1.0000
  O   O7        1.0  0.8627249632157473  0.043513327477221315  0.5653020782273329  1.0000
  O   O8        1.0  0.13712666118685493  0.46825315683448576  0.08925395788203616  1.0000
  O   O9        1.0  0.011300357474176804  0.11185360190988552  0.6185378618940901  1.0000
  O   O10       1.0  0.5222951335404957  0.5952263721052803  0.3807110355718492  1.0000
  O   O11       1.0  0.9784157481153957  0.40686238827584015  0.12586174894162377  1.0000
  O   O12       1.0  0.4886535351771712  0.9145433092981391  0.870549562986589  1.0000
