data_image0
_chemical_formula_structural       Hg2H12C16Br4N8
_chemical_formula_sum              "Hg2 H12 C16 Br4 N8"
_cell_length_a       4.0523391890167
_cell_length_b       10.849858534697054
_cell_length_c       12.594264893962432
_cell_angle_alpha    93.75390041745068
_cell_angle_beta     90.0001989160074
_cell_angle_gamma    90.00019232488359

_space_group_name_H-M_alt    "P 1"
_space_group_IT_number       1

loop_
  _space_group_symop_operation_xyz
  'x, y, z'

loop_
  _atom_site_type_symbol
  _atom_site_label
  _atom_site_symmetry_multiplicity
  _atom_site_fract_x
  _atom_site_fract_y
  _atom_site_fract_z
  _atom_site_occupancy
  Hg  Hg1       1.0  2.8938860253899995e-05  8.014344892599836e-06  0.9999967263304157  1.0000
  Hg  Hg2       1.0  0.4999948278252404  9.466837639099747e-06  0.49999624805231957  1.0000
  H   H1        1.0  0.8497827161930261  0.6940448551339244  0.9378373919730265  1.0000
  H   H2        1.0  0.34975967185777534  0.305957347547988  0.5621584441650995  1.0000
  H   H3        1.0  0.15025548490670101  0.3059536885196223  0.06215321840581112  1.0000
  H   H4        1.0  0.6502020302390437  0.6940356007244688  0.4378429469485567  1.0000
  H   H5        1.0  0.39087481340582997  0.8296113120836494  0.1998128279808142  1.0000
  H   H6        1.0  0.8908479437041804  0.17039773770193278  0.3001824641007929  1.0000
  H   H7        1.0  0.6091461137500007  0.17039091086343922  0.8001811790599264  1.0000
  H   H8        1.0  0.10910635525237211  0.8295970769462143  0.6998150688143099  1.0000
  H   H9        1.0  0.48678170073508653  0.6100315464702106  0.2525083562106474  1.0000
  H   H10       1.0  0.986721646291045  0.3899766590644943  0.24749971867244375  1.0000
  H   H11       1.0  0.5132565004556254  0.3899761763573934  0.7474947148041835  1.0000
  H   H12       1.0  0.013235120452783598  0.6100171403017213  0.7525168098272417  1.0000
  C   C1        1.0  0.061009166914274694  0.5534648386854356  0.0337222030080113  1.0000
  C   C2        1.0  0.5609366377942138  0.4465363577212287  0.4662682039235406  1.0000
  C   C3        1.0  0.9390586466806069  0.44653745302517206  0.9662575158453564  1.0000
  C   C4        1.0  0.43899298409361626  0.5534574874445538  0.5337387990760121  1.0000
  C   C5        1.0  0.9972095680310672  0.6748391256610801  0.007344722518766392  1.0000
  C   C6        1.0  0.4971459327588903  0.3251672745869526  0.4926577000314225  1.0000
  C   C7        1.0  0.0028730519245812004  0.3251723375978557  0.9926490445613183  1.0000
  C   C8        1.0  0.5027861568428164  0.6748265667623485  0.5073500967599571  1.0000
  C   C9        1.0  0.290406388039166  0.7498167849251585  0.1533179480388114  1.0000
  C   C10       1.0  0.7903707024486766  0.2501985335362135  0.34668790685109496  1.0000
  C   C11       1.0  0.7096194746266208  0.2501918348102236  0.8466907348760702  1.0000
  C   C12       1.0  0.20958359654760983  0.749795307829359  0.653319889956208  1.0000
  C   C13       1.0  0.34631198874296126  0.6287464940829395  0.18118564018962502  1.0000
  C   C14       1.0  0.8462795324845162  0.37125138758114656  0.31881289237789195  1.0000
  C   C15       1.0  0.6536867289677133  0.3712465038543726  0.8188054316798556  1.0000
  C   C16       1.0  0.1536821696291071  0.6287369004659594  0.6811969535337924  1.0000
  Br  Br1       1.0  0.39471127492216596  0.09025150740736619  0.1423527091684917  1.0000
  Br  Br2       1.0  0.8947107390568333  0.9097741621704075  0.3576459666182289  1.0000
  Br  Br3       1.0  0.6053639418681769  0.9097460706272925  0.8576465775489909  1.0000
  Br  Br4       1.0  0.10525836618437269  0.09022712563901791  0.6423503663769878  1.0000
  N   N1        1.0  0.23313719386777623  0.5309632263520568  0.1220512932456472  1.0000
  N   N2        1.0  0.7330764362278543  0.4690492716173081  0.37794716923684046  1.0000
  N   N3        1.0  0.7669232167242798  0.4690491299891446  0.8779488795174685  1.0000
  N   N4        1.0  0.266880330503909  0.5309510390822182  0.6220602214317879  1.0000
  N   N5        1.0  0.11178335335181798  0.7716781649818001  0.0670927305646316  1.0000
  N   N6        1.0  0.6117580930309143  0.22832583859916158  0.43290585326427333  1.0000
  N   N7        1.0  0.8882523800118209  0.22832226414248416  0.9328900526689169  1.0000
  N   N8        1.0  0.38819127055918295  0.7716698424158962  0.5671036418766349  1.0000
