data_image0
_chemical_formula_structural       Zn2H23C49IN2O11
_chemical_formula_sum              "Zn2 H23 C49 I1 N2 O11"
_cell_length_a       12.678954767535762
_cell_length_b       13.559573720896166
_cell_length_c       15.214294705990556
_cell_angle_alpha    88.66392327394021
_cell_angle_beta     74.1835771622389
_cell_angle_gamma    76.06041107376862

_space_group_name_H-M_alt    "P 1"
_space_group_IT_number       1

loop_
  _space_group_symop_operation_xyz
  'x, y, z'

loop_
  _atom_site_type_symbol
  _atom_site_label
  _atom_site_symmetry_multiplicity
  _atom_site_fract_x
  _atom_site_fract_y
  _atom_site_fract_z
  _atom_site_occupancy
  Zn  Zn1       1.0  0.6177059454177607  0.5048683811777651  0.4715966864648422  1.0000
  Zn  Zn2       1.0  0.3851044806736753  0.4958539083243423  0.5221744094470964  1.0000
  H   H1        1.0  0.6803391083096455  0.5144032641261377  0.17577884110525596  1.0000
  H   H2        1.0  0.901612357848549  0.7125239444829746  0.3441021393129233  1.0000
  H   H3        1.0  0.331999297809233  0.5089104402076786  0.2646699886733686  1.0000
  H   H4        1.0  0.279879095489619  0.3676246411570291  0.647276770183197  1.0000
  H   H5        1.0  0.9434733245147767  0.3852082757988455  0.6291011903632935  1.0000
  H   H6        1.0  0.09546872250765398  0.31684740138098283  0.7028863457867587  1.0000
  H   H7        1.0  0.24187456639236152  0.6042195191566293  0.43315205193990636  1.0000
  H   H8        1.0  0.21470883388658984  0.5169581729169863  0.985836550801217  1.0000
  H   H9        1.0  0.316392816230838  0.5082245046069289  0.8188822588927848  1.0000
  H   H10       1.0  0.6702388336308117  0.49844375782493694  0.7334719180159864  1.0000
  H   H11       1.0  0.7761653720591539  0.5046587808339353  0.848771483996387  1.0000
  H   H12       1.0  0.24797892904162205  0.16538790987376467  0.4413085549428644  1.0000
  H   H13       1.0  0.778761241794818  0.5104089794862432  0.0108462019904749  1.0000
  H   H14       1.0  0.7546829553848722  0.3717328661097099  0.5379797595185921  1.0000
  H   H15       1.0  0.1876206426684064  0.5224289933815597  0.2348640542898579  1.0000
  H   H16       1.0  0.19082744718671318  0.7646964272270366  0.5754790106149699  1.0000
  H   H17       1.0  0.18626017218379326  0.005339819559495104  0.4726267502911483  1.0000
  H   H18       1.0  0.5708190801900626  0.8207135098706787  0.4836390321830494  1.0000
  H   H19       1.0  0.7713939014397866  0.18508588398186987  0.45847210198698457  1.0000
  H   H20       1.0  0.6876062203637404  0.8957574170286409  0.4625571602016619  1.0000
  H   H21       1.0  0.38866899476926864  0.263970972702289  0.43765280395380296  1.0000
  H   H22       1.0  0.7213044815233544  0.6540865442373303  0.3768795567622405  1.0000
  H   H23       1.0  0.0899254356480697  0.6934611124560918  0.36591722054646425  1.0000
  C   C1        1.0  0.5686315024370215  0.3043539655919432  0.4744305355939389  1.0000
  C   C2        1.0  0.3941613703016386  0.506803598100305  0.8370542473346559  1.0000
  C   C3        1.0  0.4935143300620908  0.5021018199252651  0.7674028137881734  1.0000
  C   C4        1.0  0.4928082213930337  0.49868522578988467  0.6691273011970225  1.0000
  C   C5        1.0  0.5940556560189092  0.501461601906918  0.7891669329253689  1.0000
  C   C6        1.0  0.27125689168300937  0.9658887242427671  0.47507193663378905  1.0000
  C   C7        1.0  0.4039475452212711  0.8112537599672651  0.4954957742301929  1.0000
  C   C8        1.0  0.7107024799907078  0.1405617621456088  0.45760605940434834  1.0000
  C   C9        1.0  0.7416115095544524  0.03384487379825882  0.4565804154907696  1.0000
  C   C10       1.0  0.6624916578354672  0.9781065296060447  0.4599695317808922  1.0000
  C   C11       1.0  0.5506379145186955  0.026744806208753896  0.4604107086635381  1.0000
  C   C12       1.0  0.6013378696613074  0.5118841943572505  0.06631697913385891  1.0000
  C   C13       1.0  0.5193035249326385  0.13495321908665403  0.45665382755091594  1.0000
  C   C14       1.0  0.465761915506505  0.9694327871034433  0.4677562730558833  1.0000
  C   C15       1.0  0.3550696369838491  0.021069130693227602  0.46347124215041896  1.0000
  C   C16       1.0  0.4360102423969678  0.6985991856863195  0.5041537343236655  1.0000
  C   C17       1.0  0.331066666802144  0.12781432347539834  0.44924705899782674  1.0000
  C   C18       1.0  0.4091543313218294  0.18256660945528583  0.44715938933349264  1.0000
  C   C19       1.0  0.48735130139309024  0.8643432986228773  0.48188178909358476  1.0000
  C   C20       1.0  0.29295201528992004  0.8633199393175275  0.493634935044831  1.0000
  C   C21       1.0  0.6004548726956571  0.19074894723772223  0.4600574883859919  1.0000
  C   C22       1.0  0.8903840532050963  0.6476464428658203  0.38615909754293637  1.0000
  C   C23       1.0  0.2937521528349194  0.5164197158759762  0.09228280300171579  1.0000
  C   C24       1.0  0.2100437234763888  0.3974214643293621  0.6175563909819741  1.0000
  C   C25       1.0  0.10776857093775047  0.3683032230181522  0.6470517510684246  1.0000
  C   C26       1.0  0.0236986159598942  0.4059220155774313  0.604666040687988  1.0000
  C   C27       1.0  0.041733167261256136  0.4713675578228803  0.5314649869082897  1.0000
  C   C28       1.0  0.5086501343235383  0.5079216236045667  0.3254973886304739  1.0000
  C   C29       1.0  0.14490949220166266  0.5033009934493295  0.5102610294147139  1.0000
  C   C30       1.0  0.9594479819245547  0.513698243535444  0.48173102948745594  1.0000
  C   C31       1.0  0.9764176472522761  0.5974088484848324  0.42539737874211175  1.0000
  C   C32       1.0  0.07948280213751246  0.6291095920199511  0.4088652913333775  1.0000
  C   C33       1.0  0.1627270228803397  0.5810663179997846  0.4468360023698068  1.0000
  C   C34       1.0  0.2942411731201488  0.5144745635228959  0.0017413395282446272  1.0000
  C   C35       1.0  0.8610759356818819  0.4788594273532212  0.4852431654717293  1.0000
  C   C36       1.0  0.7919708508125324  0.6154072103737608  0.4026436347500706  1.0000
  C   C37       1.0  0.6028307950819068  0.513456445221081  0.1580536711594434  1.0000
  C   C38       1.0  0.5056398792398298  0.5115345098010593  0.22772256057101004  1.0000
  C   C39       1.0  0.40448449908015494  0.5113164403622079  0.20739191949380142  1.0000
  C   C40       1.0  0.397305025650084  0.5133610575814843  0.11696762989672037  1.0000
  C   C41       1.0  0.49808794068282924  0.5116939174622885  0.044967316894286624  1.0000
  C   C42       1.0  0.8442134434059979  0.37522793389184284  0.5131376178596341  1.0000
  C   C43       1.0  0.1848473382383773  0.5235236124849152  0.1623360315946698  1.0000
  C   C44       1.0  0.196318791975301  0.8148010648922651  0.5165748541631956  1.0000
  C   C45       1.0  0.3940786220167708  0.5097788989387979  0.9293228022421971  1.0000
  C   C46       1.0  0.49676766859956695  0.5090951503818955  0.9519019870795874  1.0000
  C   C47       1.0  0.5978539318946615  0.5055789992288311  0.8802350337544382  1.0000
  C   C48       1.0  0.6996347445889696  0.5064685386643504  0.9039052071257884  1.0000
  C   C49       1.0  0.7011105515630475  0.5097394207404805  0.9931274827399007  1.0000
  I   I1        1.0  0.9070411198033024  0.9561684388244914  0.4551952794668638  1.0000
  N   N1        1.0  0.778685962844548  0.531401216367975  0.4501161662361569  1.0000
  N   N2        1.0  0.22721358338644393  0.46437197756328175  0.5527910254301247  1.0000
  O   O1        1.0  0.6450840334811686  0.35190711236342037  0.44153285851625407  1.0000
  O   O2        1.0  0.09382883576909509  0.5312268688504461  0.1453772797836166  1.0000
  O   O3        1.0  0.1219708673765254  0.8322516556809276  0.47661651260608545  1.0000
  O   O4        1.0  0.46844283504483997  0.3447492523297342  0.5219729714940583  1.0000
  O   O5        1.0  0.5886935978620754  0.48194294057262965  0.609594292479997  1.0000
  O   O6        1.0  0.3972304728809489  0.5129388029103482  0.6524635775993916  1.0000
  O   O7        1.0  0.5360120570747213  0.6578072325081196  0.507576895104961  1.0000
  O   O8        1.0  0.3601772044713484  0.6505732917070475  0.5053424556580453  1.0000
  O   O9        1.0  0.5906635428895155  0.53272123990714  0.3450237469862856  1.0000
  O   O10       1.0  0.42791544726000535  0.47964769276951114  0.3819091730824198  1.0000
  O   O11       1.0  0.9220139768658198  0.2991659828703349  0.5033912898788272  1.0000
