data_image0
_chemical_formula_structural       Cd4H40C64N16O16
_chemical_formula_sum              "Cd4 H40 C64 N16 O16"
_cell_length_a       9.743135858136627
_cell_length_b       11.282417805335113
_cell_length_c       14.732371859465008
_cell_angle_alpha    106.05979272464302
_cell_angle_beta     90.0000459099788
_cell_angle_gamma    89.99940124374105

_space_group_name_H-M_alt    "P 1"
_space_group_IT_number       1

loop_
  _space_group_symop_operation_xyz
  'x, y, z'

loop_
  _atom_site_type_symbol
  _atom_site_label
  _atom_site_symmetry_multiplicity
  _atom_site_fract_x
  _atom_site_fract_y
  _atom_site_fract_z
  _atom_site_occupancy
  Cd  Cd1       1.0  0.8910457363113338  0.3610214654893156  0.4809542277937382  1.0000
  Cd  Cd2       1.0  0.3910468340688241  0.6389740105321309  0.019035239381913992  1.0000
  Cd  Cd3       1.0  0.1089519220682291  0.63897397902484  0.5190488582832273  1.0000
  Cd  Cd4       1.0  0.6089477451529461  0.3610322443175491  0.9809591368608961  1.0000
  H   H1        1.0  0.7072463058110118  0.40319732083734994  0.3016116187278968  1.0000
  H   H2        1.0  0.20724798279633216  0.5968063137698963  0.19837797361540777  1.0000
  H   H3        1.0  0.2927451943638033  0.5968013645142349  0.6983731039426642  1.0000
  H   H4        1.0  0.7927435173458478  0.40319816070545045  0.8016187636879052  1.0000
  H   H5        1.0  0.3941248145654158  0.6610543715238179  0.2731882766866605  1.0000
  H   H6        1.0  0.8941177263497055  0.33896813898602574  0.2268201527616114  1.0000
  H   H7        1.0  0.605874896469075  0.33895291748230255  0.7268110576054096  1.0000
  H   H8        1.0  0.10587787923037692  0.6610391500394711  0.7731791815327326  1.0000
  H   H9        1.0  0.054373292613711  0.24035258861812275  0.2755739817686589  1.0000
  H   H10       1.0  0.5543539367497416  0.7596358739155064  0.2244117934812806  1.0000
  H   H11       1.0  0.9456489984531301  0.7596491351362219  0.7244228867826904  1.0000
  H   H12       1.0  0.4456344843185959  0.24036599398494465  0.7755912136703812  1.0000
  H   H13       1.0  0.3982502043713083  0.7646424109640008  0.4471773644950332  1.0000
  H   H14       1.0  0.8982340363121041  0.23537091871959598  0.052832634702078  1.0000
  H   H15       1.0  0.6017464276778952  0.23534751640521984  0.5528253020481557  1.0000
  H   H16       1.0  0.10176156929008331  0.7646326655419313  0.9471652831283564  1.0000
  H   H17       1.0  0.2621456134510183  0.8545901139503371  0.3275827898796209  1.0000
  H   H18       1.0  0.7621408423064223  0.1454024000434586  0.17242431818064566  1.0000
  H   H19       1.0  0.7378684666854554  0.14541555458377078  0.6724257261093882  1.0000
  H   H20       1.0  0.2379040288655788  0.8545821539344942  0.8275840673829151  1.0000
  H   H21       1.0  0.1399904672196612  0.07009138164753641  0.14035041890719668  1.0000
  H   H22       1.0  0.6399691071188087  0.9298909474177891  0.3596430265120317  1.0000
  H   H23       1.0  0.860034902960223  0.9299067013221819  0.8596477614369746  1.0000
  H   H24       1.0  0.36002136667134726  0.0701119066582194  0.6403628924967605  1.0000
  H   H25       1.0  0.7247056764124197  0.6010107602084177  0.6506782292000395  1.0000
  H   H26       1.0  0.22469645924766013  0.3989702333690204  0.8493180431675638  1.0000
  H   H27       1.0  0.2752827447664004  0.39897256787372026  0.3493170135674148  1.0000
  H   H28       1.0  0.7752909354012304  0.6010406324714522  0.15067725107837046  1.0000
  H   H29       1.0  0.0795349352278052  0.1947735906033472  0.6027425203307144  1.0000
  H   H30       1.0  0.5795366495415237  0.8052251169450811  0.8972463049974448  1.0000
  H   H31       1.0  0.9204401431577551  0.8052207878398007  0.39725424357745714  1.0000
  H   H32       1.0  0.4204599824854753  0.19476846719270208  0.10275573181582587  1.0000
  H   H33       1.0  0.5421373080179918  0.7429092322213718  0.6160442358438161  1.0000
  H   H34       1.0  0.042134950290275704  0.2570865076156323  0.8839595841012267  1.0000
  H   H35       1.0  0.45784598133160875  0.2570758762738592  0.3839486458676973  1.0000
  H   H36       1.0  0.9578565498409051  0.7429198432393987  0.11603888453095831  1.0000
  H   H37       1.0  0.19948740838435702  0.9867368983427196  0.5241630920451  1.0000
  H   H38       1.0  0.6994905098258144  0.0132636352865987  0.9758343356569765  1.0000
  H   H39       1.0  0.8005092235982547  0.013264015330655401  0.4758383673729511  1.0000
  H   H40       1.0  0.3005245967404165  0.986730854956882  0.02416720268125522  1.0000
  C   C1        1.0  0.5608166697732954  0.6437256638169728  0.4694327852535878  1.0000
  C   C2        1.0  0.0608119500004847  0.35627134150908546  0.03056759445929911  1.0000
  C   C3        1.0  0.4391809886502146  0.3562622591799567  0.5305626934432581  1.0000
  C   C4        1.0  0.939189813838695  0.6437230368080903  0.9694291694340504  1.0000
  C   C5        1.0  0.5525048082073384  0.5287440084280136  0.2776805867387964  1.0000
  C   C6        1.0  0.05250185297713732  0.4712658900502333  0.2223182802128534  1.0000
  C   C7        1.0  0.44749285012719037  0.47125847764929324  0.7223096447799405  1.0000
  C   C8        1.0  0.9474937526140934  0.5287395865894524  0.7776820510110695  1.0000
  C   C9        1.0  0.5530768243031617  0.47048564589279357  0.1731493937635733  1.0000
  C   C10       1.0  0.05308346949671971  0.5295363636153708  0.326857315862199  1.0000
  C   C11       1.0  0.4469115967261176  0.5295225333610531  0.8268487600053688  1.0000
  C   C12       1.0  0.9469121361277503  0.4704635958745342  0.6731425958273718  1.0000
  C   C13       1.0  0.6472873871307173  0.5413980646079394  0.4297326356716624  1.0000
  C   C14       1.0  0.1472834993152787  0.45860271930471425  0.07026788395466353  1.0000
  C   C15       1.0  0.35271027126493953  0.45859438935352886  0.570260350701254  1.0000
  C   C16       1.0  0.8527172380994159  0.541401803122433  0.929730899537361  1.0000
  C   C17       1.0  0.6436092336530025  0.4830466163201025  0.3330891387787247  1.0000
  C   C18       1.0  0.1436067311922642  0.5169605936571173  0.1669099418715447  1.0000
  C   C19       1.0  0.3563884246929945  0.5169542013576135  0.6669082282510884  1.0000
  C   C20       1.0  0.8563847689500295  0.4830439288136362  0.833088841625603  1.0000
  C   C21       1.0  0.46555786454542414  0.6300531097403734  0.31868711161527585  1.0000
  C   C22       1.0  0.9655565423490489  0.3699603306314144  0.18131549372149888  1.0000
  C   C23       1.0  0.5344356883072408  0.36995408330399476  0.6813081302925352  1.0000
  C   C24       1.0  0.0344390632864204  0.630037752478806  0.8186826866391925  1.0000
  C   C25       1.0  0.10113389067273461  0.15814212166340977  0.28688796151528345  1.0000
  C   C26       1.0  0.6011196954201666  0.841847775759902  0.21309949313578613  1.0000
  C   C27       1.0  0.8988863477002553  0.8418541329462458  0.7131105336966923  1.0000
  C   C28       1.0  0.3988789892454392  0.15816054743171998  0.7869047992089617  1.0000
  C   C29       1.0  0.11145305849866823  0.14315811070328982  0.3777748078296241  1.0000
  C   C30       1.0  0.6114437786488623  0.8568391467971564  0.12221751448156942  1.0000
  C   C31       1.0  0.8885599952515266  0.856851006624126  0.6222242115900798  1.0000
  C   C32       1.0  0.3885528533119357  0.1431655996279346  0.877790817917301  1.0000
  C   C33       1.0  0.4680988018060719  0.6892779905324173  0.4149613968837044  1.0000
  C   C34       1.0  0.9680981576555043  0.310732819257808  0.0850474754777721  1.0000
  C   C35       1.0  0.5318906456036246  0.3107275181332767  0.5850402984728545  1.0000
  C   C36       1.0  0.03190463253631041  0.6892634514326801  0.9149517018085048  1.0000
  C   C37       1.0  0.20702310746303715  0.9543904098863152  0.22667128718054394  1.0000
  C   C38       1.0  0.7070072649247835  0.045592304481665694  0.27332635978733316  1.0000
  C   C39       1.0  0.7929981572296755  0.0456133982326605  0.7733361795402087  1.0000
  C   C40       1.0  0.2929955252508236  0.9544069087661102  0.726680871009151  1.0000
  C   C41       1.0  0.2544386177984422  0.853851968604431  0.14333933262510362  1.0000
  C   C42       1.0  0.7544267249096778  0.1461322224713442  0.3566620392111659  1.0000
  C   C43       1.0  0.7455744360518397  0.1461407572583298  0.8566652488376718  1.0000
  C   C44       1.0  0.24557195980034416  0.8538687871831526  0.6433435125934182  1.0000
  C   C45       1.0  0.2194719806729637  0.9392574052716113  0.31762419305110257  1.0000
  C   C46       1.0  0.7194600253592682  0.06073074069524151  0.18237522375445533  1.0000
  C   C47       1.0  0.7805482576446039  0.0607480392548609  0.6823747740299169  1.0000
  C   C48       1.0  0.2805602130139704  0.939265625903701  0.8176280459098064  1.0000
  C   C49       1.0  0.17191679180701414  0.0354235583127149  0.3923981322007606  1.0000
  C   C50       1.0  0.6719113365750007  0.9645741145183279  0.10759703482516868  1.0000
  C   C51       1.0  0.8281013937726129  0.9645838745924136  0.607607340662554  1.0000
  C   C52       1.0  0.32809966452573047  0.0354222041288139  0.8924041886503813  1.0000
  C   C53       1.0  0.1491887942225389  0.0630709946942503  0.21237761520644227  1.0000
  C   C54       1.0  0.6491786112594298  0.9369168126223213  0.287618285720569  1.0000
  C   C55       1.0  0.8508304177648897  0.9369290286781009  0.7876250247284703  1.0000
  C   C56       1.0  0.3508169943762526  0.06308136647871271  0.7123839870277989  1.0000
  C   C57       1.0  0.685652557811821  0.596045366374696  0.5807956041671928  1.0000
  C   C58       1.0  0.1856474132202237  0.4039489865546245  0.919206692284959  1.0000
  C   C59       1.0  0.31433791603324585  0.40394807380592823  0.41920029406798415  1.0000
  C   C60       1.0  0.8143440869220983  0.5960555519145955  0.08079277327679792  1.0000
  C   C61       1.0  0.1025718586496609  0.16051040949216847  0.5279102211894724  1.0000
  C   C62       1.0  0.6025772935551927  0.8394965242562691  0.9720863695354253  1.0000
  C   C63       1.0  0.897421694225429  0.8394932227744575  0.4720897428359335  1.0000
  C   C64       1.0  0.39742447024016775  0.16050543957200597  0.0279207299965023  1.0000
  N   N1        1.0  0.5891348924599029  0.6758528380479093  0.5652856470668368  1.0000
  N   N2        1.0  0.0891266125782053  0.3241415359226565  0.9347179370936232  1.0000
  N   N3        1.0  0.41085660776547434  0.3241378835491631  0.4347117465621295  1.0000
  N   N4        1.0  0.9108720721480239  0.6758565311745599  0.06527956120074661  1.0000
  N   N5        1.0  0.7234704285789846  0.5144377881388779  0.5016270357271111  1.0000
  N   N6        1.0  0.22346638164030713  0.4855551095731485  0.9983675324193654  1.0000
  N   N7        1.0  0.2765251770893684  0.4855546178368684  0.4983639044531144  1.0000
  N   N8        1.0  0.7765261448655849  0.5144494128927591  0.0016312510772138408  1.0000
  N   N9        1.0  0.068624515029228  0.21930042382076204  0.4640568330904599  1.0000
  N   N10       1.0  0.5686192005413987  0.780700004578307  0.035936087576573086  1.0000
  N   N11       1.0  0.9313813542257493  0.7807004738105336  0.5359439442578449  1.0000
  N   N12       1.0  0.4313681941300587  0.21930736447829693  0.9640666570453928  1.0000
  N   N13       1.0  0.16554710348488305  0.0510864726429006  0.4890198983343906  1.0000
  N   N14       1.0  0.6655500108064061  0.9489093999035205  0.010974226495797375  1.0000
  N   N15       1.0  0.8344536339298473  0.9489180657827204  0.5109795672222361  1.0000
  N   N16       1.0  0.3344640693906982  0.051086012536174494  0.9890274954428335  1.0000
  O   O1        1.0  0.4979884545565127  0.5277044365601071  0.11869183655509373  1.0000
  O   O2        1.0  0.997997263619432  0.4723244068377782  0.3813152180900872  1.0000
  O   O3        1.0  0.5019948345776015  0.47231679738344223  0.8813150261957787  1.0000
  O   O4        1.0  0.0020014211510428  0.5276662667299661  0.6186801293410581  1.0000
  O   O5        1.0  0.6147085228093374  0.36731409269253135  0.14140943496536104  1.0000
  O   O6        1.0  0.11471803947667786  0.6326979210433734  0.3585871854468436  1.0000
  O   O7        1.0  0.3852716873050924  0.6326947848128911  0.8585793535034014  1.0000
  O   O8        1.0  0.8852744870627804  0.36730122825898087  0.641417317096888  1.0000
  O   O9        1.0  0.2950093300104229  0.7530381436541164  0.15803162296423787  1.0000
  O   O10       1.0  0.7950013453683908  0.24693825484819593  0.34196687089064426  1.0000
  O   O11       1.0  0.704993460198395  0.24695553644541227  0.8419745062332851  1.0000
  O   O12       1.0  0.2050034975396926  0.7530599242092321  0.6580354018525938  1.0000
  O   O13       1.0  0.2523991204023801  0.8698930667680571  0.06093237658920716  1.0000
  O   O14       1.0  0.752381295175276  0.1300910955951622  0.4390669513212656  1.0000
  O   O15       1.0  0.7476067489082325  0.13009873693724222  0.9390720212777308  1.0000
  O   O16       1.0  0.24760815222914093  0.8699154472511947  0.5609397020874098  1.0000
