data_image0
_chemical_formula_structural       Co4H40C16N8Cl8
_chemical_formula_sum              "Co4 H40 C16 N8 Cl8"
_cell_length_a       6.243090700744362
_cell_length_b       10.323882891047194
_cell_length_c       11.88775757216721
_cell_angle_alpha    89.9984624377811
_cell_angle_beta     102.75008178961949
_cell_angle_gamma    90.00006974618843

_space_group_name_H-M_alt    "P 1"
_space_group_IT_number       1

loop_
  _space_group_symop_operation_xyz
  'x, y, z'

loop_
  _atom_site_type_symbol
  _atom_site_label
  _atom_site_symmetry_multiplicity
  _atom_site_fract_x
  _atom_site_fract_y
  _atom_site_fract_z
  _atom_site_occupancy
  Co  Co1       1.0  0.143915432505672  0.3631853012492315  0.7673546328114825  1.0000
  Co  Co2       1.0  0.6439294472747079  0.1368066190413586  0.2673410962280229  1.0000
  Co  Co3       1.0  0.856089298916011  0.6368169742771247  0.23266806321886693  1.0000
  Co  Co4       1.0  0.35606947312059833  0.8631820966818115  0.7326472416710814  1.0000
  H   H1        1.0  0.7707968427681138  0.4028579176646829  0.560532451509637  1.0000
  H   H2        1.0  0.2707945719602947  0.0971446291179063  0.060512775033764385  1.0000
  H   H3        1.0  0.229219762537717  0.5971346720126435  0.43947486577556555  1.0000
  H   H4        1.0  0.7291914764013329  0.9028547419031625  0.9394622172667368  1.0000
  H   H5        1.0  0.7770188743669876  0.5499165902333233  0.640015827159786  1.0000
  H   H6        1.0  0.277014199685425  0.9500762833385539  0.14000132332096626  1.0000
  H   H7        1.0  0.22296481197437154  0.4500575955622709  0.35999084524718233  1.0000
  H   H8        1.0  0.7229782467682996  0.04990662076595241  0.8599820196940797  1.0000
  H   H9        1.0  0.36951624172793635  0.41484176351284674  0.5731355842725989  1.0000
  H   H10       1.0  0.8695300166078042  0.08514245966272682  0.07311547351088882  1.0000
  H   H11       1.0  0.6304772407652025  0.5851421084462701  0.42687480518319626  1.0000
  H   H12       1.0  0.1304856852658816  0.9148540054665804  0.9268589246756278  1.0000
  H   H13       1.0  0.9950262997304479  0.266276316480635  0.9692189549401818  1.0000
  H   H14       1.0  0.49501685298126574  0.23372381736160722  0.46919791496597435  1.0000
  H   H15       1.0  0.004985000335516102  0.7337308021562733  0.0308045412244411  1.0000
  H   H16       1.0  0.5049707048598648  0.7662523064174991  0.5307831500521303  1.0000
  H   H17       1.0  0.2293177611920925  0.3642360717507245  0.025202394288385194  1.0000
  H   H18       1.0  0.7293141615133578  0.13577340691748674  0.5251743609868882  1.0000
  H   H19       1.0  0.7707295527495859  0.6357923563977012  0.9748305363231182  1.0000
  H   H20       1.0  0.27065038724344964  0.8642153090987111  0.4748047424721804  1.0000
  H   H21       1.0  0.24026727448439536  0.5878369676912102  0.9425777057480076  1.0000
  H   H22       1.0  0.7402455680218766  0.9121532189127634  0.44256051379411326  1.0000
  H   H23       1.0  0.7597687148113437  0.41218564895565635  0.05744627407303679  1.0000
  H   H24       1.0  0.2597206607372656  0.0878258108661782  0.5574171118125903  1.0000
  H   H25       1.0  0.011036728034007102  0.6413355960574236  0.8355417687101577  1.0000
  H   H26       1.0  0.5109952134418094  0.858664001052482  0.3355088954318148  1.0000
  H   H27       1.0  0.9889647949131942  0.3586860521349707  0.16447717142321494  1.0000
  H   H28       1.0  0.48898917374133083  0.14131406014009681  0.6644667358120698  1.0000
  H   H29       1.0  0.8328726546059999  0.4398181404222327  0.8537564383792144  1.0000
  H   H30       1.0  0.33286202561840383  0.06019855073033401  0.3537299873763615  1.0000
  H   H31       1.0  0.16716973282218822  0.5601986642139067  0.1462758921422065  1.0000
  H   H32       1.0  0.6671421242773691  0.9397824163321077  0.6462455274351555  1.0000
  H   H33       1.0  0.16000233568737338  0.5652821410335989  0.6511785898940019  1.0000
  H   H34       1.0  0.659992238478864  0.9347316046017227  0.15116525500675235  1.0000
  H   H35       1.0  0.8399879382945842  0.43471141731352964  0.3488280436776989  1.0000
  H   H36       1.0  0.33998061594652995  0.0653045742609351  0.848810653814006  1.0000
  H   H37       1.0  0.127431172727178  0.32353396073260393  0.5161351176066447  1.0000
  H   H38       1.0  0.6274423551427617  0.1764578055677575  0.016114363873356272  1.0000
  H   H39       1.0  0.8725687458286585  0.676456691425095  0.4838819446323441  1.0000
  H   H40       1.0  0.37258480399879795  0.8235531888809151  0.9838631124405097  1.0000
  C   C1        1.0  0.8482181852659779  0.4989307661967644  0.5757308277040636  1.0000
  C   C2        1.0  0.34828245810047787  0.0010649682922050001  0.07572212509708012  1.0000
  C   C3        1.0  0.1517913967573179  0.5010443876340105  0.4242958242687536  1.0000
  C   C4        1.0  0.6518164255706722  0.9989460251731404  0.924287643370647  1.0000
  C   C5        1.0  0.192741627316714  0.4219391550412654  0.5355468153493987  1.0000
  C   C6        1.0  0.6927567632182274  0.07802814377510713  0.03553699092798008  1.0000
  C   C7        1.0  0.8072464551421136  0.5780359986904671  0.46448394776781027  1.0000
  C   C8        1.0  0.3072447027473686  0.9219518533499524  0.9644844661114362  1.0000
  C   C9        1.0  0.050099611441297  0.36549396024830133  0.9929392118774132  1.0000
  C   C10       1.0  0.5501445825166087  0.13452979359986733  0.49293954946392665  1.0000
  C   C11       1.0  0.9498564615681031  0.63455093588086  0.007050636634040948  1.0000
  C   C12       1.0  0.4498428049594807  0.8654744201700595  0.5070490660687454  1.0000
  C   C13       1.0  0.060562493976377106  0.58265868245838  0.9140633657835693  1.0000
  C   C14       1.0  0.5605524165760657  0.9173382826112401  0.4140433655408983  1.0000
  C   C15       1.0  0.9394258158731362  0.4173416558835045  0.08595732989757468  1.0000
  C   C16       1.0  0.43944829755727716  0.08266399408557132  0.5859384607736331  1.0000
  N   N1        1.0  0.0857233338658716  0.4777635799103238  0.6241445508319856  1.0000
  N   N2        1.0  0.5857237031482968  0.022232744411262204  0.12411377870098757  1.0000
  N   N3        1.0  0.9142689232595204  0.5222416023942459  0.3758471816555797  1.0000
  N   N4        1.0  0.4142650101031577  0.9777414435725763  0.8758161103566166  1.0000
  N   N5        1.0  0.0005851741671705039  0.44549116907450775  0.8864959377083466  1.0000
  N   N6        1.0  0.5005887693214035  0.05453099976374182  0.38647890296775966  1.0000
  N   N7        1.0  0.9993947546046088  0.5545556632220183  0.1135313082869942  1.0000
  N   N8        1.0  0.4994099617088779  0.9454703078814649  0.6135178244167392  1.0000
  Cl  Cl1       1.0  0.5022240802498956  0.32700014111151904  0.8290848392276118  1.0000
  Cl  Cl2       1.0  0.0022319151364982026  0.17300205622882464  0.3290804233249105  1.0000
  Cl  Cl3       1.0  0.4977741772302053  0.6729963227961662  0.17093286191868629  1.0000
  Cl  Cl4       1.0  0.9977865217972592  0.8270060317256311  0.6709187044727116  1.0000
  Cl  Cl5       1.0  0.9951912493853711  0.16647746843398892  0.7372574240513714  1.0000
  Cl  Cl6       1.0  0.49520009220334055  0.33353494301390196  0.2372618095752728  1.0000
  Cl  Cl7       1.0  0.004805593281226101  0.8335315879295283  0.2627500096404276  1.0000
  Cl  Cl8       1.0  0.5048117950237413  0.6664673332261303  0.7627356791391549  1.0000
