data_image0
_chemical_formula_structural       Zn6H32C48O28
_chemical_formula_sum              "Zn6 H32 C48 O28"
_cell_length_a       9.593179555050433
_cell_length_b       11.751459127145202
_cell_length_c       18.85492011093778
_cell_angle_alpha    110.94555630781319
_cell_angle_beta     89.99963615895803
_cell_angle_gamma    90.00019981775584

_space_group_name_H-M_alt    "P 1"
_space_group_IT_number       1

loop_
  _space_group_symop_operation_xyz
  'x, y, z'

loop_
  _atom_site_type_symbol
  _atom_site_label
  _atom_site_symmetry_multiplicity
  _atom_site_fract_x
  _atom_site_fract_y
  _atom_site_fract_z
  _atom_site_occupancy
  Zn  Zn1       1.0  0.9855937092105549  0.21096622148281344  0.9344209121612863  1.0000
  Zn  Zn2       1.0  0.4856034066625056  0.7890385927696641  0.5655910239638331  1.0000
  Zn  Zn3       1.0  0.014403039192117696  0.7890385172702848  0.06558316026940497  1.0000
  Zn  Zn4       1.0  0.514399596164644  0.2109679540267067  0.434416636248116  1.0000
  Zn  Zn5       1.0  9.3242337016e-06  0.5000068019133863  1.3290232346283092e-06  1.0000
  Zn  Zn6       1.0  0.5000020226307527  0.5000005506226587  0.500000832668718  1.0000
  H   H1        1.0  0.14437463703286108  0.5236933203705761  0.7942465999245271  1.0000
  H   H2        1.0  0.6443730404943366  0.4763119810724135  0.7057532771828717  1.0000
  H   H3        1.0  0.8556231538068887  0.47631690442394603  0.20575446021520347  1.0000
  H   H4        1.0  0.35559660530118004  0.5236836364895509  0.2942508706604626  1.0000
  H   H5        1.0  0.2543629139299597  0.5159929449771354  0.6714314056506224  1.0000
  H   H6        1.0  0.754360840125841  0.4840097740623009  0.8285686012708736  1.0000
  H   H7        1.0  0.7456390465440066  0.48401455109019054  0.3285679816293126  1.0000
  H   H8        1.0  0.2456161025079098  0.5159812805371686  0.17143611408184967  1.0000
  H   H9        1.0  0.27475313576269395  0.12531726547170052  0.5980503312189782  1.0000
  H   H10       1.0  0.7747704383944694  0.8746809314152911  0.9019475353239983  1.0000
  H   H11       1.0  0.7252248493719334  0.8746856961913492  0.4019432656183354  1.0000
  H   H12       1.0  0.2252992785942567  0.12530746835241047  0.09803908221571328  1.0000
  H   H13       1.0  0.160814146249848  0.13302994155390022  0.7191430061298192  1.0000
  H   H14       1.0  0.6608350315694694  0.8669799318773314  0.7808594350931555  1.0000
  H   H15       1.0  0.8391534148108661  0.8669766623781283  0.28085193813907944  1.0000
  H   H16       1.0  0.3392253037469217  0.1330139277257132  0.21912999833455155  1.0000
  H   H17       1.0  0.475267181380609  0.33415537363145387  0.8739805293877152  1.0000
  H   H18       1.0  0.9752725499169587  0.6658476512901857  0.6260204310210753  1.0000
  H   H19       1.0  0.5247149733101608  0.6658247660511237  0.12601749454236  1.0000
  H   H20       1.0  0.024731495288826  0.33416160756518554  0.3739926108747581  1.0000
  H   H21       1.0  0.7098756740984271  0.5063071341008794  0.07871083851902942  1.0000
  H   H22       1.0  0.20990160918152162  0.4936694790857174  0.4212964854373168  1.0000
  H   H23       1.0  0.2901054382406656  0.4936766883461914  0.9212795256666482  1.0000
  H   H24       1.0  0.7901013935771458  0.5063342865831403  0.57872115824874  1.0000
  H   H25       1.0  0.8949128692530337  0.0153680395608404  0.8333817996797562  1.0000
  H   H26       1.0  0.39490329895409804  0.9846394677993543  0.6666114069139936  1.0000
  H   H27       1.0  0.10510264255060521  0.984636749221231  0.1666111462291084  1.0000
  H   H28       1.0  0.6050944918797755  0.015366198790893303  0.3333891610794595  1.0000
  H   H29       1.0  0.7787594007609259  0.1151076281516765  0.8823453844068252  1.0000
  H   H30       1.0  0.278766733924833  0.8848878456749959  0.6176507977623514  1.0000
  H   H31       1.0  0.221241517317786  0.8848853035728651  0.11764755354214164  1.0000
  H   H32       1.0  0.7212320992967206  0.11511871779030976  0.3823531536239955  1.0000
  C   C1        1.0  0.08964030377534021  0.3317521737167226  0.8381784556445381  1.0000
  C   C2        1.0  0.5896577388297999  0.6682603347337518  0.6618242738531775  1.0000
  C   C3        1.0  0.9103418509732817  0.668259885304238  0.16182036414401318  1.0000
  C   C4        1.0  0.41036402737285727  0.33174260076163625  0.3381751510850606  1.0000
  C   C5        1.0  0.1482334351347276  0.32877174119740005  0.7640714031385585  1.0000
  C   C6        1.0  0.6482530738667761  0.6712408431361825  0.7359327471608808  1.0000
  C   C7        1.0  0.8517393379495742  0.6712421401459424  0.23592782545523505  1.0000
  C   C8        1.0  0.35176869232027735  0.32875206240444754  0.2640660189220299  1.0000
  C   C9        1.0  0.17260313028378252  0.4370883056192484  0.7506199187316156  1.0000
  C   C10       1.0  0.6726169604676073  0.5629152111238085  0.7493799981227979  1.0000
  C   C11       1.0  0.8273800668791081  0.5629182935604577  0.24937608518094123  1.0000
  C   C12       1.0  0.32739333923909436  0.43707678324418714  0.250618563580744  1.0000
  C   C13       1.0  0.2332664414844032  0.432877375303697  0.6826219256161963  1.0000
  C   C14       1.0  0.7332773452554379  0.5671280401996198  0.8173803447119424  1.0000
  C   C15       1.0  0.7667157132560121  0.567131945460325  0.31737734065091416  1.0000
  C   C16       1.0  0.266727742431712  0.43286396607317806  0.18261556783367178  1.0000
  C   C17       1.0  0.27140720347928476  0.3204165707485487  0.6280516573320226  1.0000
  C   C18       1.0  0.7714178616296579  0.6795843501226954  0.8719478917075135  1.0000
  C   C19       1.0  0.7285780785014708  0.6795900308143387  0.37194381674445504  1.0000
  C   C20       1.0  0.22860807421504598  0.3204058433626358  0.1280454926839951  1.0000
  C   C21       1.0  0.24442107044738035  0.21199470306588353  0.640783151554416  1.0000
  C   C22       1.0  0.7444448253102962  0.7880070740678279  0.859220388389005  1.0000
  C   C23       1.0  0.7555485754260188  0.7880146319794649  0.35921293573218094  1.0000
  C   C24       1.0  0.2556134251957474  0.2119822344745685  0.1407669633961675  1.0000
  C   C25       1.0  0.18252667983344387  0.21628649344089715  0.7082423997464176  1.0000
  C   C26       1.0  0.6825554388097926  0.7837206725057017  0.79176042543164  1.0000
  C   C27       1.0  0.8174377539974671  0.7837237480018758  0.2917549516097253  1.0000
  C   C28       1.0  0.3175028117078114  0.216271376675337  0.20822595004189276  1.0000
  C   C29       1.0  0.34759301201464143  0.31508579184264823  0.5579848617953757  1.0000
  C   C30       1.0  0.8475934252013744  0.6849179585619041  0.9420177302668549  1.0000
  C   C31       1.0  0.6524047788261241  0.6849262552808995  0.4420166071360966  1.0000
  C   C32       1.0  0.1524220865519794  0.3150685783494893  0.057977485721608  1.0000
  C   C33       1.0  0.7119390116101556  0.31548902741736384  0.9447523161834681  1.0000
  C   C34       1.0  0.211953639681596  0.6844990100163032  0.5552540795174322  1.0000
  C   C35       1.0  0.288045227876367  0.6844874557001362  0.055247539325549225  1.0000
  C   C36       1.0  0.7880441511071082  0.3155157324936085  0.4447564799310299  1.0000
  C   C37       1.0  0.6037496558161807  0.411816466202623  0.9734371859921822  1.0000
  C   C38       1.0  0.1037673936191013  0.5881705139091763  0.5265677272950171  1.0000
  C   C39       1.0  0.3962418805574757  0.588159131954214  0.026556636946509123  1.0000
  C   C40       1.0  0.8962387363893213  0.4118414689144175  0.47344804711777755  1.0000
  C   C41       1.0  0.48517401682148886  0.4072915253740845  0.929004330296209  1.0000
  C   C42       1.0  0.9851808340411097  0.5927087729479511  0.5709975778995612  1.0000
  C   C43       1.0  0.5148081378595535  0.592683142558002  0.07099352692480213  1.0000
  C   C44       1.0  0.014822168766457398  0.4072986707227458  0.42901346570677384  1.0000
  C   C45       1.0  0.6178021368052526  0.5044770992484758  0.04469691992432699  1.0000
  C   C46       1.0  0.11781618336028998  0.49550668468582165  0.4553096551378387  1.0000
  C   C47       1.0  0.38218001788532524  0.495496664664195  0.9552991434015536  1.0000
  C   C48       1.0  0.8821878618344455  0.5045007446954273  0.5447045674655157  1.0000
  O   O1        1.0  0.06559706267580619  0.4347488187795676  0.8889809961466424  1.0000
  O   O2        1.0  0.5656011818183871  0.5652709544350359  0.6110213184273121  1.0000
  O   O3        1.0  0.934398643386949  0.565268719146573  0.11101640083219878  1.0000
  O   O4        1.0  0.4343966089948949  0.4347337867005053  0.38898222416879236  1.0000
  O   O5        1.0  0.06965085651454218  0.2277702001466082  0.8446494263405879  1.0000
  O   O6        1.0  0.5696760797667367  0.77224137120146  0.6553526264681935  1.0000
  O   O7        1.0  0.930326086187236  0.7722409405610479  0.1553507785588479  1.0000
  O   O8        1.0  0.4303383895907871  0.22775974672312316  0.3446453300226294  1.0000
  O   O9        1.0  0.3552487441325241  0.40984050715430687  0.5410997476832335  1.0000
  O   O10       1.0  0.855235019570834  0.590167786094014  0.958909142668098  1.0000
  O   O11       1.0  0.6447521738975367  0.5901733384834956  0.458907428366345  1.0000
  O   O12       1.0  0.1447544319639178  0.4098241892056223  0.04109365773015132  1.0000
  O   O13       1.0  0.4031450195410642  0.21143817644302487  0.519304170153454  1.0000
  O   O14       1.0  0.9031599466357818  0.788566578143886  0.9806952873465136  1.0000
  O   O15       1.0  0.5968569409001105  0.7885765827417331  0.48070268045741216  1.0000
  O   O16       1.0  0.09685764993442798  0.21141813882165647  0.019298990014121394  1.0000
  O   O17       1.0  0.8372852247313177  0.3393754580456728  0.9732047265602616  1.0000
  O   O18       1.0  0.3373001178033732  0.6606191470642458  0.5268000898640466  1.0000
  O   O19       1.0  0.16269484517878396  0.6606174569922131  0.026791920250325132  1.0000
  O   O20       1.0  0.6626955881788419  0.3393919579312339  0.4732080625046819  1.0000
  O   O21       1.0  0.6771321039189502  0.21455021657890685  0.8953221316655939  1.0000
  O   O22       1.0  0.1771402514184004  0.7854414328586189  0.6046814730084265  1.0000
  O   O23       1.0  0.32286255971115446  0.7854336034960668  0.10466876233366666  1.0000
  O   O24       1.0  0.8228533696952239  0.21456872286368173  0.3953349522968068  1.0000
  O   O25       1.0  0.8655157080534012  0.06198135283494819  0.885031954181393  1.0000
  O   O26       1.0  0.3655159876002116  0.9380160757765029  0.614962267678905  1.0000
  O   O27       1.0  0.1344925068848397  0.9380152283162249  0.11496074167438762  1.0000
  O   O28       1.0  0.6344849304477335  0.06198776372352912  0.3850389511844767  1.0000
