data_image0
_chemical_formula_structural       Lu2H14C16S2O18
_chemical_formula_sum              "Lu2 H14 C16 S2 O18"
_cell_length_a       6.334118918726144
_cell_length_b       8.481871005952168
_cell_length_c       10.538968697278456
_cell_angle_alpha    89.79217896273278
_cell_angle_beta     79.8082463966631
_cell_angle_gamma    72.22174407571904

_space_group_name_H-M_alt    "P 1"
_space_group_IT_number       1

loop_
  _space_group_symop_operation_xyz
  'x, y, z'

loop_
  _atom_site_type_symbol
  _atom_site_label
  _atom_site_symmetry_multiplicity
  _atom_site_fract_x
  _atom_site_fract_y
  _atom_site_fract_z
  _atom_site_occupancy
  Lu  Lu1       1.0  0.1556187647077819  0.7467129104612769  0.3802272219224108  1.0000
  Lu  Lu2       1.0  0.8443814179298528  0.25328644952340085  0.6197705791171656  1.0000
  H   H1        1.0  0.6166520165888015  0.5886908085856534  0.8553418805941602  1.0000
  H   H2        1.0  0.38333972339281547  0.4113172380246937  0.1446539427037976  1.0000
  H   H3        1.0  0.6559802877333212  0.6330955658003605  0.0815464391654643  1.0000
  H   H4        1.0  0.344002954200512  0.36691744860221587  0.9184502668837169  1.0000
  H   H5        1.0  0.18529098570638058  0.8455250070524796  0.9429063297796034  1.0000
  H   H6        1.0  0.8147107987635067  0.15447435049743774  0.057092251697675074  1.0000
  H   H7        1.0  0.5186688218719765  0.9147926981899559  0.3221784109470746  1.0000
  H   H8        1.0  0.4813297035416396  0.0852029453960412  0.6778214701476202  1.0000
  H   H9        1.0  0.2874632937463133  0.0417733065367472  0.3927291550300396  1.0000
  H   H10       1.0  0.712536931941024  0.9582297707223262  0.6072695822635906  1.0000
  H   H11       1.0  0.6516833666531812  0.6408110472635189  0.29238201410426967  1.0000
  H   H12       1.0  0.3483157121477731  0.35918707252452714  0.7076215988658702  1.0000
  H   H13       1.0  0.5788324125694473  0.4890084403926735  0.3551650757523177  1.0000
  H   H14       1.0  0.42116452937750626  0.5109909197843764  0.6448425546525128  1.0000
  C   C1        1.0  0.02452466033396646  0.7765632315605516  0.7977829574405246  1.0000
  C   C2        1.0  0.9754824492268526  0.22343487878201532  0.20221791341107573  1.0000
  C   C3        1.0  0.8695857243360195  0.6975979265683492  0.7712070355375006  1.0000
  C   C4        1.0  0.13041922383417406  0.30239770922739956  0.22879122137439367  1.0000
  C   C5        1.0  0.7370836157255666  0.6489973227046805  0.8756904548250831  1.0000
  C   C6        1.0  0.26291660996177774  0.3510057545544001  0.12430828246855438  1.0000
  C   C7        1.0  0.760318556230324  0.6732674144396141  0.0024586093389799947  1.0000
  C   C8        1.0  0.23967209534219341  0.3267393939229208  0.9975382799559397  1.0000
  C   C9        1.0  0.9255635330377529  0.7415906669959681  0.026591865006139387  1.0000
  C   C10       1.0  0.07443561041151986  0.25841117279482256  0.9734060399110047  1.0000
  C   C11       1.0  0.05516289071230323  0.7946130150028595  0.9238624311983515  1.0000
  C   C12       1.0  0.9448340790042807  0.20538634868206174  0.07613665652598199  1.0000
  C   C13       1.0  0.8486623997115003  0.6549673440770009  0.6363266452706497  1.0000
  C   C14       1.0  0.15134254228766508  0.34502829093922566  0.36367351001469217  1.0000
  C   C15       1.0  0.9852425325309399  0.7471597830059197  0.1566901950315014  1.0000
  C   C16       1.0  0.014757650106695077  0.252839576978758  0.8433076060080751  1.0000
  S   S1        1.0  0.21107958435651833  0.8416906032306105  0.6762905270030046  1.0000
  S   S2        1.0  0.7889200694303966  0.15830999548783353  0.32371017353552384  1.0000
  O   O1        1.0  0.080407535207712  0.9889762818663357  0.6175379207530297  1.0000
  O   O2        1.0  0.919599614317306  0.011025545360858802  0.382464835539352  1.0000
  O   O3        1.0  0.3038957307353556  0.702383877880848  0.5757603329477874  1.0000
  O   O4        1.0  0.6961140905179235  0.2976191828208172  0.42424783290567797  1.0000
  O   O5        1.0  0.3798873499630701  0.8728948317361117  0.7400569952735337  1.0000
  O   O6        1.0  0.6201166696547984  0.12711443335035005  0.2599498693984472  1.0000
  O   O7        1.0  0.8630521353124079  0.7578751264440984  0.5486515103698649  1.0000
  O   O8        1.0  0.13694416097674628  0.24211432220258902  0.4513524140248534  1.0000
  O   O9        1.0  0.8197618631740157  0.5174172396070347  0.6162522774353361  1.0000
  O   O10       1.0  0.18023439623646445  0.48256849254478607  0.38374881233187347  1.0000
  O   O11       1.0  0.17446171585145004  0.767856115308419  0.1637819510750305  1.0000
  O   O12       1.0  0.8255410740136354  0.23213704633028695  0.8362127427104439  1.0000
  O   O13       1.0  0.856653164565536  0.7281114860329794  0.2603222070667712  1.0000
  O   O14       1.0  0.1433486353319252  0.2718878734657509  0.7396716284768913  1.0000
  O   O15       1.0  0.36351024565016826  0.9240520008440714  0.36172090929471773  1.0000
  O   O16       1.0  0.6364841291810279  0.0759535627458803  0.638277488936815  1.0000
  O   O17       1.0  0.5258339065165744  0.5910881401470931  0.30894712090619686  1.0000
  O   O18       1.0  0.47416459729844  0.408907500710562  0.6910594044955615  1.0000
