data_image0
_chemical_formula_structural       Zn2H30C52N10O8
_chemical_formula_sum              "Zn2 H30 C52 N10 O8"
_cell_length_a       8.281407766676324
_cell_length_b       10.05538869067375
_cell_length_c       13.343534868980358
_cell_angle_alpha    92.12077350574201
_cell_angle_beta     104.20611673037295
_cell_angle_gamma    102.90110195679246

_space_group_name_H-M_alt    "P 1"
_space_group_IT_number       1

loop_
  _space_group_symop_operation_xyz
  'x, y, z'

loop_
  _atom_site_type_symbol
  _atom_site_label
  _atom_site_symmetry_multiplicity
  _atom_site_fract_x
  _atom_site_fract_y
  _atom_site_fract_z
  _atom_site_occupancy
  Zn  Zn1       1.0  0.9495926489992355  0.41253439230935374  0.7233140555420547  1.0000
  Zn  Zn2       1.0  0.050404104668146474  0.5874664428360674  0.2766827669493282  1.0000
  H   H1        1.0  0.8586708972239876  0.19572469002545032  0.8688524582398646  1.0000
  H   H2        1.0  0.1413302128539726  0.8042740998314885  0.13114872508887743  1.0000
  H   H3        1.0  0.7391099245478046  0.1813630632429195  0.02738501261434581  1.0000
  H   H4        1.0  0.2608933693058688  0.8186347051488313  0.972617227879198  1.0000
  H   H5        1.0  0.6699773727286881  0.3906041678011505  0.09899357198929688  1.0000
  H   H6        1.0  0.33002343229711767  0.6093935969640255  0.9010075357202967  1.0000
  H   H7        1.0  0.8403986011417074  0.973274076622232  0.843190630775837  1.0000
  H   H8        1.0  0.15960375149337125  0.026724714654974904  0.15681149336283806  1.0000
  H   H9        1.0  0.9448043734301949  0.9455801238411042  0.6868095324028121  1.0000
  H   H10       1.0  0.05519673293413521  0.05441866522979672  0.3131923997618529  1.0000
  H   H11       1.0  0.9967407475528135  0.7181743134697101  0.636381597144819  1.0000
  H   H12       1.0  0.003255079817229503  0.2818234440423311  0.3636172449968883  1.0000
  H   H13       1.0  0.5189890309324526  0.9929326266854943  0.10091963596394044  1.0000
  H   H14       1.0  0.4810167963793646  0.0070610511022622  0.8990798826313835  1.0000
  H   H15       1.0  0.48884561369187207  0.14637104845167673  0.24207501614575486  1.0000
  H   H16       1.0  0.511158628740901  0.8536298022896601  0.7579207116819333  1.0000
  H   H17       1.0  0.6279908212356702  0.12142114446132982  0.42677019361872237  1.0000
  H   H18       1.0  0.3720118103226752  0.8785868737313434  0.5732269852927773  1.0000
  H   H19       1.0  0.8174011181975372  0.96003494024324  0.46607679770161087  1.0000
  H   H20       1.0  0.18260179613120897  0.03997409832498991  0.5339249498445612  1.0000
  H   H21       1.0  0.9108705609497464  0.42759468624128516  0.5076484889614507  1.0000
  H   H22       1.0  0.08912556397844901  0.5724081984534238  0.4923467951223658  1.0000
  H   H23       1.0  0.37954813517593083  0.3385914609379769  0.34289744582628157  1.0000
  H   H24       1.0  0.6204482762362886  0.6614124449183196  0.657101658056277  1.0000
  H   H25       1.0  0.3062690595651176  0.2821733201656329  0.5138059133660207  1.0000
  H   H26       1.0  0.6937286241799896  0.7178264897362325  0.48619327198798606  1.0000
  H   H27       1.0  0.5485151643398538  0.30930409148707133  0.672983433184328  1.0000
  H   H28       1.0  0.45148815179558005  0.6906936816208857  0.3270143142936918  1.0000
  H   H29       1.0  0.7830042164097505  0.9653621292671349  0.025557434851606303  1.0000
  H   H30       1.0  0.2169950335795221  0.03463460741394899  0.9744441541007589  1.0000
  C   C1        1.0  0.8242348853569014  0.28264104627113085  0.9023782073592772  1.0000
  C   C2        1.0  0.17576343084102317  0.7173567148674777  0.09762176756638041  1.0000
  C   C3        1.0  0.7580623188009668  0.276094578162521  0.9897775138722836  1.0000
  C   C4        1.0  0.2419384899384553  0.7239031873886859  0.010222845001393912  1.0000
  C   C5        1.0  0.719321737554033  0.39083712560466927  0.029650886873625385  1.0000
  C   C6        1.0  0.2806793762375506  0.6091616650383003  0.9703495476191933  1.0000
  C   C7        1.0  0.7489713430270939  0.512350927286782  0.9806390285366717  1.0000
  C   C8        1.0  0.251028212014333  0.48764683448606405  0.019362636034834697  1.0000
  C   C9        1.0  0.7278289496187895  0.6407643995668125  0.018762278408033187  1.0000
  C   C10       1.0  0.2721724617976946  0.359235414595851  0.9812397293757728  1.0000
  C   C11       1.0  0.7688706049628917  0.7594178174614471  0.9689853516766577  1.0000
  C   C12       1.0  0.2311283399742265  0.24057789412787406  0.031016161656566506  1.0000
  C   C13       1.0  0.8264694582785381  0.7612198698850747  0.8770882777100157  1.0000
  C   C14       1.0  0.17353010790376536  0.23877789424587098  0.12291114035372891  1.0000
  C   C15       1.0  0.8620975479781804  0.8748333979357096  0.8203376245252871  1.0000
  C   C16       1.0  0.13790324962036493  0.12516436525739752  0.17966498085615265  1.0000
  C   C17       1.0  0.9207264373534161  0.8600796542476632  0.732907412397971  1.0000
  C   C18       1.0  0.07927372779231938  0.1399201577087013  0.267094403411825  1.0000
  C   C19       1.0  0.9482285534946087  0.7329232112073285  0.7039051194085391  1.0000
  C   C20       1.0  0.051768211380405695  0.2670735226332184  0.2960945879239603  1.0000
  C   C21       1.0  0.8517079649122151  0.6345902748852553  0.839739232096079  1.0000
  C   C22       1.0  0.1482891050149604  0.36540748404705437  0.16026055085556123  1.0000
  C   C23       1.0  0.8153638485452674  0.5113846733943747  0.8921493562551321  1.0000
  C   C24       1.0  0.18463322138190116  0.48861308553793514  0.10785042669650842  1.0000
  C   C25       1.0  0.7040588165012595  0.8058065230020119  0.1170107072081734  1.0000
  C   C26       1.0  0.2959479073988973  0.1941902261308499  0.8829927824241822  1.0000
  C   C27       1.0  0.687306715139897  0.8914396266589578  0.20351946005050792  1.0000
  C   C28       1.0  0.3126971851044615  0.10856019113028029  0.7964836805172412  1.0000
  C   C29       1.0  0.5848635100786339  0.9863304644292583  0.18158481373436788  1.0000
  C   C30       1.0  0.41514322496239237  0.013666287061710101  0.8184164293902259  1.0000
  C   C31       1.0  0.5638185215480791  0.0700687694366735  0.26071264023649127  1.0000
  C   C32       1.0  0.4361857097438175  0.9299320789465568  0.739285334098966  1.0000
  C   C33       1.0  0.6439329495981951  0.05778738704708528  0.36383463195025467  1.0000
  C   C34       1.0  0.35607218942291036  0.942216535039357  0.6361650669144725  1.0000
  C   C35       1.0  0.7485729797237328  0.9662422005152893  0.38626100236094646  1.0000
  C   C36       1.0  0.2514327582608118  0.03376376939657181  0.613741094249832  1.0000
  C   C37       1.0  0.7744088011143974  0.8833959743134089  0.3077317214537132  1.0000
  C   C38       1.0  0.22559476801567513  0.11660691654480361  0.6922714539974566  1.0000
  C   C39       1.0  0.9049867226757939  0.7978553316724373  0.34064447972187395  1.0000
  C   C40       1.0  0.0950155890426458  0.2021475546213694  0.6593607502630476  1.0000
  C   C41       1.0  0.7754819672395216  0.3995932628692813  0.5052037947885922  1.0000
  C   C42       1.0  0.2245154039594226  0.6004096240317267  0.4947916812692271  1.0000
  C   C43       1.0  0.6494253681123683  0.3904482288903496  0.4127147973419981  1.0000
  C   C44       1.0  0.35056981188360237  0.609555677903778  0.5872811192228653  1.0000
  C   C45       1.0  0.47831942745660433  0.3464878241459104  0.41499669738133355  1.0000
  C   C46       1.0  0.5216766863307143  0.653515058190699  0.5850008332102449  1.0000
  C   C47       1.0  0.43847866359149634  0.3150149970661716  0.5082543943718393  1.0000
  C   C48       1.0  0.5615208876695449  0.6849868675836105  0.491742887686705  1.0000
  C   C49       1.0  0.5727890103613121  0.32997526167856966  0.597629337292105  1.0000
  C   C50       1.0  0.42721118077980685  0.6700245557800313  0.4023672366662439  1.0000
  C   C51       1.0  0.6986500757786089  0.4250327835874614  0.31316203477305754  1.0000
  C   C52       1.0  0.3013404539622684  0.5749680420985185  0.6868323301764224  1.0000
  N   N1        1.0  0.85212717548567  0.39710166644857753  0.8551386187191101  1.0000
  N   N2        1.0  0.14786958567572137  0.602895066605939  0.14486183744931222  1.0000
  N   N3        1.0  0.9134955878438618  0.6241808263593213  0.7561348761012783  1.0000
  N   N4        1.0  0.08649959964611752  0.37581897834390093  0.24386467414063165  1.0000
  N   N5        1.0  0.6854209506073801  0.671222901407809  0.10874396889040129  1.0000
  N   N6        1.0  0.3145845307356439  0.3287738463047845  0.8912585799320214  1.0000
  N   N7        1.0  0.7492246874171471  0.8633711505069782  0.03185137546725511  1.0000
  N   N8        1.0  0.2507764078063062  0.136627636205823  0.9681528032051646  1.0000
  N   N9        1.0  0.7383170854686084  0.37128713029130017  0.5958234249010276  1.0000
  N   N10       1.0  0.26168341815191093  0.6287137138311253  0.4041717270046234  1.0000
  O   O1        1.0  0.9837550788899277  0.7715215103481015  0.2721264181574838  1.0000
  O   O2        1.0  0.0162512729792965  0.22848240687033441  0.7278802122045395  1.0000
  O   O3        1.0  0.9311629277150715  0.7638969088123488  0.4312942949592228  1.0000
  O   O4        1.0  0.06883782896684207  0.2361049493973653  0.5687114162684639  1.0000
  O   O5        1.0  0.8588215235435399  0.48217162809236674  0.3277554961802452  1.0000
  O   O6        1.0  0.14116805377111058  0.5178343217839441  0.6722358675732423  1.0000
  O   O7        1.0  0.5852835215232446  0.3939527401484213  0.22920501180099961  1.0000
  O   O8        1.0  0.4147051704774539  0.6060419334149357  0.7707903971054579  1.0000
