data_image0
_chemical_formula_structural       Ag2H20C22N6O4
_chemical_formula_sum              "Ag2 H20 C22 N6 O4"
_cell_length_a       6.957632505430193
_cell_length_b       8.614834719038674
_cell_length_c       10.899701545405696
_cell_angle_alpha    67.3526948326346
_cell_angle_beta     76.16764920273945
_cell_angle_gamma    70.08460425940143

_space_group_name_H-M_alt    "P 1"
_space_group_IT_number       1

loop_
  _space_group_symop_operation_xyz
  'x, y, z'

loop_
  _atom_site_type_symbol
  _atom_site_label
  _atom_site_symmetry_multiplicity
  _atom_site_fract_x
  _atom_site_fract_y
  _atom_site_fract_z
  _atom_site_occupancy
  Ag  Ag1       1.0  0.4967282461619221  0.9489518946251604  0.39599445731298727  1.0000
  Ag  Ag2       1.0  0.5032727643077521  0.05105104994478178  0.6040075874437677  1.0000
  H   H1        1.0  0.15339441599385137  0.006395894793605798  0.246463490102407  1.0000
  H   H2        1.0  0.8466045242246167  0.993604378227303  0.7535414918257501  1.0000
  H   H3        1.0  0.059038098997497485  0.9102914870039881  0.08298240054337212  1.0000
  H   H4        1.0  0.9409649799377604  0.08971414498800097  0.9170157850972556  1.0000
  H   H5        1.0  0.4449406223479144  0.6117977557972553  0.9124093348001593  1.0000
  H   H6        1.0  0.5550597908829289  0.38820255986881586  0.08759357677228512  1.0000
  H   H7        1.0  0.36704795095003123  0.8401986954157509  0.8244834158469913  1.0000
  H   H8        1.0  0.632949505542328  0.15980163019808905  0.17551810476849286  1.0000
  H   H9        1.0  0.18044991370481978  0.7334021523194351  0.9318245415766526  1.0000
  H   H10       1.0  0.8195475481444134  0.2665981256753582  0.06817974487302077  1.0000
  H   H11       1.0  0.8345855891838241  0.19338988909058938  0.33748814986955017  1.0000
  H   H12       1.0  0.16541229448157682  0.8066092386319923  0.6625072373075511  1.0000
  H   H13       1.0  0.46354600707001475  0.35313557701541504  0.3222635867441425  1.0000
  H   H14       1.0  0.5364539522034518  0.6468661746371538  0.6777316290957529  1.0000
  H   H15       1.0  0.8500199156380576  0.4332963884039314  0.614274720302589  1.0000
  H   H16       1.0  0.14998136443821142  0.5667014203685241  0.38572237800619297  1.0000
  H   H17       1.0  0.8325826701900141  0.7388327569918258  0.2652272874049117  1.0000
  H   H18       1.0  0.16741922141006435  0.2611675537003676  0.7347763196460093  1.0000
  H   H19       1.0  0.9059409085261406  0.6279851261689303  0.14797005018136375  1.0000
  H   H20       1.0  0.09406054161593148  0.37201650939864095  0.8520323147501117  1.0000
  C   C1        1.0  0.6074814284448634  0.773538511109834  0.15541024263125536  1.0000
  C   C2        1.0  0.39251914413804195  0.22646572658945266  0.8445924038955113  1.0000
  C   C3        1.0  0.2687045952389583  0.9251914577362824  0.1923855498181268  1.0000
  C   C4        1.0  0.7312987711591175  0.0748088797280602  0.8076169088218137  1.0000
  C   C5        1.0  0.21781452553437217  0.8754703642996943  0.10053232939934284  1.0000
  C   C6        1.0  0.7821850029948152  0.12453261699015881  0.8994671759894716  1.0000
  C   C7        1.0  0.3793556499700801  0.7782635449615823  0.031625711612150595  1.0000
  C   C8        1.0  0.6206449208271962  0.22174070861071726  0.968376012969884  1.0000
  C   C9        1.0  0.34043040848350614  0.7364292840496702  0.9201615250288738  1.0000
  C   C10       1.0  0.6595719210033477  0.26356973351317947  0.0798414802520426  1.0000
  C   C11       1.0  0.08630291256601198  0.20044803896340815  0.48850016693882736  1.0000
  C   C12       1.0  0.9136933423061889  0.7995470923347697  0.5114993995291215  1.0000
  C   C13       1.0  0.8647871529100328  0.3032052944373902  0.4780556389285239  1.0000
  C   C14       1.0  0.13520866228978423  0.6967911458631522  0.5219436073646975  1.0000
  C   C15       1.0  0.7542125415902561  0.2820166582787209  0.3942321737626244  1.0000
  C   C16       1.0  0.2457866664491846  0.7179784948177288  0.6057669397728275  1.0000
  C   C17       1.0  0.5482374291744065  0.3702782158765387  0.38623508345896335  1.0000
  C   C18       1.0  0.4517642923598829  0.6297182680205393  0.6137632569692713  1.0000
  C   C19       1.0  0.4437785705634525  0.48807768924071127  0.45865081717810346  1.0000
  C   C20       1.0  0.5562201978035972  0.5119187728581025  0.5413479761826281  1.0000
  C   C21       1.0  0.7658909082926258  0.4167472143713977  0.5498089261045962  1.0000
  C   C22       1.0  0.2341074168307813  0.5832505884758065  0.45018770319195056  1.0000
  N   N1        1.0  0.4622839300122194  0.8767192476619529  0.22057399570585548  1.0000
  N   N2        1.0  0.5377141255045927  0.12328369098273839  0.7794275800386714  1.0000
  N   N3        1.0  0.8015423403753984  0.7168349491985565  0.18727755193870618  1.0000
  N   N4        1.0  0.19845822863625537  0.28316932024676333  0.8127232506986033  1.0000
  N   N5        1.0  0.5735380233406316  0.7259483353249223  0.05956624077415998  1.0000
  N   N6        1.0  0.42646505916587063  0.2740572649210335  0.940433788755925  1.0000
  O   O1        1.0  0.18413985197175722  0.14801692222157206  0.39078298718155224  1.0000
  O   O2        1.0  0.8158528471375063  0.8519756059935233  0.6092151332003936  1.0000
  O   O3        1.0  0.15976366839893794  0.1725846998779659  0.5944212210397166  1.0000
  O   O4        1.0  0.8402371684336956  0.8274144496428871  0.4055737132048876  1.0000
