data_image0
_chemical_formula_structural       Zr6H26C50NO32F5
_chemical_formula_sum              "Zr6 H26 C50 N1 O32 F5"
_cell_length_a       14.775319194093582
_cell_length_b       14.793562131537554
_cell_length_c       14.807420937951006
_cell_angle_alpha    60.11482056185566
_cell_angle_beta     59.97726179630389
_cell_angle_gamma    60.07631975116002

_space_group_name_H-M_alt    "P 1"
_space_group_IT_number       1

loop_
  _space_group_symop_operation_xyz
  'x, y, z'

loop_
  _atom_site_type_symbol
  _atom_site_label
  _atom_site_symmetry_multiplicity
  _atom_site_fract_x
  _atom_site_fract_y
  _atom_site_fract_z
  _atom_site_occupancy
  Zr  Zr1       1.0  0.8784787408852283  0.8828452479001214  0.6176112831819226  1.0000
  Zr  Zr2       1.0  0.12129961081772926  0.11675084420114254  0.3825662706835047  1.0000
  Zr  Zr3       1.0  0.11680026259255528  0.8792513497310281  0.6211911673140517  1.0000
  Zr  Zr4       1.0  0.8818286769912047  0.12174235241830215  0.3782572293710799  1.0000
  Zr  Zr5       1.0  0.11898010424872038  0.8813106103596339  0.3794722367647266  1.0000
  Zr  Zr6       1.0  0.8799311020953127  0.1212386833132939  0.6181550333915523  1.0000
  H   H1        1.0  0.09038350791392695  0.718612008593624  0.5941364309625712  1.0000
  H   H2        1.0  0.09631134808119408  0.0943973224923411  0.21770036626502076  1.0000
  H   H3        1.0  0.09405229781700795  0.09205852796131345  0.5957514890073412  1.0000
  H   H4        1.0  0.7167488983344368  0.09754414433160737  0.5911359282478371  1.0000
  H   H5        1.0  0.8474138399956884  0.5901546303443367  0.6364017090825199  1.0000
  H   H6        1.0  0.14045897125768658  0.5945610982471408  0.34731726983336125  1.0000
  H   H7        1.0  0.8541556389709226  0.4185970170146975  0.632619035655189  1.0000
  H   H8        1.0  0.5909668288528918  0.8478945751344966  0.9246089229004111  1.0000
  H   H9        1.0  0.5931639747335353  0.1410406259385155  0.9181339267016213  1.0000
  H   H10       1.0  0.4229119149360798  0.8498408557535341  0.09690673780461631  1.0000
  H   H11       1.0  0.13715561199095544  0.8501201900502693  0.08786706883231687  1.0000
  H   H12       1.0  0.8468707650674144  0.14135051288288752  0.09336158083032589  1.0000
  H   H13       1.0  0.13105029089325634  0.8538746171932414  0.9190821490906202  1.0000
  H   H14       1.0  0.5919936388397813  0.4290594391109507  0.633300017705409  1.0000
  H   H15       1.0  0.5936841098530081  0.4196792803138152  0.34651850880589313  1.0000
  H   H16       1.0  0.42053140122747806  0.597550068801894  0.6301659537669623  1.0000
  H   H17       1.0  0.13599937508506343  0.5963237711172058  0.9128176191793499  1.0000
  H   H18       1.0  0.7350937527664029  0.6221166856380265  0.9722868361240913  1.0000
  H   H19       1.0  0.8213147569597012  0.5374043595201387  0.8863177687624528  1.0000
  H   H20       1.0  0.8314810617001741  0.3674712638548242  0.05527871385547912  1.0000
  H   H21       1.0  0.7460075745208596  0.45211261426727833  0.1411291355213963  1.0000
  H   H22       1.0  0.5871384307860482  0.13775926841649522  0.34606234135899416  1.0000
  H   H23       1.0  0.5965614251595  0.8493796950481707  0.6380483620888385  1.0000
  H   H24       1.0  0.4173003320448529  0.12891322807216452  0.3544787880955127  1.0000
  H   H25       1.0  0.16936128048873664  0.3558972784709694  0.15489582120470405  1.0000
  H   H26       1.0  0.21655732522468432  0.46590936980127395  0.050301560947964716  1.0000
  C   C1        1.0  0.9930554245397614  0.7029352189570163  0.49407672779286593  1.0000
  C   C2        1.0  0.3100264762048895  0.9957928198027302  0.20235353788011426  1.0000
  C   C3        1.0  0.0005664120487763437  0.3068817964601466  0.49336172001151374  1.0000
  C   C4        1.0  0.6987495428746296  0.9978857233775358  0.8057292813037691  1.0000
  C   C5        1.0  0.9911379077855141  0.7019213217702504  0.8067273954327946  1.0000
  C   C6        1.0  0.7004139170357462  0.9992540158158432  0.49189059066296187  1.0000
  C   C7        1.0  0.0005359838495167242  0.306893099829999  0.1991508157861901  1.0000
  C   C8        1.0  0.3077496940909299  0.9887374500742325  0.5019719948292617  1.0000
  C   C9        1.0  0.30599583866050745  0.7001972810794896  0.49376682458500915  1.0000
  C   C10       1.0  0.9903364527516911  0.9982384301463015  0.8088221848717793  1.0000
  C   C11       1.0  0.7020794189588172  0.31096374960429785  0.4931860194497658  1.0000
  C   C12       1.0  0.9965487054039457  0.9971415915155292  0.1988170785490693  1.0000
  C   C13       1.0  0.999523106150832  0.41042426354332673  0.489250299542796  1.0000
  C   C14       1.0  0.9932647947655794  0.6026293578649414  0.4922198725092031  1.0000
  C   C15       1.0  0.07914184541729705  0.46242714364516496  0.4091627411708245  1.0000
  C   C16       1.0  0.9120295381461998  0.5534545013763009  0.5728086185289882  1.0000
  C   C17       1.0  0.07700335408986107  0.5568972504617021  0.40983627847468534  1.0000
  C   C18       1.0  0.91578592314778  0.4588767897254586  0.5706374067834402  1.0000
  C   C19       1.0  0.41291951600963017  0.9959189716796504  0.10324826206667137  1.0000
  C   C20       1.0  0.6014208971894207  0.9947609342045992  0.9104406540970799  1.0000
  C   C21       1.0  0.4636241650285057  0.07666551110000347  0.0514608282603106  1.0000
  C   C22       1.0  0.5542745830163939  0.9117487766471655  0.9612268169373409  1.0000
  C   C23       1.0  0.5563619406574812  0.07696504265138772  0.956562955618253  1.0000
  C   C24       1.0  0.461519541839877  0.9129651747996235  0.056166199855852014  1.0000
  C   C25       1.0  0.9870793814070278  0.9983254139650912  0.9114363490905076  1.0000
  C   C26       1.0  0.9929074410739036  0.995557395889712  0.10043432648003388  1.0000
  C   C27       1.0  0.9073469070760039  0.07833448727656407  0.9629792423149653  1.0000
  C   C28       1.0  0.07290801910484394  0.9137795960266715  0.051914338679345855  1.0000
  C   C29       1.0  0.9094287491986818  0.07782567123986452  0.055889562442672534  1.0000
  C   C30       1.0  0.06934608278712764  0.9158524004826771  0.9589330768052237  1.0000
  C   C31       1.0  0.41039766021681595  0.6026802439192168  0.4885471239246115  1.0000
  C   C32       1.0  0.602881816685958  0.413915860294928  0.4905930280731  1.0000
  C   C33       1.0  0.462043764757716  0.5512302971327332  0.408513419908111  1.0000
  C   C34       1.0  0.5546643113026872  0.4643375536516033  0.5704304707829452  1.0000
  C   C35       1.0  0.5565800641759606  0.45832300255343483  0.4088200996718926  1.0000
  C   C36       1.0  0.4599618296865059  0.557193112196515  0.5687364984760775  1.0000
  C   C37       1.0  0.9908880850217799  0.6025409525369483  0.9077039140384142  1.0000
  C   C38       1.0  0.00023665010864700928  0.4066880326034407  0.10104260128530028  1.0000
  C   C39       1.0  0.9122179665107663  0.5496288049099718  0.9602398216827551  1.0000
  C   C40       1.0  0.08171870114794899  0.4601783795987018  0.04754823704713828  1.0000
  C   C41       1.0  0.9181983362976991  0.4555806787820985  0.053175018685053026  1.0000
  C   C42       1.0  0.07386837918262038  0.556380662715846  0.9531317468781282  1.0000
  C   C43       1.0  0.8099151130926642  0.5502632905087026  0.9588912896186768  1.0000
  C   C44       1.0  0.81643532163352  0.44332724352428  0.06495996681415764  1.0000
  C   C45       1.0  0.41120178907342353  0.9861242010371143  0.49988758237442  1.0000
  C   C46       1.0  0.6016882310875573  0.994574497418249  0.49173514006754  1.0000
  C   C47       1.0  0.46418638451898897  0.9074861594959955  0.5785852998987834  1.0000
  C   C48       1.0  0.5518749631858737  0.07331785384837279  0.41100922602890233  1.0000
  C   C49       1.0  0.5578830563963987  0.9108595557904664  0.5754470674615104  1.0000
  C   C50       1.0  0.45810971445866483  0.06844780766892461  0.41571282295790013  1.0000
  N   N1        1.0  0.167775823995882  0.4202352533708194  0.0831816789477244  1.0000
  O   O1        1.0  0.9168797851094512  0.7406771214596616  0.5721066981839159  1.0000
  O   O2        1.0  0.2685565611639689  0.07159000067385082  0.2435485511172999  1.0000
  O   O3        1.0  0.07947815847184368  0.26268681621292694  0.42081800476832143  1.0000
  O   O4        1.0  0.7352299463047343  0.9232155557144636  0.76458470988468  1.0000
  O   O5        1.0  0.06896652089708503  0.7410822059468883  0.7659005327796964  1.0000
  O   O6        1.0  0.7374259365517588  0.07792705023309321  0.4166455117593059  1.0000
  O   O7        1.0  0.9240748345141083  0.2662944443336458  0.2379930189259625  1.0000
  O   O8        1.0  0.26480726852765446  0.9147810056466524  0.5793946302995748  1.0000
  O   O9        1.0  0.26388261011430103  0.7400843939243771  0.4191358347382774  1.0000
  O   O10       1.0  0.9169662892571891  0.07624502226773465  0.7654892858804486  1.0000
  O   O11       1.0  0.7393249631726133  0.2706220455028117  0.5716662308468798  1.0000
  O   O12       1.0  0.07516189006120294  0.9216607724673125  0.2358266895378734  1.0000
  O   O13       1.0  0.06806625704586391  0.9208383567151444  0.7707566040659514  1.0000
  O   O14       1.0  0.7404887780055203  0.27012517142279086  0.417755911173579  1.0000
  O   O15       1.0  0.9213869225084464  0.0751805725361833  0.23714163673523103  1.0000
  O   O16       1.0  0.26553741673977554  0.7354223287540125  0.5738594377866163  1.0000
  O   O17       1.0  0.9152433096326932  0.7404967699005237  0.7662997270617495  1.0000
  O   O18       1.0  0.2686132886763986  0.06731750449159087  0.42592825196943096  1.0000
  O   O19       1.0  0.0774271991673174  0.2642175899379708  0.24073404845317736  1.0000
  O   O20       1.0  0.7387657928378882  0.9241262767744518  0.5696985054799483  1.0000
  O   O21       1.0  0.7365264347903419  0.07633356585808601  0.7644903638575897  1.0000
  O   O22       1.0  0.07055294084896259  0.7418576816344141  0.4181694357121302  1.0000
  O   O23       1.0  0.26960203200263066  0.9207805204889112  0.23763253419662084  1.0000
  O   O24       1.0  0.9228542425713325  0.26895810435900824  0.5708768920593599  1.0000
  O   O25       1.0  0.7970608255582048  0.07047209577265794  0.5647342423832029  1.0000
  O   O26       1.0  0.0668317512732911  0.06576880374247915  0.5690036300702489  1.0000
  O   O27       1.0  0.0690675991887844  0.06671536545308504  0.2977906927117004  1.0000
  O   O28       1.0  0.06437634486041326  0.7987132359322614  0.5667686049042615  1.0000
  O   O29       1.0  0.1481315012775537  0.9485925771136082  0.4519706763428247  1.0000
  O   O30       1.0  0.9497225782059854  0.9523499544355262  0.44862538625474013  1.0000
  O   O31       1.0  0.9515065241196011  0.14885057858785453  0.4500145073704402  1.0000
  O   O32       1.0  0.9479587595217323  0.951997396255919  0.6479275599415574  1.0000
  F   F1        1.0  0.16270784070713518  0.4219393859768914  0.32714517011755356  1.0000
  F   F2        1.0  0.423258799285648  0.15913929800696283  0.09167181977572622  1.0000
  F   F3        1.0  0.8245029044646229  0.16063856908353827  0.9235195245598647  1.0000
  F   F4        1.0  0.4208499763505812  0.5896593330576819  0.32738097412656236  1.0000
  F   F5        1.0  0.42516638671533236  0.8247333100137766  0.6621818929716952  1.0000
