data_image0
_chemical_formula_structural       Cu2H28C26S2N6O12
_chemical_formula_sum              "Cu2 H28 C26 S2 N6 O12"
_cell_length_a       8.836347239629049
_cell_length_b       8.799426454223106
_cell_length_c       10.553306458472578
_cell_angle_alpha    73.52792031530288
_cell_angle_beta     83.66586573409758
_cell_angle_gamma    77.04642363918533

_space_group_name_H-M_alt    "P 1"
_space_group_IT_number       1

loop_
  _space_group_symop_operation_xyz
  'x, y, z'

loop_
  _atom_site_type_symbol
  _atom_site_label
  _atom_site_symmetry_multiplicity
  _atom_site_fract_x
  _atom_site_fract_y
  _atom_site_fract_z
  _atom_site_occupancy
  Cu  Cu1       1.0  0.127424289025285  0.10440731016842622  0.16250737181937316  1.0000
  Cu  Cu2       1.0  0.8725771058005944  0.895592447057879  0.8374910418436841  1.0000
  H   H1        1.0  0.3215653385368569  0.1526253848300954  0.3460949937654973  1.0000
  H   H2        1.0  0.6784310341565388  0.8473707079155515  0.6539075070549244  1.0000
  H   H3        1.0  0.4201361920779334  0.12396672033121088  0.21689052523370117  1.0000
  H   H4        1.0  0.5798656749235462  0.8760245578047829  0.783113620328507  1.0000
  H   H5        1.0  0.5562914786595812  0.680538718660536  0.9814019221785698  1.0000
  H   H6        1.0  0.44370848629567655  0.3194561822726455  0.018603421309777036  1.0000
  H   H7        1.0  0.6357160266335027  0.4302528208934718  0.16327088409748564  1.0000
  H   H8        1.0  0.36427709508620143  0.5697420402169654  0.8367359468801112  1.0000
  H   H9        1.0  0.4728584232976372  0.38458367999969306  0.3753094486130806  1.0000
  H   H10       1.0  0.5271354632319286  0.6154184534086795  0.6246984700910971  1.0000
  H   H11       1.0  0.24352676033682738  0.5948423120778941  0.40702350702213147  1.0000
  H   H12       1.0  0.7564707292176888  0.40516468841689607  0.5929820494859966  1.0000
  H   H13       1.0  0.6797735947794976  0.6013048865382872  0.4037678523270287  1.0000
  H   H14       1.0  0.3202207962846301  0.39869604282169036  0.5962279877134619  1.0000
  H   H15       1.0  0.8882022921738437  0.5712599845753915  0.3728623113382454  1.0000
  H   H16       1.0  0.11179569115215315  0.42873975297212746  0.6271363713701632  1.0000
  H   H17       1.0  0.7629356001064024  0.7015576080646965  0.24965939247145036  1.0000
  H   H18       1.0  0.2370613067603243  0.29844212431876116  0.7503365317230575  1.0000
  H   H19       1.0  0.7527686121261324  0.08070366752048837  0.5486502451079075  1.0000
  H   H20       1.0  0.24723599320187617  0.9192973204106708  0.45134573719509763  1.0000
  H   H21       1.0  0.6392163361436898  0.12516337138985284  0.4117390585730617  1.0000
  H   H22       1.0  0.36078707131032656  0.8748376085861693  0.5882598616074046  1.0000
  H   H23       1.0  0.7562052837591222  0.2652773194245555  0.42159708211246266  1.0000
  H   H24       1.0  0.24379956303821584  0.734722458410886  0.578399163708127  1.0000
  H   H25       1.0  0.0038240936447380158  0.2816892842638764  0.9000959542297621  1.0000
  H   H26       1.0  0.9961807329168194  0.7183104931063865  0.09990124098938942  1.0000
  H   H27       1.0  0.10027434710688249  0.42456168903727587  0.21991053778248223  1.0000
  H   H28       1.0  0.8997336494852275  0.5754393181074847  0.7800861248737333  1.0000
  C   C1        1.0  0.3571665811733806  0.7754899775643479  0.0922704429141632  1.0000
  C   C2        1.0  0.6428324381403101  0.22450976421687593  0.907732897105262  1.0000
  C   C3        1.0  0.4896081059656365  0.660705875225375  0.07562309230331013  1.0000
  C   C4        1.0  0.5103930662666015  0.33929387688396423  0.9243857647439097  1.0000
  C   C5        1.0  0.5331994448496644  0.520616041366111  0.17746958263519025  1.0000
  C   C6        1.0  0.4667991212338477  0.47938006263800753  0.8225365364159032  1.0000
  C   C7        1.0  0.4433906194037931  0.4952611145518944  0.2961904207484025  1.0000
  C   C8        1.0  0.5566066786256626  0.5047410385352645  0.7038172289104239  1.0000
  C   C9        1.0  0.3131514597784886  0.611215413064265  0.31427344800996343  1.0000
  C   C10       1.0  0.6868456574889875  0.3887879515141464  0.6857310899355937  1.0000
  C   C11       1.0  0.26820472449032445  0.7529216008874258  0.21333495017484694  1.0000
  C   C12       1.0  0.7317937916489041  0.2470805606200415  0.7866688122079565  1.0000
  C   C13       1.0  0.8998755344021275  0.892995460468171  0.36021592865364477  1.0000
  C   C14       1.0  0.10012105005210968  0.10700548015028488  0.6397835296175102  1.0000
  C   C15       1.0  0.7765237658791688  0.799621991879661  0.4113623569872829  1.0000
  C   C16       1.0  0.22346880408188943  0.20038256213822334  0.5886308833851003  1.0000
  C   C17       1.0  0.7770814770937305  0.6585612622113927  0.35698727722510165  1.0000
  C   C18       1.0  0.2229142723705734  0.34143846314729137  0.6430096860497514  1.0000
  C   C19       1.0  0.8845563768361442  0.05703320246696819  0.36873739878065936  1.0000
  C   C20       1.0  0.11544818802028796  0.9429677845338275  0.6312604823194619  1.0000
  C   C21       1.0  0.7497330309173975  0.13768365640611083  0.4417164757455509  1.0000
  C   C22       1.0  0.25027089994686946  0.862314904308846  0.558281072672969  1.0000
  C   C23       1.0  0.0019204040567544069  0.37988492373513333  0.9440017478503149  1.0000
  C   C24       1.0  0.9980855596714301  0.6201148601947252  0.05599535768705278  1.0000
  C   C25       1.0  0.05407864962766948  0.4593149001898312  0.12204958618720238  1.0000
  C   C26       1.0  0.9459293469644404  0.5406861069549294  0.8779470764690059  1.0000
  S   S1        1.0  0.2853334361278285  0.9365121058109979  0.954389871253383  1.0000
  S   S2        1.0  0.7146683606935864  0.0634852293631596  0.04561286703909671  1.0000
  N   N1        1.0  0.1362188443816805  0.8707626345834852  0.23544252095486232  1.0000
  N   N2        1.0  0.8637790782369591  0.12923710156849927  0.764559009949231  1.0000
  N   N3        1.0  0.024298095560531894  0.8104849368565253  0.3048677687395696  1.0000
  N   N4        1.0  0.9757010046963044  0.18951480678540383  0.6951317736856168  1.0000
  N   N5        1.0  0.05528525272226401  0.34028158213847337  0.06573449493695452  1.0000
  N   N6        1.0  0.9447204695365837  0.659719411887096  0.9342623470828213  1.0000
  O   O1        1.0  0.26543141760242855  0.0870977456637902  0.999217999350918  1.0000
  O   O2        1.0  0.7345699974592461  0.9129020120276862  0.000779464913584632  1.0000
  O   O3        1.0  0.1381262736772229  0.9040941451975898  0.9301072350904533  1.0000
  O   O4        1.0  0.8618706925367688  0.09590437290354711  0.06989749720868592  1.0000
  O   O5        1.0  0.3998485846157107  0.9399732331325127  0.8436471564629497  1.0000
  O   O6        1.0  0.6001524271600543  0.0600168292785241  0.1563554435015178  1.0000
  O   O7        1.0  0.6707293713851215  0.836065544775593  0.4922557662576423  1.0000
  O   O8        1.0  0.3292611764750929  0.16394384492626562  0.5077327121319184  1.0000
  O   O9        1.0  0.9854590954957129  0.14083357233941737  0.3151118843020839  1.0000
  O   O10       1.0  0.014544794896984577  0.8591649874451762  0.684887562913559  1.0000
  O   O11       1.0  0.3152222249935193  0.167210417530562  0.2504722301977934  1.0000
  O   O12       1.0  0.6847791995408556  0.8327832817272167  0.7495294895321223  1.0000
