data_image0
_chemical_formula_structural       Zn3H28C42N4O16
_chemical_formula_sum              "Zn3 H28 C42 N4 O16"
_cell_length_a       7.552173870458373
_cell_length_b       9.56163319741476
_cell_length_c       13.896923027629553
_cell_angle_alpha    82.65992002545927
_cell_angle_beta     77.60105534004931
_cell_angle_gamma    81.19771914300414

_space_group_name_H-M_alt    "P 1"
_space_group_IT_number       1

loop_
  _space_group_symop_operation_xyz
  'x, y, z'

loop_
  _atom_site_type_symbol
  _atom_site_label
  _atom_site_symmetry_multiplicity
  _atom_site_fract_x
  _atom_site_fract_y
  _atom_site_fract_z
  _atom_site_occupancy
  Zn  Zn1       1.0  0.23303262763775479  0.5887756199971861  0.5017358536515815  1.0000
  Zn  Zn2       1.0  0.7669705388803576  0.4112249693816068  0.49826183225475523  1.0000
  Zn  Zn3       1.0  0.4999996703708545  9.57098237099468e-07  0.5000012022304716  1.0000
  H   H1        1.0  0.8679625594371883  0.26656672355624517  0.7848403598968332  1.0000
  H   H2        1.0  0.13203364982755514  0.7334349139983445  0.2151580605350674  1.0000
  H   H3        1.0  0.23310087645868535  0.8939006840454768  0.8782981141318871  1.0000
  H   H4        1.0  0.7669034155668936  0.1060935795958997  0.12170435076148323  1.0000
  H   H5        1.0  0.5284107824929264  0.23547797309295504  0.7878486708375121  1.0000
  H   H6        1.0  0.4715854394957617  0.7645236827236558  0.2121511855945144  1.0000
  H   H7        1.0  0.9508968110399961  0.43900094689858804  0.181934167760879  1.0000
  H   H8        1.0  0.049099960978480774  0.5609975277873006  0.8180666421645313  1.0000
  H   H9        1.0  0.9789413655854843  0.1883929945194254  0.9426520370483545  1.0000
  H   H10       1.0  0.021054019416993648  0.8116054314624607  0.057345345481422776  1.0000
  H   H11       1.0  0.16929604506589865  0.0176323410891186  0.2831676654184534  1.0000
  H   H12       1.0  0.8307086769668856  0.9823672153110722  0.7168320903811746  1.0000
  H   H13       1.0  0.32812737329481206  0.6970208714498656  0.9914208568322707  1.0000
  H   H14       1.0  0.6718797976417361  0.3029723166068337  0.008579925349415901  1.0000
  H   H15       1.0  0.635060273117716  0.5583195700137864  0.7533020891712637  1.0000
  H   H16       1.0  0.36494326220758205  0.4416789016548536  0.24669647173068654  1.0000
  H   H17       1.0  0.1150184081386953  0.400410402332021  0.008204186993999883  1.0000
  H   H18       1.0  0.8849779887106234  0.5995901809329993  0.9917950299357444  1.0000
  H   H19       1.0  0.3349468387148418  0.9785762160319179  0.10855644328011488  1.0000
  H   H20       1.0  0.665054804098453  0.0214254519805124  0.8914427627332273  1.0000
  H   H21       1.0  0.6566077276053902  0.7046203763210102  0.5905191909098306  1.0000
  H   H22       1.0  0.3433954643606042  0.2953802495818181  0.4094813669967436  1.0000
  H   H23       1.0  0.26600520427762575  0.023019290481777  0.7093492796182517  1.0000
  H   H24       1.0  0.7339985695280117  0.9769781999453713  0.2906558217820248  1.0000
  H   H25       1.0  0.1529622625526699  0.10632140381291322  0.4800971139643194  1.0000
  H   H26       1.0  0.847038219001021  0.8936792159920017  0.5199037691515968  1.0000
  H   H27       1.0  0.15504774191968088  0.9657427356968782  0.5499984932061254  1.0000
  H   H28       1.0  0.8449540948401618  0.034257887156997  0.4500022273051201  1.0000
  C   C1        1.0  0.2298629603453789  0.18606931400623236  0.05001658025673089  1.0000
  C   C2        1.0  0.7701336177265503  0.8139302058382114  0.9499827151707905  1.0000
  C   C3        1.0  0.4686607007186011  0.3003341247094653  0.6072799055059831  1.0000
  C   C4        1.0  0.5313388619981152  0.699671793936325  0.39271914912092126  1.0000
  C   C5        1.0  0.06083723921813089  0.3391404475226451  0.6055682123729724  1.0000
  C   C6        1.0  0.9391601503921335  0.6608622656324884  0.39443068495654654  1.0000
  C   C7        1.0  0.32165159379513836  0.2804972918626304  0.6980706947977283  1.0000
  C   C8        1.0  0.678346257632185  0.7195107597063669  0.3019290834383527  1.0000
  C   C9        1.0  0.9573675705516108  0.25376602222154093  0.3458380328918551  1.0000
  C   C10       1.0  0.04263324799941867  0.7462324342181786  0.6541601352193709  1.0000
  C   C11       1.0  0.1340789900004609  0.29151645998025794  0.6974737927782471  1.0000
  C   C12       1.0  0.8659188550648904  0.7084915824577324  0.30252526745777436  1.0000
  C   C13       1.0  0.012756726818281487  0.2583849896318497  0.7864155194157122  1.0000
  C   C14       1.0  0.987240119124159  0.7416209137850133  0.21358314242046822  1.0000
  C   C15       1.0  0.329854375927546  0.8481351049589562  0.8166646100202756  1.0000
  C   C16       1.0  0.6701500973206365  0.15185809526184357  0.183337933370872  1.0000
  C   C17       1.0  0.049715546974667305  0.23017692864306832  0.24220117379920234  1.0000
  C   C18       1.0  0.9502851094396615  0.7698226186102631  0.757799069814432  1.0000
  C   C19       1.0  0.38350076497973606  0.24227966933858622  0.7867671178670577  1.0000
  C   C20       1.0  0.6164937329956144  0.7577241011392105  0.213232026174019  1.0000
  C   C21       1.0  0.03323558798276588  0.3379527459885594  0.1648480441041826  1.0000
  C   C22       1.0  0.9667637005014739  0.6620467799537978  0.8351509261139967  1.0000
  C   C23       1.0  0.2603679515980629  0.20994653012127168  0.8741089888805149  1.0000
  C   C24       1.0  0.7396269088225081  0.7900551135153719  0.12589031215611604  1.0000
  C   C25       1.0  0.4351749447431388  0.7157267317756961  0.8308203901878245  1.0000
  C   C26       1.0  0.5648279729903717  0.28426750142369883  0.1691800833100316  1.0000
  C   C27       1.0  0.07378745406034429  0.21614320613336702  0.8744147326496474  1.0000
  C   C28       1.0  0.9262085739817962  0.7838594948417993  0.12558360928447596  1.0000
  C   C29       1.0  0.15709556985988365  0.10005468787439752  0.2221891940685978  1.0000
  C   C30       1.0  0.8429064417605899  0.8999448624278871  0.7778108869403724  1.0000
  C   C31       1.0  0.42036147623625886  0.6434141125751013  0.9305501009768093  1.0000
  C   C32       1.0  0.5796443331321652  0.3565790633016235  0.06945012580948882  1.0000
  C   C33       1.0  0.5529763893284564  0.6617965236482489  0.7473426601021415  1.0000
  C   C34       1.0  0.4470275148040271  0.3381998303102449  0.2526567757954298  1.0000
  C   C35       1.0  0.12302063250006504  0.31653875521413977  0.06860733742777819  1.0000
  C   C36       1.0  0.8769757707112331  0.6834618371818947  0.9313925975020184  1.0000
  C   C37       1.0  0.24754952117601184  0.07746164434057329  0.1260024973164917  1.0000
  C   C38       1.0  0.7524495924475827  0.9225389541533676  0.8739971124039769  1.0000
  C   C39       1.0  0.5651699357183727  0.7430754705766489  0.6563945058099208  1.0000
  C   C40       1.0  0.43483206954013537  0.2569240705946214  0.3436048571989829  1.0000
  C   C41       1.0  0.3486291320840279  0.9217252134887487  0.7229289317215049  1.0000
  C   C42       1.0  0.6513746162737275  0.0782722404143641  0.2770732976785339  1.0000
  N   N1        1.0  0.467059083207296  0.8720632913834833  0.6439168203541499  1.0000
  N   N2        1.0  0.5329429538610667  0.1279362954428365  0.356086132655058  1.0000
  N   N3        1.0  0.5155362307717934  0.5223507724671065  0.9497059178399354  1.0000
  N   N4        1.0  0.4844707653041096  0.477643488141176  0.05029550384403342  1.0000
  O   O1        1.0  0.16689447692078818  0.38705052062231005  0.5276587173929244  1.0000
  O   O2        1.0  0.8331015574833244  0.6129521894838704  0.4723403425412656  1.0000
  O   O3        1.0  0.21928821311323785  0.051855395950099095  0.5303235679043397  1.0000
  O   O4        1.0  0.7807120872178498  0.9481462872753924  0.4696772367137996  1.0000
  O   O5        1.0  0.540298765489375  0.1966060864509132  0.5585102255523466  1.0000
  O   O6        1.0  0.45969846834616834  0.8033977266488321  0.4414914652796326  1.0000
  O   O7        1.0  0.9845171887748732  0.15862853371982066  0.4153885045673533  1.0000
  O   O8        1.0  0.01548210607133877  0.8413710013535436  0.5846111836508853  1.0000
  O   O9        1.0  0.5266674393214925  0.42209692963132994  0.5910860882007825  1.0000
  O   O10       1.0  0.47333074274118997  0.5779089494414649  0.4089102570305485  1.0000
  O   O11       1.0  0.853052867690877  0.3716344833099399  0.3595794546673332  1.0000
  O   O12       1.0  0.14694796358408982  0.6283639913918009  0.6404201494440116  1.0000
  O   O13       1.0  0.8929136825919737  0.3295982439869789  0.6102295924617778  1.0000
  O   O14       1.0  0.10708370701828326  0.6704044691681547  0.38976930486774103  1.0000
  O   O15       1.0  0.33397742322799207  0.16229326499202304  0.957047088118216  1.0000
  O   O16       1.0  0.6660166256542439  0.8377051853339311  0.04295261101641756  1.0000
