data_image0
_chemical_formula_structural       Hg2H32C36N4Cl4O12
_chemical_formula_sum              "Hg2 H32 C36 N4 Cl4 O12"
_cell_length_a       7.501775294836906
_cell_length_b       8.84887891229173
_cell_length_c       15.527183671305629
_cell_angle_alpha    92.19751877042702
_cell_angle_beta     104.00489400798227
_cell_angle_gamma    89.99724666527693

_space_group_name_H-M_alt    "P 1"
_space_group_IT_number       1

loop_
  _space_group_symop_operation_xyz
  'x, y, z'

loop_
  _atom_site_type_symbol
  _atom_site_label
  _atom_site_symmetry_multiplicity
  _atom_site_fract_x
  _atom_site_fract_y
  _atom_site_fract_z
  _atom_site_occupancy
  Hg  Hg1       1.0  0.23293179227712105  0.9999256401488804  0.9999063694768751  1.0000
  Hg  Hg2       1.0  0.7398831812220339  0.5000734735866105  0.9999734338015571  1.0000
  H   H1        1.0  0.5558307074108698  0.9632823013791948  0.17609596092606236  1.0000
  H   H2        1.0  0.3800642348208784  0.03669871638902579  0.8238651977921307  1.0000
  H   H3        1.0  0.715443775130858  0.3959477820857557  0.3112190280681659  1.0000
  H   H4        1.0  0.4045813705316306  0.6040150206638157  0.688756730668537  1.0000
  H   H5        1.0  0.2438862935498918  0.17047795168066668  0.3231643142744716  1.0000
  H   H6        1.0  0.921005390388153  0.8294999654385717  0.6769469614854557  1.0000
  H   H7        1.0  0.0562224409842926  0.0190505229041946  0.1888014009403705  1.0000
  H   H8        1.0  0.867720521068577  0.980927150671277  0.8112589098168357  1.0000
  H   H9        1.0  0.058146846749103503  0.5758296242719253  0.1842843954334157  1.0000
  H   H10       1.0  0.8739715476413253  0.42414684637455463  0.8157445822373149  1.0000
  H   H11       1.0  0.3541949355765369  0.3511218773831003  0.04792520786306651  1.0000
  H   H12       1.0  0.30626020088476485  0.648818734863873  0.9518800967061624  1.0000
  H   H13       1.0  0.525073408439134  0.5199612992824498  0.1768718627418195  1.0000
  H   H14       1.0  0.3482870572108184  0.4800127148778443  0.8229852155107195  1.0000
  H   H15       1.0  0.37943900703417205  0.8737620977593322  0.29549704125754056  1.0000
  H   H16       1.0  0.0846331023937239  0.1261377799151902  0.7045730097930374  1.0000
  H   H17       1.0  0.24398994004037897  0.9345336641261923  0.3713274517632001  1.0000
  H   H18       1.0  0.8731454874305342  0.06550485386033238  0.6287417648218324  1.0000
  H   H19       1.0  0.3210038752186932  0.705917241971022  0.45596803472187725  1.0000
  H   H20       1.0  0.8652710957322541  0.29418134769711907  0.5442090116021489  1.0000
  H   H21       1.0  0.7254517822771548  0.8748254119069968  0.523425535288915  1.0000
  H   H22       1.0  0.20209361772981543  0.12517487555445683  0.4765967120384857  1.0000
  H   H23       1.0  0.6271171664519103  0.617379340448309  0.4865072704303515  1.0000
  H   H24       1.0  0.14055900730905796  0.3825947694867081  0.5134738160021399  1.0000
  H   H25       1.0  0.9494369682606918  0.9132411505023008  0.4422987874985438  1.0000
  H   H26       1.0  0.5073639038815401  0.08675237912659378  0.5576838821318546  1.0000
  H   H27       1.0  0.8770630189250853  0.16320746034244132  0.0600244432898549  1.0000
  H   H28       1.0  0.8173726719298031  0.8367897660414272  0.9399924923411193  1.0000
  H   H29       1.0  0.8829674533631647  0.6866463684236945  0.3076390289086958  1.0000
  H   H30       1.0  0.5758765558474509  0.3134410513460749  0.6923023931904454  1.0000
  H   H31       1.0  0.9407208166111617  0.6388573688214831  0.4234541272908103  1.0000
  H   H32       1.0  0.517573792719496  0.3611113183774036  0.5764729705578944  1.0000
  C   C1        1.0  0.7637545530957369  0.09826601195092617  0.3328964084837764  1.0000
  C   C2        1.0  0.4311918713563401  0.9017749759966377  0.667100256764712  1.0000
  C   C3        1.0  0.27521780426870635  0.4697563482470313  0.3425928271507387  1.0000
  C   C4        1.0  0.9330115549725235  0.5302436247284131  0.6575253723188581  1.0000
  C   C5        1.0  0.5547821063360489  0.08665091027933158  0.1789095488748274  1.0000
  C   C6        1.0  0.37613155081128713  0.9133245444939104  0.8210251105387342  1.0000
  C   C7        1.0  0.6542910195393861  0.17115759352450505  0.25295487620226004  1.0000
  C   C8        1.0  0.4016927308098489  0.8288603324218184  0.7470090235332166  1.0000
  C   C9        1.0  0.16466937567636114  0.3828344363390457  0.2638482989848541  1.0000
  C   C10       1.0  0.9011033020014594  0.617127828839294  0.7362255066169396  1.0000
  C   C11       1.0  0.6439394843179899  0.3288482574770981  0.2529170822885902  1.0000
  C   C12       1.0  0.39128046136936234  0.6711654427546347  0.7470169904861876  1.0000
  C   C13       1.0  0.1626969293273461  0.22478090275490803  0.2649354967588522  1.0000
  C   C14       1.0  0.8980272929784405  0.7751780296576241  0.7351426940672923  1.0000
  C   C15       1.0  0.059761635367230816  0.14230243821484828  0.1916807690689168  1.0000
  C   C16       1.0  0.8683355166500135  0.8576627558057337  0.8083655411161317  1.0000
  C   C17       1.0  0.06188081444984311  0.45304940194128546  0.18874688482922147  1.0000
  C   C18       1.0  0.8733261353168444  0.5469179809973354  0.811282135913906  1.0000
  C   C19       1.0  0.44247968092918916  0.30529527641227355  0.10759066975127501  1.0000
  C   C20       1.0  0.33496312031171277  0.6946607516185564  0.8922583409226732  1.0000
  C   C21       1.0  0.5365893233066644  0.3973756558816745  0.17905388891681176  1.0000
  C   C22       1.0  0.35768743913380524  0.6026093777137617  0.8208238413472485  1.0000
  C   C23       1.0  0.3702052025785321  0.8767307037846804  0.365442173794122  1.0000
  C   C24       1.0  0.0052760656262620005  0.12326417357535037  0.634638576741139  1.0000
  C   C25       1.0  0.382024040283696  0.7162688264079407  0.398902852433956  1.0000
  C   C26       1.0  0.9835529069557225  0.2837517363825767  0.601223492643129  1.0000
  C   C27       1.0  0.6690499678871263  0.8524386868591518  0.4521553303767902  1.0000
  C   C28       1.0  0.21714842700688314  0.14759606007824994  0.5478684927161411  1.0000
  C   C29       1.0  0.5898099811033222  0.6908653063209228  0.4297324166814178  1.0000
  C   C30       1.0  0.16031685653319272  0.30915989356586937  0.5702774563814046  1.0000
  C   C31       1.0  0.8239437660416513  0.8610619402730462  0.4005292890298193  1.0000
  C   C32       1.0  0.42378011178448827  0.13894555407772197  0.5994830889122937  1.0000
  C   C33       1.0  0.9613556932814832  0.22106995923757466  0.1193996203976653  1.0000
  C   C34       1.0  0.8422376765932994  0.7789066258179743  0.8806286318530924  1.0000
  C   C35       1.0  0.842520797362127  0.6975767156107153  0.3709271921428581  1.0000
  C   C36       1.0  0.4720217893421222  0.30243112099702774  0.6290191965223073  1.0000
  N   N1        1.0  0.4518042058591548  0.15355523915176408  0.10828782967483623  1.0000
  N   N2        1.0  0.3436570772996602  0.8464050494813331  0.8915913705167567  1.0000
  N   N3        1.0  0.963011391738128  0.3727840999042441  0.11845880204319308  1.0000
  N   N4        1.0  0.8447527294321233  0.6271901970597894  0.8815434320608517  1.0000
  Cl  Cl1       1.0  0.6234567450038069  0.27602441032218644  0.9110317627019313  1.0000
  Cl  Cl2       1.0  0.7124620248079624  0.7241030429903785  0.08890934786855811  1.0000
  Cl  Cl3       1.0  0.110188583098676  0.20280617286091734  0.9030780731951182  1.0000
  Cl  Cl4       1.0  0.20714142294039561  0.797162514669722  0.0968067327473321  1.0000
  O   O1        1.0  0.7587862128352895  0.9455762877013496  0.3215907950543837  1.0000
  O   O2        1.0  0.43774373038483827  0.05446012215277558  0.6784378231976831  1.0000
  O   O3        1.0  0.8493488940179007  0.16740543297392915  0.3999920434235164  1.0000
  O   O4        1.0  0.44951310254464266  0.8326183990966027  0.5999921713814445  1.0000
  O   O5        1.0  0.3473282947376148  0.4140455900644468  0.4135084656647479  1.0000
  O   O6        1.0  0.9341057089851219  0.5859194901806146  0.5866308380096682  1.0000
  O   O7        1.0  0.5223496888014837  0.9567518014076692  0.4228355906373835  1.0000
  O   O8        1.0  0.09984009014890921  0.043268236785308986  0.5771926332688508  1.0000
  O   O9        1.0  0.2856900299252345  0.617964690732151  0.32627844964525815  1.0000
  O   O10       1.0  0.9601601177846748  0.38207318574762167  0.6739032459402949  1.0000
  O   O11       1.0  0.6616222935280548  0.6329792227691725  0.3575962981323215  1.0000
  O   O12       1.0  0.3044810460634225  0.3671462075535175  0.6423336742973547  1.0000
