data_image0
_chemical_formula_structural       Zn4H40C56O20
_chemical_formula_sum              "Zn4 H40 C56 O20"
_cell_length_a       5.77193715957146
_cell_length_b       12.860293478447847
_cell_length_c       16.98139749211748
_cell_angle_alpha    103.70463883117634
_cell_angle_beta     90.00146937142802
_cell_angle_gamma    89.99900857920808

_space_group_name_H-M_alt    "P 1"
_space_group_IT_number       1

loop_
  _space_group_symop_operation_xyz
  'x, y, z'

loop_
  _atom_site_type_symbol
  _atom_site_label
  _atom_site_symmetry_multiplicity
  _atom_site_fract_x
  _atom_site_fract_y
  _atom_site_fract_z
  _atom_site_occupancy
  Zn  Zn1       1.0  0.028533126664712003  0.9406757077371708  0.8876518515046639  1.0000
  Zn  Zn2       1.0  0.5285679193890261  0.05933455934559358  0.6123619887208918  1.0000
  Zn  Zn3       1.0  0.9714657048680734  0.059325811409010484  0.11234742164116077  1.0000
  Zn  Zn4       1.0  0.4714620980252491  0.940666149571129  0.3876500942095902  1.0000
  H   H1        1.0  0.8081234089736569  0.5512515885621241  0.9141569688797302  1.0000
  H   H2        1.0  0.3081555886832206  0.44875060690959867  0.5858413032333727  1.0000
  H   H3        1.0  0.19188062023359004  0.44875633000904713  0.08584816612800951  1.0000
  H   H4        1.0  0.6918640330015009  0.5512429119858523  0.4141518202860154  1.0000
  H   H5        1.0  0.052510069367095  0.5026939758019964  0.790179695252206  1.0000
  H   H6        1.0  0.552552343801146  0.49731375662346977  0.7098197595059685  1.0000
  H   H7        1.0  0.9474939598328406  0.4973083414837447  0.20982266584312  1.0000
  H   H8        1.0  0.44749846293480294  0.5026797683903581  0.2901651209291103  1.0000
  H   H9        1.0  0.0134218962192989  0.6051099191764989  0.6832644173876972  1.0000
  H   H10       1.0  0.5134761178056024  0.39489964809310846  0.8167362135150352  1.0000
  H   H11       1.0  0.9866115858560748  0.39490680119932614  0.31674524496286677  1.0000
  H   H12       1.0  0.48655909623537497  0.6051114816414226  0.18325654372997488  1.0000
  H   H13       1.0  0.7155429499379266  0.747197619691228  0.6978639427387989  1.0000
  H   H14       1.0  0.2155954318070172  0.2528179370144699  0.8021377133842191  1.0000
  H   H15       1.0  0.2845009271207175  0.2528215039933599  0.30214320744139656  1.0000
  H   H16       1.0  0.7844328525293705  0.7472003872306413  0.19786811520794592  1.0000
  H   H17       1.0  0.2921129608487831  0.5582081061916212  0.9179043798887958  1.0000
  H   H18       1.0  0.7920658957815404  0.44177416978121886  0.5820990071503543  1.0000
  H   H19       1.0  0.7079066610441629  0.44177260539185437  0.08208820714486362  1.0000
  H   H20       1.0  0.20787229777216254  0.5582177423993074  0.417902071406658  1.0000
  H   H21       1.0  0.05485484043589389  0.5926636898420199  0.04409226970537362  1.0000
  H   H22       1.0  0.5548674250847724  0.40732837974589126  0.4558952535445612  1.0000
  H   H23       1.0  0.9451439911273667  0.4073162232050507  0.9558978181210518  1.0000
  H   H24       1.0  0.4451366037858691  0.5926539388441867  0.5440893780923588  1.0000
  H   H25       1.0  0.13299807850140868  0.7555881093972586  0.1544327579008424  1.0000
  H   H26       1.0  0.6330321947962005  0.2444138991381024  0.3455519157991417  1.0000
  H   H27       1.0  0.8670042181345963  0.24439100282187806  0.8455577748080357  1.0000
  H   H28       1.0  0.3670151474840324  0.7555636104231098  0.6544406844156824  1.0000
  H   H29       1.0  0.4516941987081751  0.8776578235230232  0.1391273510178905  1.0000
  H   H30       1.0  0.9517044143173905  0.12233345547535628  0.3608704633899506  1.0000
  H   H31       1.0  0.5482959702064677  0.1223220904375353  0.8608615591765129  1.0000
  H   H32       1.0  0.0483256034876618  0.8776544425795977  0.6391457934546522  1.0000
  H   H33       1.0  0.8835749282903433  0.014662433540472397  0.7623271871844037  1.0000
  H   H34       1.0  0.38358928828353817  0.9853321009704954  0.7376756472388094  1.0000
  H   H35       1.0  0.1164204383978955  0.9853398819964241  0.23767752907878043  1.0000
  H   H36       1.0  0.6164182061319537  0.0146814157696369  0.2623363832940555  1.0000
  H   H37       1.0  0.7142660767345673  0.9210124310250835  0.7779419445026361  1.0000
  H   H38       1.0  0.2142683269320003  0.07897912007626218  0.7220583280713484  1.0000
  H   H39       1.0  0.2857223600417313  0.07899308203433719  0.22206864665614023  1.0000
  H   H40       1.0  0.7857322371058756  0.9210280007938679  0.2779431301933358  1.0000
  C   C1        1.0  0.5918076794419632  0.7289949421857569  0.8137534058467819  1.0000
  C   C2        1.0  0.09184879797383869  0.2710133547815516  0.6862458949482289  1.0000
  C   C3        1.0  0.40818422198223187  0.2710089781026567  0.18624629906445014  1.0000
  C   C4        1.0  0.9081552312091714  0.7290009658925808  0.31376156910231146  1.0000
  C   C5        1.0  0.6230501463715825  0.6754601412760052  0.876495046398645  1.0000
  C   C6        1.0  0.1230844885504538  0.32454717148424805  0.6234990425215585  1.0000
  C   C7        1.0  0.37692789490336054  0.3245381773249179  0.1235024733488501  1.0000
  C   C8        1.0  0.8769074128199108  0.6754679527062069  0.376504443814575  1.0000
  C   C9        1.0  0.7872006037376379  0.5933036823116636  0.8659651032792366  1.0000
  C   C10       1.0  0.2872362888005711  0.4066962427086479  0.6340261053695002  1.0000
  C   C11       1.0  0.21279129768121413  0.40669863767286785  0.13403372497130306  1.0000
  C   C12       1.0  0.7127816001728036  0.5933084827563917  0.3659672667684929  1.0000
  C   C13       1.0  0.9252681628918892  0.5666361276773982  0.7967542995021117  1.0000
  C   C14       1.0  0.4253065248248832  0.43337096694019556  0.7032446697407905  1.0000
  C   C15       1.0  0.0747410637979868  0.4333685916015639  0.2032473158035444  1.0000
  C   C16       1.0  0.574713096554987  0.5666337607382558  0.296745758403702  1.0000
  C   C17       1.0  0.9015084968793232  0.6229867593589233  0.7364600062316666  1.0000
  C   C18       1.0  0.4015604760320669  0.3770220801528623  0.763537308635321  1.0000
  C   C19       1.0  0.09850072978292698  0.37702676270067303  0.2635449587078326  1.0000
  C   C20       1.0  0.5984678081440294  0.6229858445575189  0.23645958326246588  1.0000
  C   C21       1.0  0.7342793065867141  0.7029755271117465  0.7448582163514101  1.0000
  C   C22       1.0  0.2343248330951937  0.2970359146487027  0.7551434475948182  1.0000
  C   C23       1.0  0.26573511756885887  0.2970379962633984  0.2551449822073906  1.0000
  C   C24       1.0  0.7656982537532144  0.7029840085847424  0.24486502403874502  1.0000
  C   C25       1.0  0.49216941197395403  0.702090862946079  0.9541891367491215  1.0000
  C   C26       1.0  0.9922061086407012  0.2979062298242355  0.5458021237774062  1.0000
  C   C27       1.0  0.5078016989408455  0.29789945903723947  0.04579752286947779  1.0000
  C   C28       1.0  0.0077805955372625  0.7020896823045674  0.4542020298108581  1.0000
  C   C29       1.0  0.32352763574777293  0.6291077953096504  0.9664093408258264  1.0000
  C   C30       1.0  0.8235278578557582  0.3708815025459841  0.5335855647171426  1.0000
  C   C31       1.0  0.6764694631458497  0.3708753214564453  0.03357837871570269  1.0000
  C   C32       1.0  0.17644498603603148  0.6291088105576675  0.4664128709074901  1.0000
  C   C33       1.0  0.19242438259691852  0.6480850117526913  0.0372608251492039  1.0000
  C   C34       1.0  0.6924377461234315  0.35191023166961344  0.46272961374953064  1.0000
  C   C35       1.0  0.8075623212328578  0.3518989040872852  0.9627288046841397  1.0000
  C   C36       1.0  0.30755415527686836  0.6480728837809411  0.5372598721726972  1.0000
  C   C37       1.0  0.23526866213497039  0.7387000590999406  0.09915670706621432  1.0000
  C   C38       1.0  0.7353012603476613  0.26129812904348165  0.40083344719105435  1.0000
  C   C39       1.0  0.7647197741187668  0.2612822582058384  0.9008296909129283  1.0000
  C   C40       1.0  0.2647218267710016  0.7386865799613529  0.5991657475070084  1.0000
  C   C41       1.0  0.41149212153172937  0.8087173841380279  0.09003424156292539  1.0000
  C   C42       1.0  0.9115244657362425  0.1912821429114828  0.40996118182417957  1.0000
  C   C43       1.0  0.5884859195446096  0.1912761371010419  0.9099559378026496  1.0000
  C   C44       1.0  0.08849342414011117  0.8087025598968506  0.5900462560543785  1.0000
  C   C45       1.0  0.5395038269876054  0.7926184661536838  0.01785037260067678  1.0000
  C   C46       1.0  0.0395580216468829  0.2073824961700126  0.4821433307971643  1.0000
  C   C47       1.0  0.460448225885095  0.20737986406216885  0.9821318382511207  1.0000
  C   C48       1.0  0.9604425430992904  0.7926078066446749  0.5178686473296352  1.0000
  C   C49       1.0  0.4178457066586816  0.8169922041768701  0.8204930608810129  1.0000
  C   C50       1.0  0.91788127987558  0.1830213305241628  0.6795170144474268  1.0000
  C   C51       1.0  0.5821548576860137  0.18300770889182164  0.17951299001028787  1.0000
  C   C52       1.0  0.08212621431509598  0.8169897899755231  0.32048810749457607  1.0000
  C   C53       1.0  0.720709979143365  0.8744899064806616  0.013257559402276816  1.0000
  C   C54       1.0  0.2207553298052787  0.12551557207982708  0.48673437130094027  1.0000
  C   C55       1.0  0.27923860891349517  0.1255212226268441  0.9867363751220563  1.0000
  C   C56       1.0  0.7792365720835195  0.874477136319534  0.5132721505850454  1.0000
  O   O1        1.0  0.2431037239644382  0.8182737108869701  0.8669510117033922  1.0000
  O   O2        1.0  0.7431010928006856  0.18174887387596073  0.633065097214178  1.0000
  O   O3        1.0  0.7569037706122188  0.1817334010878682  0.13306222258655953  1.0000
  O   O4        1.0  0.25690120395977795  0.8182606436731277  0.36694268084778503  1.0000
  O   O5        1.0  0.45294026476945237  0.8859217548051106  0.7788972940564916  1.0000
  O   O6        1.0  0.9529572706034062  0.1140987767451165  0.721108448373158  1.0000
  O   O7        1.0  0.5470464394867919  0.11409416090030788  0.2211181121903819  1.0000
  O   O8        1.0  0.0470606187491711  0.8859067415504355  0.27889507729486235  1.0000
  O   O9        1.0  0.7644606700972715  0.8945642920026131  0.9447796949036443  1.0000
  O   O10       1.0  0.26448716183063675  0.10542536446737222  0.555210063078185  1.0000
  O   O11       1.0  0.23550177729159563  0.10543324978870316  0.05518647445678229  1.0000
  O   O12       1.0  0.7355186009765191  0.894577731888255  0.4448207043529919  1.0000
  O   O13       1.0  0.8153957260319373  0.9211440243655815  0.0803166348314477  1.0000
  O   O14       1.0  0.31546007186374675  0.07886968539629889  0.4196822905116092  1.0000
  O   O15       1.0  0.18450435054812428  0.0788743242259926  0.9196573980872029  1.0000
  O   O16       1.0  0.6844989130693548  0.9211230049093828  0.5803483720517588  1.0000
  O   O17       1.0  0.8784307953925319  0.9492371864778661  0.7839916863849581  1.0000
  O   O18       1.0  0.3784301211455626  0.05075417928738089  0.7160081789804875  1.0000
  O   O19       1.0  0.12157323381755698  0.050757928774835585  0.2160076129372257  1.0000
  O   O20       1.0  0.6215791057288413  0.9492545374233573  0.2840000439767607  1.0000
