data_image0
_chemical_formula_structural       Cu2H20C12N4O8
_chemical_formula_sum              "Cu2 H20 C12 N4 O8"
_cell_length_a       5.585122987642474
_cell_length_b       7.641718414459078
_cell_length_c       9.994780451798178
_cell_angle_alpha    99.63537742891951
_cell_angle_beta     90.00784574555354
_cell_angle_gamma    111.45386534654271

_space_group_name_H-M_alt    "P 1"
_space_group_IT_number       1

loop_
  _space_group_symop_operation_xyz
  'x, y, z'

loop_
  _atom_site_type_symbol
  _atom_site_label
  _atom_site_symmetry_multiplicity
  _atom_site_fract_x
  _atom_site_fract_y
  _atom_site_fract_z
  _atom_site_occupancy
  Cu  Cu1       1.0  0.511324397489183  0.7313629646872712  0.14005172892792933  1.0000
  Cu  Cu2       1.0  0.2199336165303193  0.7312438065415987  0.6399903371146111  1.0000
  H   H1        1.0  0.9432739783570412  0.7065438564608256  0.18348358760445652  1.0000
  H   H2        1.0  0.7629969960163976  0.706204290751522  0.6833907619379005  1.0000
  H   H3        1.0  0.19942974213724796  0.39236130793209156  0.1266365052462461  1.0000
  H   H4        1.0  0.19282920348545923  0.39236327344774224  0.6267358287862451  1.0000
  H   H5        1.0  0.2799447971542506  0.40877545111795405  0.9653717229727621  1.0000
  H   H6        1.0  0.12873635323690275  0.4087045204384623  0.46543748936696266  1.0000
  H   H7        1.0  0.19383870337493653  0.981166071362921  0.3456555999961922  1.0000
  H   H8        1.0  0.7873327688001195  0.980846694072504  0.8455289416792057  1.0000
  H   H9        1.0  0.032162085596077396  0.0671242372622984  0.4738436530051544  1.0000
  H   H10       1.0  0.0351971268975859  0.0668455992279249  0.9736927228046571  1.0000
  H   H11       1.0  0.9267507415195054  0.7188256892543238  0.43891959908039985  1.0000
  H   H12       1.0  0.7919573439820977  0.7185474857588189  0.9387974751921181  1.0000
  H   H13       1.0  0.5282935503843332  0.4207835772296917  0.3040155362417637  1.0000
  H   H14       1.0  0.8920918273939051  0.420536040880883  0.8040265177851964  1.0000
  H   H15       1.0  0.8272977738931289  0.40449739596619577  0.25190764466135823  1.0000
  H   H16       1.0  0.5768001824471226  0.40411463470712755  0.75173647794756  1.0000
  H   H17       1.0  0.6812616269649182  0.38990562540843143  0.010048184074079801  1.0000
  H   H18       1.0  0.7083563130245238  0.3894430141144055  0.5099632836368642  1.0000
  H   H19       1.0  0.45449692585403767  0.20577288091283208  0.0827919461848907  1.0000
  H   H20       1.0  0.7512279811683695  0.20550075627164685  0.5828311829880023  1.0000
  C   C1        1.0  0.9292557422946288  0.0884418280367925  0.2715575822598312  1.0000
  C   C2        1.0  0.1591630035742568  0.08815472743353328  0.771397011239536  1.0000
  C   C3        1.0  0.0024136797679617035  0.9821971279228378  0.37101171804201283  1.0000
  C   C4        1.0  0.9798253100300015  0.9819016534027583  0.870877830802087  1.0000
  C   C5        1.0  0.8247981585192579  0.7765178165437947  0.37380278207701423  1.0000
  C   C6        1.0  0.9516181316749055  0.7762477801380496  0.8736867176714044  1.0000
  C   C7        1.0  0.566874125079508  0.7633314909887614  0.4351694724933139  1.0000
  C   C8        1.0  0.19641274309592657  0.7631518386162597  0.9350821796102977  1.0000
  C   C9        1.0  0.6743275527737396  0.45544286094224173  0.22891171149966996  1.0000
  C   C10       1.0  0.7808129634678804  0.45513665018793154  0.7288421906114239  1.0000
  C   C11       1.0  0.542093954182498  0.36158433477478974  0.08900950363284471  1.0000
  C   C12       1.0  0.8192974910005973  0.3613109396087567  0.5889887976570165  1.0000
  N   N1        1.0  0.7771592061524899  0.6646083444518496  0.23545625503119547  1.0000
  N   N2        1.0  0.8872076221740526  0.6643128159071666  0.7353562433327882  1.0000
  N   N3        1.0  0.3492520804045824  0.4467498912335159  0.06608211146624403  1.0000
  N   N4        1.0  0.09737975042507674  0.446672015652794  0.5661266535685527  1.0000
  O   O1        1.0  0.7392921272639157  0.006347775055907298  0.18162534833196287  1.0000
  O   O2        1.0  0.2670602626800829  0.006157161418471401  0.6814977209267995  1.0000
  O   O3        1.0  0.07238689109966862  0.2628841179878307  0.2812936913121931  1.0000
  O   O4        1.0  0.19033607565799565  0.2625301856667051  0.7810873305367566  1.0000
  O   O5        1.0  0.37310299272092345  0.7345514957198063  0.3587642494724933  1.0000
  O   O6        1.0  0.36138138481261695  0.734384621238348  0.8587063383991663  1.0000
  O   O7        1.0  0.5686694147289941  0.7838731899044191  0.5659706835509511  1.0000
  O   O8        1.0  0.21518324826559623  0.7837249998839583  0.06589960350468262  1.0000
