data_image0
_chemical_formula_structural       Ag2H14C10N8O8
_chemical_formula_sum              "Ag2 H14 C10 N8 O8"
_cell_length_a       3.6648710387762167
_cell_length_b       10.387767502294615
_cell_length_c       11.063188551445425
_cell_angle_alpha    76.69616688000093
_cell_angle_beta     83.95145862969517
_cell_angle_gamma    83.5197939456048

_space_group_name_H-M_alt    "P 1"
_space_group_IT_number       1

loop_
  _space_group_symop_operation_xyz
  'x, y, z'

loop_
  _atom_site_type_symbol
  _atom_site_label
  _atom_site_symmetry_multiplicity
  _atom_site_fract_x
  _atom_site_fract_y
  _atom_site_fract_z
  _atom_site_occupancy
  Ag  Ag1       1.0  0.9140755431394184  0.060200140423226876  0.1113964138460872  1.0000
  Ag  Ag2       1.0  0.08590301794519922  0.9398045152441268  0.8886044683939929  1.0000
  H   H1        1.0  0.7811619630808336  0.3579225696555781  0.9557961696658026  1.0000
  H   H2        1.0  0.21883396547881517  0.6420780664608046  0.044204011331125045  1.0000
  H   H3        1.0  0.3295533778585451  0.4378904610373268  0.9457577076673047  1.0000
  H   H4        1.0  0.6704372060256105  0.5621092021528397  0.05424017538111056  1.0000
  H   H5        1.0  0.6893561010951714  0.5037468503835711  0.8339983301787584  1.0000
  H   H6        1.0  0.3106395134839062  0.49625478364451686  0.16599893591540388  1.0000
  H   H7        1.0  0.8718926689211983  0.9948241635434059  0.3664818694165107  1.0000
  H   H8        1.0  0.1281205992291063  0.0051724545398243995  0.6335167071305605  1.0000
  H   H9        1.0  0.7682994382025753  0.8745380981885301  0.5033234724987495  1.0000
  H   H10       1.0  0.23170764761549376  0.12546151584805187  0.4966746945894159  1.0000
  H   H11       1.0  0.5058952209066945  0.6704427620806541  0.4956079658765375  1.0000
  H   H12       1.0  0.49410414431026356  0.32955488602166844  0.5043927277737978  1.0000
  H   H13       1.0  0.6468534761455942  0.4707327825069926  0.647874736056302  1.0000
  H   H14       1.0  0.3531513246524796  0.5292648527523767  0.3521239447916217  1.0000
  C   C1        1.0  0.582921355673932  0.41301861128477674  0.8908146478424611  1.0000
  C   C2        1.0  0.41707411223078594  0.5869840115481181  0.10918512258920293  1.0000
  C   C3        1.0  0.37521970395755494  0.20777771495908579  0.8616837575290929  1.0000
  C   C4        1.0  0.6247787399495549  0.7922239065762611  0.1383161149907153  1.0000
  C   C5        1.0  0.6766466995588445  0.8278621396505982  0.3386492806597873  1.0000
  C   C6        1.0  0.3233498920988254  0.17213551790883494  0.6613506129783318  1.0000
  C   C7        1.0  0.5436622112468897  0.7021951054561197  0.3948528452708829  1.0000
  C   C8        1.0  0.45632863084910014  0.29780356285797177  0.6051461462668755  1.0000
  C   C9        1.0  0.5433000772207277  0.3736525393412292  0.6812071296861079  1.0000
  C   C10       1.0  0.45669862489820906  0.6263480873180427  0.3187938513230364  1.0000
  N   N1        1.0  0.5037030070772275  0.3306303147162026  0.8076724929550991  1.0000
  N   N2        1.0  0.4962983849478917  0.6693703070394151  0.19232657844613496  1.0000
  N   N3        1.0  0.713776721604667  0.8695865085703288  0.21230568303987238  1.0000
  N   N4        1.0  0.2862216944180744  0.1304151144828367  0.7876932862732176  1.0000
  N   N5        1.0  0.7659609150076746  0.9063714268557918  0.40797923493304467  1.0000
  N   N6        1.0  0.23404099344111268  0.0936272051476763  0.5920220534468683  1.0000
  N   N7        1.0  0.9924767590164904  0.2598940349371333  0.28244459315649106  1.0000
  N   N8        1.0  0.007535699361433525  0.7401065505078533  0.7175567750868979  1.0000
  O   O1        1.0  0.3452600351222657  0.17457436152113096  0.9792802288997394  1.0000
  O   O2        1.0  0.6547417896734232  0.8254242750357931  0.02071834986004716  1.0000
  O   O3        1.0  0.14114145230885097  0.1447538547744784  0.33329425262194695  1.0000
  O   O4        1.0  0.8588683791841375  0.855245751322819  0.6667038112717237  1.0000
  O   O5        1.0  0.9945486378084566  0.3560037907979208  0.3338875560751405  1.0000
  O   O6        1.0  0.005473062557200624  0.6439927928427165  0.6661170333354322  1.0000
  O   O7        1.0  0.8464065519978378  0.2747415876328745  0.1809470722787054  1.0000
  O   O8        1.0  0.15359200344674664  0.7252600278312045  0.8190564130679406  1.0000
