data_image0
_chemical_formula_structural       Zn2H20C62N8Cl12O26
_chemical_formula_sum              "Zn2 H20 C62 N8 Cl12 O26"
_cell_length_a       16.164229384346864
_cell_length_b       16.733222337890368
_cell_length_c       27.536736372108344
_cell_angle_alpha    88.48403845747958
_cell_angle_beta     88.57386181498175
_cell_angle_gamma    86.4358097700271

_space_group_name_H-M_alt    "P 1"
_space_group_IT_number       1

loop_
  _space_group_symop_operation_xyz
  'x, y, z'

loop_
  _atom_site_type_symbol
  _atom_site_label
  _atom_site_symmetry_multiplicity
  _atom_site_fract_x
  _atom_site_fract_y
  _atom_site_fract_z
  _atom_site_occupancy
  Zn  Zn1       1.0  0.5895641444717442  0.5109961975923482  0.5019838716843736  1.0000
  Zn  Zn2       1.0  0.41044089976355014  0.4890037823626444  0.4980136055838429  1.0000
  H   H1        1.0  0.618681847716644  0.2682513548166057  0.4540246302217667  1.0000
  H   H2        1.0  0.3813254810930076  0.7317324459679427  0.5459744913440545  1.0000
  H   H3        1.0  0.1270435876718707  0.42580547757120973  0.570260558606641  1.0000
  H   H4        1.0  0.8729619317627666  0.5742357603179259  0.4297490414923857  1.0000
  H   H5        1.0  0.3174741208009735  0.4104708387762557  0.9698497621791731  1.0000
  H   H6        1.0  0.6824373663529215  0.5897620093017435  0.03015861756788501  1.0000
  H   H7        1.0  0.5424409230085914  0.3739949855075721  0.6771312921984817  1.0000
  H   H8        1.0  0.4576266221000156  0.6261025018023575  0.32289361308922077  1.0000
  H   H9        1.0  0.5512987213441605  0.9670403094169374  0.4408027372764706  1.0000
  H   H10       1.0  0.4487786918109506  0.0329230355239716  0.5592199047721707  1.0000
  H   H11       1.0  0.2650639624675081  0.37879057529455207  0.5881464414744499  1.0000
  H   H12       1.0  0.7349323676239408  0.6212201392360799  0.4118582845186651  1.0000
  H   H13       1.0  0.5956965667623065  0.2715862996915916  0.3417508184090963  1.0000
  H   H14       1.0  0.40430501110551387  0.7284846047223541  0.6582021374715692  1.0000
  H   H15       1.0  0.5474129925188363  0.28873530241800427  0.24032840875508293  1.0000
  H   H16       1.0  0.4525915344326704  0.7113672779123236  0.7596367659111465  1.0000
  H   H17       1.0  0.312839118951061  0.3196002341960594  0.05697120976365969  1.0000
  H   H18       1.0  0.6871666632871793  0.6805119039108263  0.9429985318419014  1.0000
  H   H19       1.0  0.5641128649419828  0.8026282220912719  0.3908177354017468  1.0000
  H   H20       1.0  0.435889477390873  0.1973657559317132  0.6091816843748461  1.0000
  C   C1        1.0  0.5354470614302187  0.35210659290618906  0.5218046403502824  1.0000
  C   C2        1.0  0.4645159727603101  0.647882052091518  0.4781805811879707  1.0000
  C   C3        1.0  0.4707643993921805  0.5412601937880978  0.8994836888770406  1.0000
  C   C4        1.0  0.5291939832223774  0.45890687639304434  0.10051108088624257  1.0000
  C   C5        1.0  0.4057235734167365  0.5071658883146525  0.8743603888806035  1.0000
  C   C6        1.0  0.5942232038262673  0.4930179537069179  0.1256328743397148  1.0000
  C   C7        1.0  0.35012846189421515  0.46264413479168814  0.9017775035108783  1.0000
  C   C8        1.0  0.6497751176176864  0.5375959265858441  0.0982254514423317  1.0000
  C   C9        1.0  0.5198440146540334  0.5973968977873055  0.8739540650633586  1.0000
  C   C10       1.0  0.4801510811104989  0.4027181847505261  0.1260234288680451  1.0000
  C   C11       1.0  0.47021908233190157  0.5476076945966356  0.6441798202965785  1.0000
  C   C12       1.0  0.5298166256519394  0.4524540258491356  0.3558119504135248  1.0000
  C   C13       1.0  0.446785475158805  0.44611184276860166  0.026147335095203103  1.0000
  C   C14       1.0  0.5531840110217345  0.5540552925805144  0.9738370914104308  1.0000
  C   C15       1.0  0.5687558644805649  0.5300716675181862  0.024505202746205185  1.0000
  C   C16       1.0  0.43118800800343143  0.4701187695611607  0.9754865606550707  1.0000
  C   C17       1.0  0.5142011048365376  0.47823418593902284  0.0502976934349206  1.0000
  C   C18       1.0  0.48576607924370296  0.52193052104424  0.9496922506062544  1.0000
  C   C19       1.0  0.39931891140944487  0.3907021428219934  0.0524959562396532  1.0000
  C   C20       1.0  0.600668147647056  0.6094416791759086  0.9474823490221098  1.0000
  C   C21       1.0  0.4176033940071875  0.3687259215656979  0.1013306290245382  1.0000
  C   C22       1.0  0.5824111224220091  0.631375449036206  0.8986376744686381  1.0000
  C   C23       1.0  0.4732955734664371  0.5375728192770666  0.5898351894173501  1.0000
  C   C24       1.0  0.5267496169571897  0.4624667288280052  0.4101596496592421  1.0000
  C   C25       1.0  0.36282104261218256  0.4455115774660782  0.951072221060592  1.0000
  C   C26       1.0  0.6371062541938245  0.5546961961852618  0.048923553068256395  1.0000
  C   C27       1.0  0.5432492611963085  0.2623937211373999  0.5196361626907873  1.0000
  C   C28       1.0  0.4567488564398801  0.7375984714953034  0.4803608063266224  1.0000
  C   C29       1.0  0.5005847712623606  0.21349511260391546  0.5521720748325832  1.0000
  C   C30       1.0  0.49942949154615945  0.7864868774026449  0.44783023190081644  1.0000
  C   C31       1.0  0.49496279305176927  0.1320511345864048  0.5421620924611688  1.0000
  C   C32       1.0  0.5050855146725439  0.8679218114016578  0.4578543339984903  1.0000
  C   C33       1.0  0.5321068513314344  0.09903162910122633  0.49916551475632787  1.0000
  C   C34       1.0  0.46795527327098085  0.9009383148663659  0.5008536425888579  1.0000
  C   C35       1.0  0.5792018335123855  0.1495200437751265  0.4683150840357229  1.0000
  C   C36       1.0  0.4208468963159788  0.8504559035795155  0.5317002041452525  1.0000
  C   C37       1.0  0.5851648737629703  0.22915401282200068  0.47868326696752206  1.0000
  C   C38       1.0  0.41484791862389864  0.7708315721326924  0.5213186491112367  1.0000
  C   C39       1.0  0.23465970213189288  0.5129207149301535  0.4566857781150516  1.0000
  C   C40       1.0  0.7653510771827569  0.4870864402059922  0.5433144136100054  1.0000
  C   C41       1.0  0.14796259867583222  0.525889468989462  0.4615210385369366  1.0000
  C   C42       1.0  0.8520499080141803  0.4741392135641718  0.5384853601980311  1.0000
  C   C43       1.0  0.10964500960677269  0.49401324050808193  0.5036810107849163  1.0000
  C   C44       1.0  0.8903675433090045  0.5060244164941423  0.4963270768094715  1.0000
  C   C45       1.0  0.401087310538756  0.5148786825565422  0.8209965353767783  1.0000
  C   C46       1.0  0.5988334304167539  0.4853057531710618  0.1789949486471158  1.0000
  C   C47       1.0  0.15714226914665372  0.45049418783288087  0.5378694303485217  1.0000
  C   C48       1.0  0.8428655597880377  0.5495398803218311  0.4621373291317354  1.0000
  C   C49       1.0  0.24234308529826623  0.4389591321091473  0.529101600239656  1.0000
  C   C50       1.0  0.7576627213219707  0.5610581776265138  0.47090288449227546  1.0000
  C   C51       1.0  0.5043363158798612  0.6180628340572697  0.8224174861988586  1.0000
  C   C52       1.0  0.4956645035696213  0.38204985643269396  0.1775599516569244  1.0000
  C   C53       1.0  0.4407220033802304  0.6272301896694756  0.716070596358186  1.0000
  C   C54       1.0  0.5592696158185646  0.3728621168905875  0.283909451229988  1.0000
  C   C55       1.0  0.4423620469314429  0.619468019970583  0.6652122440611592  1.0000
  C   C56       1.0  0.5576445716587771  0.38060273961318103  0.33476678193770937  1.0000
  C   C57       1.0  0.4992546702356719  0.4829556281264973  0.6739631867344613  1.0000
  C   C58       1.0  0.5007632905975399  0.5171227838208099  0.3260406115217548  1.0000
  C   C59       1.0  0.49712661848294476  0.4902349961736689  0.7244648328479144  1.0000
  C   C60       1.0  0.502863844529628  0.5098571757729927  0.2755388397631222  1.0000
  C   C61       1.0  0.4660322797616985  0.5618279290840107  0.7457369641597109  1.0000
  C   C62       1.0  0.5339433949844477  0.4382721081344201  0.254251214021167  1.0000
  N   N1        1.0  0.45946385464808503  0.5644395701792463  0.797722227405579  1.0000
  N   N2        1.0  0.5405033512624299  0.43568622159735776  0.20226499507809592  1.0000
  N   N3        1.0  0.5225263286262134  0.021625075146985803  0.48567816073533265  1.0000
  N   N4        1.0  0.47754865162271903  0.9783376629890836  0.5143456174390195  1.0000
  N   N5        1.0  0.2806878499686078  0.4722849359562389  0.4902974259100077  1.0000
  N   N6        1.0  0.7193220377771609  0.5277168298080073  0.5097024924126217  1.0000
  N   N7        1.0  0.024454401455351223  0.5077365673050663  0.5162938549840916  1.0000
  N   N8        1.0  0.9755605546649447  0.4923118668018488  0.4837151328736553  1.0000
  Cl  Cl1       1.0  0.6271846753986735  0.11094403475807009  0.416230703736062  1.0000
  Cl  Cl2       1.0  0.37289123125049173  0.8890234999694826  0.5837922661676841  1.0000
  Cl  Cl3       1.0  0.7153540749968812  0.45230831827453954  0.5938877289130815  1.0000
  Cl  Cl4       1.0  0.28465903337804127  0.5476719275402218  0.4061051784349559  1.0000
  Cl  Cl5       1.0  0.906513788453438  0.4181956584464785  0.5813616503551201  1.0000
  Cl  Cl6       1.0  0.09350629973378233  0.5818402170099118  0.418644528416138  1.0000
  Cl  Cl7       1.0  0.5352371818603318  0.4092845118730892  0.7596713140673257  1.0000
  Cl  Cl8       1.0  0.46472232855283113  0.5908183157653611  0.24035121470185314  1.0000
  Cl  Cl9       1.0  0.2630224163005225  0.42528169269991173  0.8786540367158507  1.0000
  Cl  Cl10      1.0  0.7368417046749229  0.5750145473277044  0.12136617817058949  1.0000
  Cl  Cl11      1.0  0.3542477398521057  0.2993983485539077  0.1278033135627297  1.0000
  Cl  Cl12      1.0  0.6458204055680383  0.7006384404950053  0.8721523470504875  1.0000
  O   O1        1.0  0.6012000910550485  0.3897374013549283  0.5181945929541455  1.0000
  O   O2        1.0  0.39875445989988384  0.6102690426084152  0.4818195635993874  1.0000
  O   O3        1.0  0.46136177213457336  0.3816349544000914  0.5235627276978646  1.0000
  O   O4        1.0  0.5385892323536011  0.6183280498143021  0.4764012536713125  1.0000
  O   O5        1.0  0.5444567076716991  0.5414380325224428  0.5696968883999034  1.0000
  O   O6        1.0  0.4555876688350367  0.4586332713084786  0.430295701159551  1.0000
  O   O7        1.0  0.4056695829795274  0.5248265419550435  0.5701032809544484  1.0000
  O   O8        1.0  0.5943890687854321  0.4751578925594658  0.4298950272991604  1.0000
  O   O9        1.0  0.35302769677731055  0.4806687145811282  0.7962736444646551  1.0000
  O   O10       1.0  0.6468697526290654  0.5195414183132172  0.2037254695318538  1.0000
  O   O11       1.0  0.469232487220168  0.3223168357561547  0.1990515924033573  1.0000
  O   O12       1.0  0.5307996944186045  0.6777695846399682  0.8009144655018758  1.0000
  O   O13       1.0  0.529391905754693  0.41483964440504206  0.6519326762907909  1.0000
  O   O14       1.0  0.47065715789806023  0.5852369154781345  0.3480840972191146  1.0000
  O   O15       1.0  0.5497115024125064  0.9113042798976636  0.4258329811271295  1.0000
  O   O16       1.0  0.4503601559851447  0.08866204369727633  0.5741918881600013  1.0000
  O   O17       1.0  0.2933711197282847  0.39440076623971976  0.5580859708367498  1.0000
  O   O18       1.0  0.7066301272951703  0.6056105423650777  0.44192012235456696  1.0000
  O   O19       1.0  0.5825395283729621  0.31641166176810026  0.36341451379205836  1.0000
  O   O20       1.0  0.4174722693938904  0.6836453906498079  0.6365530028351714  1.0000
  O   O21       1.0  0.5866045892330118  0.29958269421874917  0.2662432746529007  1.0000
  O   O22       1.0  0.4133863476208148  0.700519837790445  0.7337290136204899  1.0000
  O   O23       1.0  0.3357619883718357  0.35615849991216214  0.0319881086840965  1.0000
  O   O24       1.0  0.6642304108557512  0.6439793297166361  0.9679912865975524  1.0000
  O   O25       1.0  0.5378513720987002  0.7573197524812869  0.4067546277276008  1.0000
  O   O26       1.0  0.4621392263032362  0.242673659788089  0.5932377209906788  1.0000
