data_image0
_chemical_formula_structural       Zn2H36C36N8O8F2
_chemical_formula_sum              "Zn2 H36 C36 N8 O8 F2"
_cell_length_a       11.130907968359692
_cell_length_b       14.04764319147058
_cell_length_c       15.35034743142525
_cell_angle_alpha    90.90986030091223
_cell_angle_beta     91.71550803445247
_cell_angle_gamma    89.78465574578694

_space_group_name_H-M_alt    "P 1"
_space_group_IT_number       1

loop_
  _space_group_symop_operation_xyz
  'x, y, z'

loop_
  _atom_site_type_symbol
  _atom_site_label
  _atom_site_symmetry_multiplicity
  _atom_site_fract_x
  _atom_site_fract_y
  _atom_site_fract_z
  _atom_site_occupancy
  Zn  Zn1       1.0  0.5091921433653255  0.39949767428657185  0.49949314737180134  1.0000
  Zn  Zn2       1.0  0.5123930370798959  0.6061229660004276  0.5089910187875477  1.0000
  H   H1        1.0  0.1179992064146731  0.6419728256069631  0.5174765685481973  1.0000
  H   H2        1.0  0.8958895264674921  0.6417616455141232  0.4805616460098677  1.0000
  H   H3        1.0  0.37275236169423204  0.2433617858729633  0.5762489883063113  1.0000
  H   H4        1.0  0.6530359014495986  0.2520533018124453  0.4063027651792482  1.0000
  H   H5        1.0  0.1015873364182838  0.4304473810880013  0.46293406330054415  1.0000
  H   H6        1.0  0.914979771527328  0.4307884418464739  0.5299207483326925  1.0000
  H   H7        1.0  0.6032295703739906  0.38202110020385766  0.9571054858083986  1.0000
  H   H8        1.0  0.3866517243880167  0.38508959329799103  0.05443944988704171  1.0000
  H   H9        1.0  0.3951766878888492  0.6155498115006356  0.7677452880589187  1.0000
  H   H10       1.0  0.5936357848212666  0.635832688786472  0.23105535645838426  1.0000
  H   H11       1.0  0.374127260623588  0.06413383915933221  0.5755386089914368  1.0000
  H   H12       1.0  0.6616051107514521  0.07374755736690733  0.3933130486441813  1.0000
  H   H13       1.0  0.6970220775502511  0.32725803721351104  0.8364266022579515  1.0000
  H   H14       1.0  0.5252899328297075  0.22108763699578302  0.8158272968565329  1.0000
  H   H15       1.0  0.6326860423667426  0.20830677527756344  0.7315757723407261  1.0000
  H   H16       1.0  0.5001522043112132  0.27700938694150073  0.7126462933482713  1.0000
  H   H17       1.0  0.2938338766808783  0.3436290654668355  0.18088670657294875  1.0000
  H   H18       1.0  0.4647911713339496  0.23490902775354539  0.19058718929626656  1.0000
  H   H19       1.0  0.36845467881753535  0.227014347288872  0.2818455604796527  1.0000
  H   H20       1.0  0.5034733445064107  0.2942337213711924  0.2917300745630912  1.0000
  H   H21       1.0  0.7358854414042214  0.9041240749267062  0.6264526991400104  1.0000
  H   H22       1.0  0.8045375018857965  0.05903247126666862  0.5243211892038532  1.0000
  H   H23       1.0  0.7993912137719618  0.9532661005307193  0.4580996692586298  1.0000
  H   H24       1.0  0.8897875550763102  0.9572468535696859  0.5551595817181154  1.0000
  H   H25       1.0  0.3508444824823513  0.019648033038315305  0.39434568022372224  1.0000
  H   H26       1.0  0.16323282998560984  0.012914249939918  0.43712278068709054  1.0000
  H   H27       1.0  0.1947967707766978  0.9025299983722023  0.488846582676935  1.0000
  H   H28       1.0  0.14740108758722667  0.9035207666919195  0.37730424981950267  1.0000
  H   H29       1.0  0.7500811713069523  0.7515887426342616  0.5903430263108975  1.0000
  H   H30       1.0  0.6930610368256395  0.6925523472191062  0.7281955564494212  1.0000
  H   H31       1.0  0.5431853419990702  0.7257164492283155  0.7045599990629867  1.0000
  H   H32       1.0  0.6521965034247542  0.8164727872147356  0.7288448236839644  1.0000
  H   H33       1.0  0.31091451317959706  0.6811907216465092  0.44782457264420134  1.0000
  H   H34       1.0  0.2926976331410742  0.8228229998069241  0.30449351209367154  1.0000
  H   H35       1.0  0.1962534230022612  0.7227604798168984  0.3162439830875243  1.0000
  H   H36       1.0  0.3510333322131274  0.7045340816794052  0.2928223247794649  1.0000
  C   C1        1.0  0.50453984170246  0.48453520929599864  0.6725497948041126  1.0000
  C   C2        1.0  0.5004647465509962  0.5051957138874528  0.3330665702807068  1.0000
  C   C3        1.0  0.49609341377848176  0.5089822126524626  0.954289724854782  1.0000
  C   C4        1.0  0.4899089700243096  0.5132915547256333  0.050437663902315015  1.0000
  C   C5        1.0  0.6070325597810325  0.89766100867886  0.5337323952782215  1.0000
  C   C6        1.0  0.4182098873326936  0.9005395493683397  0.4477063111278739  1.0000
  C   C7        1.0  0.5867521309652232  0.8006083104129402  0.5476514539521846  1.0000
  C   C8        1.0  0.40965227079102107  0.7997854336343766  0.45818545294558544  1.0000
  C   C9        1.0  0.5186316296938641  0.9480341383491437  0.48455072040827235  1.0000
  C   C10       1.0  0.43661668589295727  0.10328845572894352  0.5363046719694466  1.0000
  C   C11       1.0  0.5974085811236449  0.10808609039852976  0.4358440881638686  1.0000
  C   C12       1.0  0.4356390225988277  0.20209245731733463  0.5375413814223222  1.0000
  C   C13       1.0  0.5923758251126755  0.2069950153027734  0.441822801933455  1.0000
  C   C14       1.0  0.5193534432619344  0.053855197195154914  0.4847806437825853  1.0000
  C   C15       1.0  0.7410637549269692  0.4991004845166601  0.5044022959473866  1.0000
  C   C16       1.0  0.2742681908924496  0.49738717027418033  0.4949403561960041  1.0000
  C   C17       1.0  0.07271832544648049  0.5749855480073125  0.5003386190190895  1.0000
  C   C18       1.0  0.9423842283512085  0.5749866926255791  0.4955332152305872  1.0000
  C   C19       1.0  0.14167218451293448  0.49780141851020704  0.4846030068276408  1.0000
  C   C20       1.0  0.8741605435135681  0.4981580261199597  0.5103695537292341  1.0000
  C   C21       1.0  0.5569985005492697  0.4330928230293055  0.9147914394259263  1.0000
  C   C22       1.0  0.4324985440444278  0.44007665484131325  0.09388270907222562  1.0000
  C   C23       1.0  0.5617225791430585  0.41975096210035906  0.8241900922958154  1.0000
  C   C24       1.0  0.43154806876253093  0.4340261069460354  0.18488770420954387  1.0000
  C   C25       1.0  0.5014064532360293  0.4867618053645587  0.7703840992010315  1.0000
  C   C26       1.0  0.4931864663216245  0.5049287216458751  0.23506012796603676  1.0000
  C   C27       1.0  0.4405775933200359  0.5633686807144686  0.8089407952255316  1.0000
  C   C28       1.0  0.5483685722281351  0.580015134286704  0.19268743336547806  1.0000
  C   C29       1.0  0.438481361898738  0.5735790182728309  0.8987988484189561  1.0000
  C   C30       1.0  0.5460592401418367  0.5834160578988519  0.10241583740631911  1.0000
  C   C31       1.0  0.5687559539720084  0.2576576379068883  0.7617273908111957  1.0000
  C   C32       1.0  0.4288985086882562  0.2742213557532765  0.24734630847564187  1.0000
  C   C33       1.0  0.8036982862726988  0.9807928200946281  0.5256989900975954  1.0000
  C   C34       1.0  0.2017391608134886  0.941420049165153  0.42775489183218  1.0000
  C   C35       1.0  0.6367249713404064  0.7465780712346302  0.6960330168143258  1.0000
  C   C36       1.0  0.28764499939514815  0.749927941453315  0.3285122136105017  1.0000
  N   N1        1.0  0.4926641153979574  0.7540289330690301  0.5085099353135335  1.0000
  N   N2        1.0  0.5128601479724678  0.2529790145595712  0.49139086228748863  1.0000
  N   N3        1.0  0.6327237489129088  0.3443866685658535  0.7905776369594266  1.0000
  N   N4        1.0  0.3631058443401684  0.3610498299288949  0.22304233837064666  1.0000
  N   N5        1.0  0.7041020738615272  0.9447380867849308  0.5766495025117495  1.0000
  N   N6        1.0  0.3276037218467351  0.9508042098990973  0.40317415576480914  1.0000
  N   N7        1.0  0.6612892408697205  0.7451251075463292  0.6027688236998402  1.0000
  N   N8        1.0  0.3151023769892873  0.7483371386217214  0.42235605125537756  1.0000
  O   O1        1.0  0.4851780881711888  0.4059788712515129  0.6325528936987156  1.0000
  O   O2        1.0  0.5275284437918017  0.4267162384760256  0.3691970470307029  1.0000
  O   O3        1.0  0.5251803549860766  0.5638628129238726  0.6372062971282235  1.0000
  O   O4        1.0  0.48152660368227623  0.5840613599130792  0.3719813637050536  1.0000
  O   O5        1.0  0.6902433405728913  0.4197454814652489  0.5191362780331091  1.0000
  O   O6        1.0  0.3258375371404796  0.41741460553917886  0.4827612873710337  1.0000
  O   O7        1.0  0.6883271704033688  0.5771793949008172  0.485953059403272  1.0000
  O   O8        1.0  0.32716422466557293  0.5757037118343507  0.5156360308648688  1.0000
  F   F1        1.0  0.376038334491831  0.6482563801767757  0.9337882152318858  1.0000
  F   F2        1.0  0.6039614089312195  0.6562894163958932  0.0633597597052145  1.0000
