data_image0
_chemical_formula_structural       Cu2H12C8S2N6Cl2O6
_chemical_formula_sum              "Cu2 H12 C8 S2 N6 Cl2 O6"
_cell_length_a       5.846571829777655
_cell_length_b       7.295807002008135
_cell_length_c       9.768979664917925
_cell_angle_alpha    93.37881773494071
_cell_angle_beta     107.55439808599888
_cell_angle_gamma    90.35444713488582

_space_group_name_H-M_alt    "P 1"
_space_group_IT_number       1

loop_
  _space_group_symop_operation_xyz
  'x, y, z'

loop_
  _atom_site_type_symbol
  _atom_site_label
  _atom_site_symmetry_multiplicity
  _atom_site_fract_x
  _atom_site_fract_y
  _atom_site_fract_z
  _atom_site_occupancy
  Cu  Cu1       1.0  0.49999774361118915  8.993768808800276e-06  0.5000004069489634  1.0000
  Cu  Cu2       1.0  0.49998946210437384  0.5000023891542256  0.4999994589986159  1.0000
  H   H1        1.0  0.9916626992758428  0.0175624613581391  0.25227018650025473  1.0000
  H   H2        1.0  0.008332254981269199  0.9824395749979047  0.7477253396766413  1.0000
  H   H3        1.0  0.9948354418932086  0.4375260734906092  0.2546745585935852  1.0000
  H   H4        1.0  0.005161225259143987  0.5624731149446588  0.7453334218184436  1.0000
  H   H5        1.0  0.5577119348631357  0.7528001718266352  0.13444922800474762  1.0000
  H   H6        1.0  0.44229562728651234  0.2472032043767243  0.8655486304263745  1.0000
  H   H7        1.0  0.6766170888453901  0.5588190528519587  0.06252114239502049  1.0000
  H   H8        1.0  0.32337793156268196  0.441184292784385  0.9374826483672861  1.0000
  H   H9        1.0  0.8715071953472846  0.7776893022863618  0.9313246386905121  1.0000
  H   H10       1.0  0.1284995985865365  0.22229345626753624  0.0686741312197015  1.0000
  H   H11       1.0  0.7291260467596957  0.9642625787300573  0.9982904770749456  1.0000
  H   H12       1.0  0.2708885342804663  0.035736665975292695  0.0017074200503088951  1.0000
  C   C1        1.0  0.04657354097200539  0.8793869027481233  0.28042862497964893  1.0000
  C   C2        1.0  0.953432385452132  0.12062058253607691  0.7195711854538941  1.0000
  C   C3        1.0  0.04883633257772151  0.5809222096063493  0.2826188687643381  1.0000
  C   C4        1.0  0.9511569914632716  0.4190839117704074  0.7173816802410469  1.0000
  C   C5        1.0  0.7037621397414783  0.7058261042998312  0.0935067138102994  1.0000
  C   C6        1.0  0.2962382969262194  0.29417867256037067  0.9064889072775415  1.0000
  C   C7        1.0  0.7179487204042732  0.8161274162098805  0.968752304704445  1.0000
  C   C8        1.0  0.28206042601162556  0.18387047747201274  0.03124352600837452  1.0000
  S   S1        1.0  0.45232684582870075  0.7769942891307976  0.8163363072935113  1.0000
  S   S2        1.0  0.5476752320738996  0.223006354588442  0.18366043261797668  1.0000
  N   N1        1.0  0.2362607562512622  0.8346514534367909  0.38554604333629766  1.0000
  N   N2        1.0  0.7637431264462933  0.1653491373631653  0.6144571605899571  1.0000
  N   N3        1.0  0.23717560173221844  0.6466983409386556  0.38729432584872814  1.0000
  N   N4        1.0  0.7628211003512179  0.3533022931176006  0.6127045178009707  1.0000
  N   N5        1.0  0.927322206812825  0.7228249160692924  0.2131255756872008  1.0000
  N   N6        1.0  0.07267460737143241  0.27717842476800314  0.7868785374377224  1.0000
  Cl  Cl1       1.0  0.7589663670704924  0.7513569284728733  0.514190435134708  1.0000
  Cl  Cl2       1.0  0.24103756708631616  0.24864503576770863  0.4858128445074356  1.0000
  O   O1        1.0  0.445658902375051  0.9355697022334651  0.7293151128619755  1.0000
  O   O2        1.0  0.5543390274328175  0.0644158191768582  0.2706832202755932  1.0000
  O   O3        1.0  0.24806107256347334  0.7722891434814442  0.8764423999547333  1.0000
  O   O4        1.0  0.751940759061654  0.22770458491442722  0.1235601030294688  1.0000
  O   O5        1.0  0.4816693721007115  0.5994093233801794  0.7453442711416756  1.0000
  O   O6        1.0  0.518330507697556  0.40058030553294083  0.2546556351148652  1.0000
