data_image0
_chemical_formula_structural       Cd2H24C38S4N16
_chemical_formula_sum              "Cd2 H24 C38 S4 N16"
_cell_length_a       8.776141964389959
_cell_length_b       9.914806593383872
_cell_length_c       12.204447030987808
_cell_angle_alpha    73.33997283359042
_cell_angle_beta     75.13152509763543
_cell_angle_gamma    79.80862861095841

_space_group_name_H-M_alt    "P 1"
_space_group_IT_number       1

loop_
  _space_group_symop_operation_xyz
  'x, y, z'

loop_
  _atom_site_type_symbol
  _atom_site_label
  _atom_site_symmetry_multiplicity
  _atom_site_fract_x
  _atom_site_fract_y
  _atom_site_fract_z
  _atom_site_occupancy
  Cd  Cd1       1.0  0.636005297301196  0.8057489927269899  0.6845306370341858  1.0000
  Cd  Cd2       1.0  0.36399376325903193  0.19425178318373074  0.31547352560706793  1.0000
  H   H1        1.0  0.9092756132352164  0.9226940111168815  0.442212940143392  1.0000
  H   H2        1.0  0.09073114348192492  0.0773014448281302  0.5577844755112764  1.0000
  H   H3        1.0  0.16895542015620185  0.8406640791458243  0.3213341588914602  1.0000
  H   H4        1.0  0.8310505955449303  0.15932821718031684  0.6786674249176985  1.0000
  H   H5        1.0  0.3113170205740233  0.6044764373233062  0.4057634647130186  1.0000
  H   H6        1.0  0.6886854456308599  0.3955158374252647  0.59423715659954  1.0000
  H   H7        1.0  0.18860809304308654  0.4595904873892636  0.6010661824530033  1.0000
  H   H8        1.0  0.8113918869270124  0.5404028452307584  0.39893547714068933  1.0000
  H   H9        1.0  0.059188930486627114  0.27202802418266003  0.03899810913038238  1.0000
  H   H10       1.0  0.940810346327922  0.7279705888313117  0.9609999710988504  1.0000
  H   H11       1.0  0.008189614895194104  0.12910394142711112  0.2435592579020422  1.0000
  H   H12       1.0  0.9918087703797273  0.8708925603256151  0.7564411311499909  1.0000
  H   H13       1.0  0.7267019975317484  0.09768252393723743  0.3536346992324012  1.0000
  H   H14       1.0  0.27329377218300277  0.9023161005899352  0.6463673190379353  1.0000
  H   H15       1.0  0.5520741348904323  0.3250853736754067  0.06111517480312761  1.0000
  H   H16       1.0  0.44792226064708973  0.6749174864038708  0.9388848997624418  1.0000
  H   H17       1.0  0.441468013868537  0.46088478159544605  0.8370537596869668  1.0000
  H   H18       1.0  0.5585293085389794  0.5391202173207148  0.16294808983722217  1.0000
  H   H19       1.0  0.5377008994476852  0.21359099096189033  0.8205132028324583  1.0000
  H   H20       1.0  0.4623031926407962  0.7864161257641269  0.17948358599642236  1.0000
  H   H21       1.0  0.34619016565710586  0.0649967328066126  0.8026665811281929  1.0000
  H   H22       1.0  0.6538206158554376  0.935004028625684  0.19732799398662598  1.0000
  H   H23       1.0  0.0602300935575713  0.16969778623345627  0.8079574128559202  1.0000
  H   H24       1.0  0.9397748098136277  0.830302968650237  0.19203991413140636  1.0000
  C   C1        1.0  0.9756120672210928  0.8208466943690739  0.47397640667679036  1.0000
  C   C2        1.0  0.024392189129109513  0.17914980841712952  0.5260204137464513  1.0000
  C   C3        1.0  0.11981681629898594  0.7751172386773459  0.40747587066475427  1.0000
  C   C4        1.0  0.8801876047069755  0.22487822678149166  0.5925244426027447  1.0000
  C   C5        1.0  0.19792435900204453  0.6440061321900431  0.4542645097799748  1.0000
  C   C6        1.0  0.8020799397446087  0.35599040368691703  0.5457372111809634  1.0000
  C   C7        1.0  0.13009553873763485  0.5630425846826553  0.5643144732849166  1.0000
  C   C8        1.0  0.8699044129681611  0.4369507258768692  0.43568391928364036  1.0000
  C   C9        1.0  0.9848399372766182  0.6166018938758597  0.6248931977170713  1.0000
  C   C10       1.0  0.015160532124781412  0.383396733684144  0.37510629235274  1.0000
  C   C11       1.0  0.8962464655583414  0.5405512737573941  0.7382066900739092  1.0000
  C   C12       1.0  0.10375269606296914  0.4594484151898257  0.26179361460505385  1.0000
  C   C13       1.0  0.8173823113805271  0.40717395153225067  0.9155105819346686  1.0000
  C   C14       1.0  0.1826165915900049  0.5928278672209615  0.08449090461861893  1.0000
  C   C15       1.0  0.808811758341875  0.3122417892777491  0.03242600218487015  1.0000
  C   C16       1.0  0.19118268946063927  0.6877578856063805  0.9675751971820432  1.0000
  C   C17       1.0  0.9379167949151749  0.25420160049883117  0.08503294342190779  1.0000
  C   C18       1.0  0.062081037727821815  0.7457991332902338  0.9149657255973551  1.0000
  C   C19       1.0  0.9093899959726175  0.17414160580606358  0.20101982212793246  1.0000
  C   C20       1.0  0.09060680167321784  0.8258580705944922  0.7989801131387252  1.0000
  C   C21       1.0  0.7545688863582996  0.15618453925751644  0.26189220970635313  1.0000
  C   C22       1.0  0.24542687629037377  0.8438140797545228  0.7381089918076996  1.0000
  C   C23       1.0  0.65580759411246  0.2840982971690097  0.0991974752888822  1.0000
  C   C24       1.0  0.3441864586478117  0.7159045669089821  0.9008046801332339  1.0000
  C   C25       1.0  0.11079360080334771  0.36935984205582884  0.8218767718912899  1.0000
  C   C26       1.0  0.889206609947273  0.6306409153101526  0.17812390005284576  1.0000
  C   C27       1.0  0.3611448148638702  0.39424450964464347  0.828041860239928  1.0000
  C   C28       1.0  0.6388539446491212  0.6057583629813053  0.1719585837379539  1.0000
  C   C29       1.0  0.4149645747857846  0.25627951252323566  0.8180135316911289  1.0000
  C   C30       1.0  0.5850374473083804  0.7437254894257563  0.1819857896325416  1.0000
  C   C31       1.0  0.3078491703142774  0.17328406103672478  0.8095779806367673  1.0000
  C   C32       1.0  0.6921578242494634  0.8267188251693722  0.19041926412462834  1.0000
  C   C33       1.0  0.15027536935590297  0.23069683472606065  0.811206098283641  1.0000
  C   C34       1.0  0.8497283626266711  0.7693039221569861  0.18879226913195882  1.0000
  C   C35       1.0  0.45765025350339544  0.8583038574383365  0.46042139913527075  1.0000
  C   C36       1.0  0.5423363542906046  0.14169261467180413  0.5395820433929329  1.0000
  C   C37       1.0  0.7198720825231606  0.9489243895790976  0.8749520139064658  1.0000
  C   C38       1.0  0.2801344958001124  0.05108166927546879  0.125043736641274  1.0000
  S   S1        1.0  0.5526944216157332  0.7087980103415816  0.5171381573402911  1.0000
  S   S2        1.0  0.4472942985690482  0.29120060963633415  0.4828676532308264  1.0000
  S   S3        1.0  0.7690598790846652  0.06512555986808619  0.9253347931843904  1.0000
  S   S4        1.0  0.23094097162087485  0.9348794440802592  0.07466556856755346  1.0000
  N   N1        1.0  0.9096508142911762  0.7446733918326416  0.5799617782597933  1.0000
  N   N2        1.0  0.09035199082139664  0.2553252262135217  0.42003481419719435  1.0000
  N   N3        1.0  0.7407307562351876  0.5714452259126402  0.7736585639971452  1.0000
  N   N4        1.0  0.25927075522944426  0.4285544645509989  0.22634047658155498  1.0000
  N   N5        1.0  0.6911468953068366  0.4903286150078543  0.883331600254273  1.0000
  N   N6        1.0  0.30885435044094584  0.5096731997466435  0.11666780544246787  1.0000
  N   N7        1.0  0.9494117244415607  0.4345530981891201  0.8250402456532838  1.0000
  N   N8        1.0  0.05058953543836964  0.5654487275956299  0.17496079355602487  1.0000
  N   N9        1.0  0.6297260898372485  0.2101658448563484  0.21120175239158095  1.0000
  N   N10       1.0  0.370270456223885  0.7898359668653185  0.7888001815056782  1.0000
  N   N11       1.0  0.21021798748301998  0.4514986282100111  0.8298076964202963  1.0000
  N   N12       1.0  0.7897772437319476  0.548504239383746  0.17019423532983077  1.0000
  N   N13       1.0  0.3830371412630669  0.9658190782419352  0.42246173169603185  1.0000
  N   N14       1.0  0.6169537853074946  0.0341805971251432  0.5775417721994173  1.0000
  N   N15       1.0  0.6878096999523892  0.8606474703490861  0.8386010168733051  1.0000
  N   N16       1.0  0.31218955605798016  0.1393607027319632  0.16139807433697234  1.0000
