data_image0
_chemical_formula_structural       Al6H20C66O28
_chemical_formula_sum              "Al6 H20 C66 O28"
_cell_length_a       12.760161972732016
_cell_length_b       12.742693459275468
_cell_length_c       26.871410018970256
_cell_angle_alpha    83.06032373181762
_cell_angle_beta     83.03636387015317
_cell_angle_gamma    62.533956688083464

_space_group_name_H-M_alt    "P 1"
_space_group_IT_number       1

loop_
  _space_group_symop_operation_xyz
  'x, y, z'

loop_
  _atom_site_type_symbol
  _atom_site_label
  _atom_site_symmetry_multiplicity
  _atom_site_fract_x
  _atom_site_fract_y
  _atom_site_fract_z
  _atom_site_occupancy
  Al  Al1       1.0  0.4081036888465163  0.4042508845641207  0.5102672710542819  1.0000
  Al  Al2       1.0  0.6524543273528141  0.4237560037645307  0.4959202854748739  1.0000
  Al  Al3       1.0  0.4246120747448072  0.6502518960526515  0.49760519953476023  1.0000
  Al  Al4       1.0  0.9288393229444195  0.931755847228132  0.978667488420875  1.0000
  Al  Al5       1.0  0.9146733619492479  0.6843246826259275  0.9956107671102856  1.0000
  Al  Al6       1.0  0.6861542778796447  0.909972697138052  0.9932023766268187  1.0000
  H   H1        1.0  0.2066659892505811  0.8339603606552757  0.2013691390742167  1.0000
  H   H2        1.0  0.8569448763905428  0.1444607378451153  0.2621048756668287  1.0000
  H   H3        1.0  0.8116869849636219  0.9685336597735413  0.22702218700487717  1.0000
  H   H4        1.0  0.5032506482404385  0.8369762478860563  0.7758576562409301  1.0000
  H   H5        1.0  0.6662120659744772  0.8368588544259551  0.6941526067555445  1.0000
  H   H6        1.0  0.4959603098031378  0.6416843966812067  0.7387782697191979  1.0000
  H   H7        1.0  0.6866036918641  0.4838301131875795  0.7968995529194132  1.0000
  H   H8        1.0  0.8494450418016373  0.48376392862959244  0.7152414373579886  1.0000
  H   H9        1.0  0.8567307382405007  0.6791038776739882  0.752275558158594  1.0000
  H   H10       1.0  0.03209012545924849  0.8659159039965161  0.2825472752993079  1.0000
  H   H11       1.0  0.3707727244138255  0.6314578172121513  0.25614120816612734  1.0000
  H   H12       1.0  0.2985932920120859  0.48686368587461  0.21094109417451526  1.0000
  H   H13       1.0  0.12414045243392735  0.5187095369954378  0.2922511089503601  1.0000
  H   H14       1.0  0.9598752397178107  0.7212913871973183  0.2373971602751865  1.0000
  H   H15       1.0  0.6139246195910532  0.0266742418817074  0.2989167696184012  1.0000
  H   H16       1.0  0.5118865178497317  0.3711540008772544  0.2618052258986053  1.0000
  H   H17       1.0  0.7095455212013632  0.3132762309947239  0.18986463311662047  1.0000
  H   H18       1.0  0.4667289707198351  0.19535108361503714  0.2267442829708841  1.0000
  H   H19       1.0  0.3307735216722206  0.2790570040437643  0.5507410456830542  1.0000
  H   H20       1.0  0.0531305361452823  0.010819623235534002  0.9945376236521639  1.0000
  C   C1        1.0  0.6161499898059118  0.2858563949177508  0.4354134509017413  1.0000
  C   C2        1.0  0.6574149014899007  0.6665621465278377  0.2686751687520399  1.0000
  C   C3        1.0  0.642827250937934  0.6521101571060227  0.3189290588646827  1.0000
  C   C4        1.0  0.6293201052848545  0.6377771184161672  0.36484193307872903  1.0000
  C   C5        1.0  0.09106664195079629  0.7819849270557312  0.2661182002127944  1.0000
  C   C6        1.0  0.18837237526498282  0.7641129168506495  0.2220006786075288  1.0000
  C   C7        1.0  0.10091788074711158  0.7010526069971873  0.1027004672502088  1.0000
  C   C8        1.0  0.23190617623394164  0.6444171220454392  0.3908897557986251  1.0000
  C   C9        1.0  0.05123957375433009  0.701323709232419  0.242298618233086  1.0000
  C   C10       1.0  0.14836101745839156  0.6837422434778729  0.1967452126058333  1.0000
  C   C11       1.0  0.14226520013890098  0.5885520906854751  0.2715285493236549  1.0000
  C   C12       1.0  0.6056678697506045  0.6103149542124909  0.41733780402253023  1.0000
  C   C13       1.0  0.18228291974171643  0.6689139101371282  0.2967811690100604  1.0000
  C   C14       1.0  0.23960933062908657  0.5707003226730263  0.22744334301454924  1.0000
  C   C15       1.0  0.27940858032663124  0.6513740085150416  0.2512515683880848  1.0000
  C   C16       1.0  0.12549579253155227  0.6920223529851767  0.1459677946434752  1.0000
  C   C17       1.0  0.2057725562397437  0.6585622040249673  0.3475960713622115  1.0000
  C   C18       1.0  0.63513279671173  0.08999710210888169  0.2741518857450131  1.0000
  C   C19       1.0  0.5533045735380212  0.18417572649469344  0.23495504455463842  1.0000
  C   C20       1.0  0.6862367417836668  0.10293602829401749  0.10072961196135569  1.0000
  C   C21       1.0  0.6456214742507244  0.23557958304999  0.38770201345863603  1.0000
  C   C22       1.0  0.7452962006253259  0.05810120158608359  0.2355017947966616  1.0000
  C   C23       1.0  0.2839764647963605  0.6136419240704143  0.43817223603501526  1.0000
  C   C24       1.0  0.6631635858764398  0.15201249550952406  0.19489378925277379  1.0000
  C   C25       1.0  0.7704762247510928  0.15557989140837947  0.25377827257023  1.0000
  C   C26       1.0  0.6607497381191293  0.187726201075769  0.293855032475534  1.0000
  C   C27       1.0  0.6885654300421112  0.2498353324955431  0.21465112405547157  1.0000
  C   C28       1.0  0.5784228838351596  0.28164516510875603  0.25331271065707023  1.0000
  C   C29       1.0  0.6717229592195508  0.1285711762068544  0.144150038066428  1.0000
  C   C30       1.0  0.6547823840795886  0.21079933233104947  0.3444518064811035  1.0000
  C   C31       1.0  0.6707141894138006  0.7586534777340218  0.7175009016596687  1.0000
  C   C32       1.0  0.5800043841540726  0.7585190539927069  0.7620648610769861  1.0000
  C   C33       1.0  0.7085383345690276  0.6923480275233799  0.8890445388808815  1.0000
  C   C34       1.0  0.6143420653623297  0.2856621934596574  0.5772129507379944  1.0000
  C   C35       1.0  0.6403114808497747  0.631940697928151  0.60209168776975  1.0000
  C   C36       1.0  0.7765153513642745  0.6706271490563722  0.7487969689284171  1.0000
  C   C37       1.0  0.6855336282136619  0.6711911493832261  0.7951178066955435  1.0000
  C   C38       1.0  0.7726579145284378  0.5622559323581626  0.7289862039177706  1.0000
  C   C39       1.0  0.6670499704059268  0.649620100190745  0.6959529350102613  1.0000
  C   C40       1.0  0.6819638014020271  0.5620992593649419  0.773567255955406  1.0000
  C   C41       1.0  0.5761703323268534  0.6501521959649708  0.7422699640254463  1.0000
  C   C42       1.0  0.6976668431558295  0.6815203572610357  0.8456571291313677  1.0000
  C   C43       1.0  0.6536318398472503  0.6404479360962441  0.645445125976174  1.0000
  C   C44       1.0  0.09945360549772896  0.6931875328989817  0.8633980604500806  1.0000
  C   C45       1.0  0.6137885732606634  0.6097408324916032  0.5554698963893187  1.0000
  C   C46       1.0  0.12754272556119153  0.6802054097480051  0.8184424846812418  1.0000
  C   C47       1.0  0.15620742473019789  0.667981521038115  0.7691573597709365  1.0000
  C   C48       1.0  0.18068440603188657  0.6589095110973844  0.7235361966739831  1.0000
  C   C49       1.0  0.21007176808798536  0.6472770548732072  0.6742556397062316  1.0000
  C   C50       1.0  0.239127943530363  0.6354193380026274  0.6292952392752298  1.0000
  C   C51       1.0  0.699227596570566  0.09840943784123367  0.8618200996143983  1.0000
  C   C52       1.0  0.6876592012983593  0.1267539786475567  0.8168114384172539  1.0000
  C   C53       1.0  0.6760386072708686  0.15525465830259577  0.7674733672516537  1.0000
  C   C54       1.0  0.6665485350478736  0.17904248811026238  0.7218524519837929  1.0000
  C   C55       1.0  0.654455685337254  0.207115735436183  0.6725196121771262  1.0000
  C   C56       1.0  0.29084516714011244  0.6076738859079497  0.5790946642079646  1.0000
  C   C57       1.0  0.6422087190023333  0.23471195614904863  0.6274926395402004  1.0000
  C   C58       1.0  0.0515656134436141  0.7259596073122269  0.0549936192052201  1.0000
  C   C59       1.0  0.7274725412041857  0.7292937619068384  0.0737456356525641  1.0000
  C   C60       1.0  0.7195304928778867  0.05157125427175659  0.05319197494443269  1.0000
  C   C61       1.0  0.04858515960907537  0.7239708102199813  0.9134403284801422  1.0000
  C   C62       1.0  0.7313329696811549  0.7182863650490886  0.9356693504223516  1.0000
  C   C63       1.0  0.7253856454858864  0.04691979750027289  0.9121561538260818  1.0000
  C   C64       1.0  0.700712261255518  0.7046197391698569  0.1261911707593342  1.0000
  C   C65       1.0  0.6856748046010424  0.6918633287186892  0.17210224418357709  1.0000
  C   C66       1.0  0.670396171402352  0.6783796150513196  0.2223649911208483  1.0000
  O   O1        1.0  0.3073857358174338  0.511906052058066  0.4590869184572171  1.0000
  O   O2        1.0  0.6880360397550831  0.5140597086855863  0.5352863502842524  1.0000
  O   O3        1.0  0.5148962118871837  0.6840148069424145  0.5378529615183821  1.0000
  O   O4        1.0  0.313623498315046  0.6871972294634432  0.5526872723079777  1.0000
  O   O5        1.0  0.4962332730942905  0.4938368187490737  0.5015140180831708  1.0000
  O   O6        1.0  0.8229242875163791  0.026118949348884292  0.03393026372918229  1.0000
  O   O7        1.0  0.031057100681365975  0.8247859261391141  0.0314882862659118  1.0000
  O   O8        1.0  0.027574899805799236  0.6464462859609696  0.04083051776855479  1.0000
  O   O9        1.0  0.8252961956548291  0.6543020888457604  0.05354400713790143  1.0000
  O   O10       1.0  0.6535390104044367  0.8266760577017463  0.052766195860762394  1.0000
  O   O11       1.0  0.6419837245807616  0.031079467154142993  0.03484548946538269  1.0000
  O   O12       1.0  0.513891523857147  0.3107755693151261  0.4558430895740244  1.0000
  O   O13       1.0  0.8222320272392452  0.030977359412595697  0.9267396026177863  1.0000
  O   O14       1.0  0.023068118189904393  0.8270808881473856  0.9240866270966848  1.0000
  O   O15       1.0  0.029907722050339192  0.6445255430280382  0.9420892975658575  1.0000
  O   O16       1.0  0.8290194982016459  0.645978435628386  0.9547556110769121  1.0000
  O   O17       1.0  0.65510960320011  0.8152184251412746  0.9544054107948623  1.0000
  O   O18       1.0  0.6485241024700913  0.0177427282555058  0.9368828961482834  1.0000
  O   O19       1.0  0.8422992711221865  0.8406814693674604  0.9894016592399878  1.0000
  O   O20       1.0  0.6952128727607273  0.3058635766103066  0.4527290212756867  1.0000
  O   O21       1.0  0.6806821628232881  0.5115659426446938  0.43687022588994046  1.0000
  O   O22       1.0  0.5094123773482763  0.6843456947539437  0.438978347166497  1.0000
  O   O23       1.0  0.3070478427928266  0.6917149726643428  0.45444309570243036  1.0000
  O   O24       1.0  0.313133755237871  0.50714332492214  0.5661982728093804  1.0000
  O   O25       1.0  0.5158212406807081  0.3032283844477702  0.5637261023074486  1.0000
  O   O26       1.0  0.6912359377177566  0.31286574997115213  0.5512835133233907  1.0000
  O   O27       1.0  0.327872500957703  0.32265436462416364  0.518477485243082  1.0000
  O   O28       1.0  0.007978402246294498  0.014438920078141798  0.9674184262095623  1.0000
