data_image0
_chemical_formula_structural       Na2Zn2H34C46N4O18
_chemical_formula_sum              "Na2 Zn2 H34 C46 N4 O18"
_cell_length_a       8.984791598948075
_cell_length_b       10.429203332232982
_cell_length_c       12.4911
_cell_angle_alpha    97.86703827914516
_cell_angle_beta     98.23072553026333
_cell_angle_gamma    96.69062944246764

_space_group_name_H-M_alt    "P 1"
_space_group_IT_number       1

loop_
  _space_group_symop_operation_xyz
  'x, y, z'

loop_
  _atom_site_type_symbol
  _atom_site_label
  _atom_site_symmetry_multiplicity
  _atom_site_fract_x
  _atom_site_fract_y
  _atom_site_fract_z
  _atom_site_occupancy
  Na  Na1       1.0  0.6457531923053493  0.08828161242163189  0.9762949598655764  1.0000
  Na  Na2       1.0  0.3542522377433457  0.9117194308771985  0.02370123532597998  1.0000
  Zn  Zn1       1.0  0.6909382638528072  0.2978982720946846  0.20670991724418286  1.0000
  Zn  Zn2       1.0  0.3090626678941106  0.7021027712041388  0.7932890170187363  1.0000
  H   H1        1.0  0.4852757068975251  0.074312316192291  0.3009607733702069  1.0000
  H   H2        1.0  0.5147238060243637  0.9256799303204913  0.6990402117659612  1.0000
  H   H3        1.0  0.3744594264694782  0.0616117119938622  0.4743259225441817  1.0000
  H   H4        1.0  0.6255379949487434  0.9383815119395962  0.5256749589217476  1.0000
  H   H5        1.0  0.4505875171071452  0.24511169133890578  0.6310427559198429  1.0000
  H   H6        1.0  0.5494099043110764  0.7548815325945455  0.36895652440607307  1.0000
  H   H7        1.0  0.5979563514753252  0.47122721193773737  0.703247220367025  1.0000
  H   H8        1.0  0.4020415639294369  0.5287621023130313  0.2967540657347314  1.0000
  H   H9        1.0  0.7942016483394951  0.6489760480548696  0.680458824838098  1.0000
  H   H10       1.0  0.20579287229407578  0.35102010814060236  0.3195428935935993  1.0000
  H   H11       1.0  0.9656023874464948  0.747111038260428  0.5641482536628074  1.0000
  H   H12       1.0  0.034388444166289396  0.2528831630936992  0.4358520609242262  1.0000
  H   H13       1.0  0.04879567866289137  0.739574147466669  0.3780605060963963  1.0000
  H   H14       1.0  0.9511948166105809  0.2604249409908093  0.6219403323589034  1.0000
  H   H15       1.0  0.0839157944896485  0.5470701689007526  0.10429641212584066  1.0000
  H   H16       1.0  0.916087050068846  0.4529357615014291  0.8957104827397302  1.0000
  H   H17       1.0  0.27336064787172626  0.5125984966773913  0.13648230703040548  1.0000
  H   H18       1.0  0.7266413874057703  0.487409388566128  0.8635191239111322  1.0000
  H   H19       1.0  0.3138694740140124  0.9133067620468295  0.3142451563614513  1.0000
  H   H20       1.0  0.6861340011333823  0.0867030780380276  0.685759848530445  1.0000
  H   H21       1.0  0.1628757904660034  0.10232128293927188  0.3176776770430862  1.0000
  H   H22       1.0  0.8371265601059433  0.8976885571455853  0.6823184057765841  1.0000
  H   H23       1.0  0.9937137510818487  0.7081373664266337  0.03891299334857475  1.0000
  H   H24       1.0  0.006287495959526299  0.2918656317135273  0.9610926013425709  1.0000
  H   H25       1.0  0.7667708499351278  0.6886691015024908  0.9998909370526048  1.0000
  H   H26       1.0  0.2332315216816809  0.3113338966376773  0.0001139728707002935  1.0000
  H   H27       1.0  0.8400251255728436  0.7616110739140963  0.8926952755454068  1.0000
  H   H28       1.0  0.15998464513040025  0.23838899196405808  0.10731006119078049  1.0000
  H   H29       1.0  0.9295624991771803  0.5551563701115896  0.22910724016201556  1.0000
  H   H30       1.0  0.07043136982262149  0.444842718345889  0.7708931451297686  1.0000
  H   H31       1.0  0.3620978208581533  0.03521939903664159  0.8222164119945743  1.0000
  H   H32       1.0  0.6379116135057713  0.964785553944864  0.17778144290982567  1.0000
  H   H33       1.0  0.40225971811085504  0.18691801943138836  0.8330495261624262  1.0000
  H   H34       1.0  0.5977476247494096  0.8130879109707863  0.1669506267817482  1.0000
  C   C1        1.0  0.513532806232206  0.1534765485952221  0.37033035998467767  1.0000
  C   C2        1.0  0.4864665490424541  0.8465147204968915  0.6296696966473974  1.0000
  C   C3        1.0  0.45251493148537486  0.14716241106083316  0.4675933516333399  1.0000
  C   C4        1.0  0.5474836145082875  0.8528308128726251  0.5324052439247353  1.0000
  C   C5        1.0  0.4936198232771787  0.24915137097197965  0.5539724700821225  1.0000
  C   C6        1.0  0.5063771251993714  0.7508389206994649  0.44602802758154775  1.0000
  C   C7        1.0  0.5951310477254521  0.3586342151673634  0.5426112553572934  1.0000
  C   C8        1.0  0.4048667100320884  0.6413541216627365  0.4573883016703633  1.0000
  C   C9        1.0  0.6450490305699643  0.4683682564751875  0.6274166119853104  1.0000
  C   C10       1.0  0.35494566875569694  0.5316220351962571  0.3725844546440413  1.0000
  C   C11       1.0  0.7504561876550894  0.5680573455475724  0.614283788325956  1.0000
  C   C12       1.0  0.2495386693177934  0.43193392354454113  0.38571740623748235  1.0000
  C   C13       1.0  0.8086318716448346  0.568491320325478  0.5133438031909562  1.0000
  C   C14       1.0  0.19136233369428626  0.4315028810286492  0.48665685880256854  1.0000
  C   C15       1.0  0.9182911082120242  0.6691011396699054  0.49621402303405654  1.0000
  C   C16       1.0  0.08170244549332749  0.3308959939462355  0.5037861063895548  1.0000
  C   C17       1.0  0.9646256733805526  0.6641495265508296  0.39505799192198043  1.0000
  C   C18       1.0  0.035367880324791705  0.335847607065311  0.6049437386416442  1.0000
  C   C19       1.0  0.7544305262027676  0.4650821681794284  0.4249966626811669  1.0000
  C   C20       1.0  0.24556433077012227  0.5349091009126923  0.5750045318822714  1.0000
  C   C21       1.0  0.6500025066514326  0.3566334350539151  0.44128654105277576  1.0000
  C   C22       1.0  0.3499933172496696  0.6433568566175296  0.558714641378735  1.0000
  C   C23       1.0  0.2270919286640449  0.5842033576111305  0.985295614632271  1.0000
  C   C24       1.0  0.7729035378528833  0.4157986631083617  0.014705270263938483  1.0000
  C   C25       1.0  0.20418309051986228  0.5831428561831444  0.10434913421207168  1.0000
  C   C26       1.0  0.7958166956067458  0.41686502906038203  0.895654466835161  1.0000
  C   C27       1.0  0.16117862731075414  0.7992906407795388  0.17747838181855258  1.0000
  C   C28       1.0  0.8388214951551659  0.2007123573606222  0.8225206925103804  1.0000
  C   C29       1.0  0.20985832064427964  0.9106344939324343  0.25704762909539614  1.0000
  C   C30       1.0  0.7901469307123179  0.0893724138904162  0.7429516196085328  1.0000
  C   C31       1.0  0.12536011661187976  0.013737647530319898  0.25814108549421627  1.0000
  C   C32       1.0  0.8746430432410647  0.9862702377131994  0.7418540566894334  1.0000
  C   C33       1.0  0.9901290913655811  0.0102844202998256  0.18502088633758257  1.0000
  C   C34       1.0  0.00987022181934801  0.9897205326816874  0.8149743252073307  1.0000
  C   C35       1.0  0.9433703327155242  0.8972741307810992  0.10493735237120207  1.0000
  C   C36       1.0  0.0566337940656396  0.10273277704174429  0.895061780530561  1.0000
  C   C37       1.0  0.029827920963313704  0.7935365652896067  0.10104515593901196  1.0000
  C   C38       1.0  0.9701750812424023  0.2064703425332439  0.8989546617305919  1.0000
  C   C39       1.0  0.9081988919977917  0.1268819095591169  0.1990539721421882  1.0000
  C   C40       1.0  0.09180620171158438  0.8731240208430647  0.800941145777628  1.0000
  C   C41       1.0  0.7650669404529677  0.7726090113037216  0.9551368358918779  1.0000
  C   C42       1.0  0.23494008711284659  0.2273949642571154  0.04486706403415041  1.0000
  C   C43       1.0  0.6040088800532004  0.7730986990598723  0.8995417710508276  1.0000
  C   C44       1.0  0.39599751692371393  0.22690136681828219  0.10045361143880167  1.0000
  C   C45       1.0  0.9010862349078436  0.559885131317685  0.31114184068319156  1.0000
  C   C46       1.0  0.09890650951651028  0.44011395713979334  0.6888592293764402  1.0000
  N   N1        1.0  0.6096407989313093  0.2553755858046429  0.3579455524746392  1.0000
  N   N2        1.0  0.39035758941513876  0.7446166607081464  0.642054516289363  1.0000
  N   N3        1.0  0.7983964095929322  0.4630569525492021  0.32513200496556033  1.0000
  N   N4        1.0  0.2016003601915273  0.5369392036462699  0.6748691445004694  1.0000
  O   O1        1.0  0.7607696759057416  0.110255006525442  0.1753685394893623  1.0000
  O   O2        1.0  0.2392349448619626  0.8897479916147262  0.8246325991882414  1.0000
  O   O3        1.0  0.5371883014455747  0.6650575503541489  0.8428856936060568  1.0000
  O   O4        1.0  0.46281634036699154  0.3349386058413231  0.15711306419508728  1.0000
  O   O5        1.0  0.5436696421129595  0.8763524413192414  0.9118162824517312  1.0000
  O   O6        1.0  0.4563367548639548  0.1236476245589131  0.0881734960478582  1.0000
  O   O7        1.0  0.8155951905438953  0.8936430129884911  0.030017172944894793  1.0000
  O   O8        1.0  0.1844105547992498  0.106359985151677  0.9699832809648611  1.0000
  O   O9        1.0  0.9828920574624574  0.23735292605284283  0.23648634753180886  1.0000
  O   O10       1.0  0.017109010886819893  0.7626559366113526  0.7635078904116026  1.0000
  O   O11       1.0  0.251256177582647  0.7026051654290129  0.17922164012748  1.0000
  O   O12       1.0  0.7487468246230691  0.2974017423938378  0.8207797786821374  1.0000
  O   O13       1.0  0.2723595126730274  0.6927224650249497  0.9550225608040248  1.0000
  O   O14       1.0  0.7276390122757732  0.3072776008531974  0.04497601392048272  1.0000
  O   O15       1.0  0.196476640881464  0.4748348716342505  0.9258355128330464  1.0000
  O   O16       1.0  0.80351223583002  0.5251681265059176  0.0741680074642872  1.0000
  O   O17       1.0  0.444426786978191  0.10601691049616589  0.8175490471335891  1.0000
  O   O18       1.0  0.5555795889538544  0.8939899973266847  0.18244551395246586  1.0000
