data_image0
_chemical_formula_structural       H24Pb3C28N4Cl6
_chemical_formula_sum              "H24 Pb3 C28 N4 Cl6"
_cell_length_a       7.347010626935079
_cell_length_b       10.384442467970414
_cell_length_c       10.805903676626114
_cell_angle_alpha    78.96840776704249
_cell_angle_beta     76.22166605613008
_cell_angle_gamma    87.32606897142249

_space_group_name_H-M_alt    "P 1"
_space_group_IT_number       1

loop_
  _space_group_symop_operation_xyz
  'x, y, z'

loop_
  _atom_site_type_symbol
  _atom_site_label
  _atom_site_symmetry_multiplicity
  _atom_site_fract_x
  _atom_site_fract_y
  _atom_site_fract_z
  _atom_site_occupancy
  H   H1        1.0  0.3357123531570211  0.5043810056156559  0.13083958835412793  1.0000
  H   H2        1.0  0.6642902064342737  0.495621431930779  0.8691605782914775  1.0000
  H   H3        1.0  0.3104257572694565  0.4907938234661486  0.9731133315451782  1.0000
  H   H4        1.0  0.6895768105863241  0.509206651877186  0.02688720080861623  1.0000
  H   H5        1.0  0.11169049470025534  0.5201908751251666  0.09610680493747026  1.0000
  H   H6        1.0  0.8883106758778114  0.47980861734617253  0.9038941409390872  1.0000
  H   H7        1.0  0.46539064818600206  0.6739590206132036  0.8216878209079963  1.0000
  H   H8        1.0  0.5346077051350377  0.3260414428084601  0.17831155551898087  1.0000
  H   H9        1.0  0.5043669536674571  0.916761885032365  0.7539915391061311  1.0000
  H   H10       1.0  0.4956299838065092  0.0832395511100614  0.24600603720258354  1.0000
  H   H11       1.0  0.4217315558414542  0.14002529187933987  0.8011677618921736  1.0000
  H   H12       1.0  0.5782653857647518  0.8599751631615362  0.19882999727063563  1.0000
  H   H13       1.0  0.25164819686251866  0.2813092687701798  0.9501430197474645  1.0000
  H   H14       1.0  0.7483501667634017  0.7186912012618195  0.04985820461235581  1.0000
  H   H15       1.0  0.043924502145259205  0.3035348391465504  0.16623402840747292  1.0000
  H   H16       1.0  0.9560766622601663  0.696463665612903  0.8337652523903357  1.0000
  H   H17       1.0  0.8401691282284034  0.19690573852594176  0.375489117585559  1.0000
  H   H18       1.0  0.15983344891206036  0.8030937590210174  0.624512521588748  1.0000
  H   H19       1.0  0.6605934931410288  0.8859150147613873  0.4398295799208326  1.0000
  H   H20       1.0  0.3394076825894814  0.1140844810151194  0.5601722899221497  1.0000
  H   H21       1.0  0.716469921777531  0.0066326519962558  0.5222725358110691  1.0000
  H   H22       1.0  0.2835312498207401  0.9933678248818012  0.47772915117781867  1.0000
  H   H23       1.0  0.8479727460831371  0.8582425668880164  0.5180815549142038  1.0000
  H   H24       1.0  0.15202841107800683  0.14175888448125556  0.4819181012877464  1.0000
  Pb  Pb1       1.0  0.5000005806466916  0.5000002351338609  0.4999999195280223  1.0000
  Pb  Pb2       1.0  0.0394690323140949  0.6714933875077378  0.330740078472388  1.0000
  Pb  Pb3       1.0  0.9605307275693422  0.3285070809895387  0.6692599912523319  1.0000
  C   C1        1.0  0.2611605581210483  0.542270461128517  0.0542820757804349  1.0000
  C   C2        1.0  0.7388405938876588  0.4577309869355801  0.9457166564550974  1.0000
  C   C3        1.0  0.28805760538175923  0.6869194143742378  0.01036972155203127  1.0000
  C   C4        1.0  0.711944947016697  0.3130810510535796  0.9896280389024878  1.0000
  C   C5        1.0  0.3990925144236854  0.7396784098250464  0.8867134831546861  1.0000
  C   C6        1.0  0.6009058337449177  0.2603220502914424  0.11328496930587306  1.0000
  C   C7        1.0  0.4186353444927491  0.8737481119831968  0.8488771946364222  1.0000
  C   C8        1.0  0.5813602018761446  0.1262533289991268  0.15112246027381798  1.0000
  C   C9        1.0  0.32545257866232197  0.9572704563948592  0.9327188421562621  1.0000
  C   C10       1.0  0.6745429605137333  0.0427290124688469  0.06727840656289885  1.0000
  C   C11       1.0  0.33694306665291407  0.0969318510036601  0.8963491866687006  1.0000
  C   C12       1.0  0.6630567117998822  0.9030666619008584  0.10365309669705158  1.0000
  C   C13       1.0  0.24407405132112817  0.17493682415983614  0.9792381660106313  1.0000
  C   C14       1.0  0.7559257116743512  0.8250616788291721  0.02076134545585251  1.0000
  C   C15       1.0  0.1322919513163399  0.1190229398693035  0.10369531021911625  1.0000
  C   C16       1.0  0.8677050016149439  0.8809785061886256  0.896305037988867  1.0000
  C   C17       1.0  0.033281891095839504  0.19696372390467326  0.19131662772212368  1.0000
  C   C18       1.0  0.9667206757397439  0.8030357670319432  0.8086831635193332  1.0000
  C   C19       1.0  0.9204094559750547  0.13826760087682996  0.30758016113568215  1.0000
  C   C20       1.0  0.07959031319306582  0.8617318898240643  0.6924210154095575  1.0000
  C   C21       1.0  0.9058132131066474  0.0001254026845742999  0.33895479395382466  1.0000
  C   C22       1.0  0.09418795231898258  0.9998740864815969  0.6610452279563147  1.0000
  C   C23       1.0  0.7762909304605119  0.9346213848287588  0.4616132750015961  1.0000
  C   C24       1.0  0.22371023083287161  0.0653790854389626  0.5383865640544484  1.0000
  C   C25       1.0  0.11534718450457862  0.9802384477307701  0.14322295301586496  1.0000
  C   C26       1.0  0.8846497642944657  0.019763979428717  0.8567772123380235  1.0000
  C   C27       1.0  0.21610779396504404  0.8973957626053062  0.056079133962050776  1.0000
  C   C28       1.0  0.7838877513836524  0.10260469397029232  0.9439197798358588  1.0000
  N   N1        1.0  0.20171756013611036  0.7647415739571527  0.09229104816085959  1.0000
  N   N2        1.0  0.7982793959072155  0.23525790659251564  0.9077087417888873  1.0000
  N   N3        1.0  0.0039896593567477  0.9244131767278745  0.25897156725524434  1.0000
  N   N4        1.0  0.9960072915341345  0.0755863005166191  0.7410272987280845  1.0000
  Cl  Cl1       1.0  0.7698131294505474  0.5251658970381641  0.2543782695395647  1.0000
  Cl  Cl2       1.0  0.23019082951030614  0.4748345734652799  0.7456201842127042  1.0000
  Cl  Cl3       1.0  0.21795009867380347  0.4048531710803118  0.39099035700518653  1.0000
  Cl  Cl4       1.0  0.7820538850290505  0.5951463315422602  0.6090119754668633  1.0000
  Cl  Cl5       1.0  0.3562978446844411  0.7568408471783031  0.4050118152674143  1.0000
  Cl  Cl6       1.0  0.6437047407205014  0.2431566881655556  0.5949901896150745  1.0000
