data_image0
_chemical_formula_structural       Zn4H16C54Br4N18O4
_chemical_formula_sum              "Zn4 H16 C54 Br4 N18 O4"
_cell_length_a       18.476108037006085
_cell_length_b       19.461630554716443
_cell_length_c       18.530974295772044
_cell_angle_alpha    103.08824009569673
_cell_angle_beta     109.60439837588386
_cell_angle_gamma    111.01414392648542

_space_group_name_H-M_alt    "P 1"
_space_group_IT_number       1

loop_
  _space_group_symop_operation_xyz
  'x, y, z'

loop_
  _atom_site_type_symbol
  _atom_site_label
  _atom_site_symmetry_multiplicity
  _atom_site_fract_x
  _atom_site_fract_y
  _atom_site_fract_z
  _atom_site_occupancy
  Zn  Zn1       1.0  0.882711153160244  0.00961928336134576  0.3800106203547031  1.0000
  Zn  Zn2       1.0  0.12266070333114952  0.9792679538083672  0.6054115630734173  1.0000
  Zn  Zn3       1.0  0.11201483743491282  0.0884845493423896  0.481051372475811  1.0000
  Zn  Zn4       1.0  0.8907917051225525  0.8859817647766731  0.4926765949298612  1.0000
  H   H1        1.0  0.8525856452299649  0.8978935328474904  0.2035010906936918  1.0000
  H   H2        1.0  0.11960947854562681  0.9723485686044029  0.7810795814710474  1.0000
  H   H3        1.0  0.31542423454542495  0.15792561043900827  0.501516520327911  1.0000
  H   H4        1.0  0.860820557453792  0.9785644677885798  0.6323828330952211  1.0000
  H   H5        1.0  0.793104056509094  0.7279465063105875  0.3245775523796085  1.0000
  H   H6        1.0  0.1408648063268174  0.24541581188119468  0.6065293093594022  1.0000
  H   H7        1.0  0.30761951069969484  0.9862223621110783  0.6161170469228451  1.0000
  H   H8        1.0  0.8416879608791988  0.1263051449180281  0.49147638955316353  1.0000
  H   H9        1.0  0.13001994130178227  0.9815299918241963  0.3423516783284911  1.0000
  H   H10       1.0  0.8392863436670553  0.8249333444376175  0.6342137042417874  1.0000
  H   H11       1.0  0.6171334019229276  0.5496281839382033  0.9201166866191954  1.0000
  H   H12       1.0  0.37051449199203285  0.4673287137294508  0.9850880880629801  1.0000
  H   H13       1.0  0.5331097118943406  0.4006546987177444  0.9293560415600767  1.0000
  H   H14       1.0  0.4552415081479638  0.6167664140018657  0.9756077900034512  1.0000
  H   H15       1.0  0.45209427673727015  0.5352586634141402  0.825912381488557  1.0000
  H   H16       1.0  0.5365094240794265  0.48187768859430946  0.07951850742271925  1.0000
  C   C1        1.0  0.9197587102035172  0.9240097012902666  0.2503987095354958  1.0000
  C   C2        1.0  0.05223407705020119  0.9384582298952251  0.7330530898669139  1.0000
  C   C3        1.0  0.07980691836090871  0.8133674922777344  0.5473004827346699  1.0000
  C   C4        1.0  0.9582927075649367  0.18287898038875752  0.3997169377627047  1.0000
  C   C5        1.0  0.2987443323759181  0.1124786784368013  0.5265329856193688  1.0000
  C   C6        1.0  0.8628946047489806  0.00927916457521869  0.5904413258632246  1.0000
  C   C7        1.0  0.7781561568289632  0.7740576696231684  0.31149110326444424  1.0000
  C   C8        1.0  0.15506068854733712  0.20598816915193652  0.6350967112279234  1.0000
  C   C9        1.0  0.2937296246856676  0.02379365882750053  0.5843530307865238  1.0000
  C   C10       1.0  0.8545328001262293  0.08561000960741458  0.5187662965200632  1.0000
  C   C11       1.0  0.7289089650616773  0.84625068133586  0.25546897019154347  1.0000
  C   C12       1.0  0.20653772984614702  0.1521595032657785  0.7180047334068647  1.0000
  C   C13       1.0  0.9390521872706754  0.7391128731533313  0.4693378100402794  1.0000
  C   C14       1.0  0.10133257801616939  0.24440808258653127  0.4599771874458938  1.0000
  C   C15       1.0  0.0618983987715964  0.9667822362146695  0.3210658550617752  1.0000
  C   C16       1.0  0.9087402849541634  0.8627952356971135  0.6580159687260051  1.0000
  C   C17       1.0  0.9921981729041606  0.924791003748183  0.23953349642274457  1.0000
  C   C18       1.0  0.9768731456207149  0.8929404615327525  0.739198652327751  1.0000
  C   C19       1.0  0.013908871725781995  0.7327775657130999  0.5133184654236729  1.0000
  C   C20       1.0  0.03025211006721659  0.26139124679268383  0.4374324502721549  1.0000
  C   C21       1.0  0.3500183003281093  0.0802636684844771  0.5657280754114851  1.0000
  C   C22       1.0  0.8342588210664063  0.0663295465462569  0.5808775975731779  1.0000
  C   C23       1.0  0.7243005838313082  0.7697572468585534  0.23435890278896218  1.0000
  C   C24       1.0  0.21914333552972923  0.22750465113951182  0.7154083464638603  1.0000
  C   C25       1.0  0.5164112880312359  0.4492567701691427  0.9406045274226998  1.0000
  C   C26       1.0  0.47119770893635154  0.5676730947074873  0.9645802798594117  1.0000
  C   C27       1.0  0.5620552790587254  0.5311596885650829  0.934432885289624  1.0000
  C   C28       1.0  0.4261136316907185  0.4864237640777063  0.9716580986008909  1.0000
  C   C29       1.0  0.6753653807735988  0.704496329673411  0.15684856822201726  1.0000
  C   C30       1.0  0.2860981272204413  0.3038402487709532  0.7747179524071869  1.0000
  C   C31       1.0  0.51658895238117  0.49289174928291146  0.022521052252507376  1.0000
  C   C32       1.0  0.47092848811266913  0.5236628320906362  0.8826649073040542  1.0000
  C   C33       1.0  0.5637833288990777  0.5767589859925907  0.01836180661099726  1.0000
  C   C34       1.0  0.4233769876487301  0.44015258248141  0.887656735622457  1.0000
  C   C35       1.0  0.6295753138856172  0.6467211989853395  0.09020219336156299  1.0000
  C   C36       1.0  0.34998080177177127  0.36801869186715663  0.8243197213583572  1.0000
  C   C37       1.0  0.019532988105005707  0.6647467137789744  0.518303214010281  1.0000
  C   C38       1.0  0.03130343174608901  0.33498595540369536  0.45388935051779095  1.0000
  C   C39       1.0  0.0220573740398819  0.601602707468018  0.5140746306684392  1.0000
  C   C40       1.0  0.03088352543955609  0.3997340453164924  0.47213562060235853  1.0000
  C   C41       1.0  0.025737076729349398  0.5330979900442684  0.5043580611547114  1.0000
  C   C42       1.0  0.02873874409623771  0.4691198942634427  0.4901811418189225  1.0000
  C   C43       1.0  0.7828115766269265  0.08929772300986369  0.6111053247714012  1.0000
  C   C44       1.0  0.4358948208856575  0.09750844778814383  0.5833069104683091  1.0000
  C   C45       1.0  0.7258686739471827  0.10309346894992187  0.6207397578220721  1.0000
  C   C46       1.0  0.5100154636367833  0.10684286164803324  0.5998979719103659  1.0000
  C   C47       1.0  0.6570118147386169  0.11097811071889656  0.6218169505496933  1.0000
  C   C48       1.0  0.5881922295622816  0.11203419320727898  0.6137199839144998  1.0000
  C   C49       1.0  0.9930520970825472  0.8993781585534747  0.16290389675908315  1.0000
  C   C50       1.0  0.9732772541067477  0.8818468591526453  0.8101450554736332  1.0000
  C   C51       1.0  0.9885184825411529  0.8851586600501804  0.09285198820181534  1.0000
  C   C52       1.0  0.9752703799756333  0.8761280196003794  0.8755374839322129  1.0000
  C   C53       1.0  0.9838395792640356  0.8762412496430299  0.017249228484864456  1.0000
  C   C54       1.0  0.9787625057283337  0.8737756449141542  0.9483174843971228  1.0000
  Br  Br1       1.0  0.675790949998415  0.8860974689975902  0.18298064231377964  1.0000
  Br  Br2       1.0  0.2693962523915516  0.13075824533184738  0.8045892866832318  1.0000
  Br  Br3       1.0  0.8249195764656393  0.6561823016322351  0.4204728724105495  1.0000
  Br  Br4       1.0  0.22000583605834126  0.3166595207471943  0.5113779072363586  1.0000
  N   N1        1.0  0.9453887101279647  0.9637664150275853  0.3310417250495307  1.0000
  N   N2        1.0  0.030598103717238704  0.9353864096794169  0.6553622429785619  1.0000
  N   N3        1.0  0.04719479648851892  0.860125696939377  0.5215292286821835  1.0000
  N   N4        1.0  0.9844717105850548  0.1274779276576651  0.4022851584862294  1.0000
  N   N5        1.0  0.21957826057055033  0.07772324586337481  0.5230514976060406  1.0000
  N   N6        1.0  0.8948818649940051  0.994620173084229  0.5363238233573641  1.0000
  N   N7        1.0  0.8105232039591997  0.845974291179509  0.3720314924688637  1.0000
  N   N8        1.0  0.11053072251688434  0.12528226550691812  0.5928124712558329  1.0000
  N   N9        1.0  0.2160890501888915  0.02259867750794342  0.5585787816065987  1.0000
  N   N10       1.0  0.8896995114787531  0.041981471092590594  0.49258840499435064  1.0000
  N   N11       1.0  0.7803260659595637  0.8920187399494423  0.33708768619826657  1.0000
  N   N12       1.0  0.1424366083673263  0.09243438206434723  0.6456247457520092  1.0000
  N   N13       1.0  0.9601526336621402  0.8146427309212781  0.4734092271371679  1.0000
  N   N14       1.0  0.072213479894323  0.1646392798995251  0.43929590025993553  1.0000
  N   N15       1.0  0.03293176870398179  0.9904301986546216  0.37502513447955726  1.0000
  N   N16       1.0  0.9419673644021956  0.8884334746673942  0.6089402674948587  1.0000
  N   N17       1.0  0.1645965153525992  0.8490928328073294  0.613883349039959  1.0000
  N   N18       1.0  0.8669893329295417  0.15540296936108425  0.3628063512367135  1.0000
  O   O1        1.0  0.19926759354312648  0.8074644051602887  0.6307751831861736  1.0000
  O   O2        1.0  0.20027760523308302  0.9243630883569833  0.6568975519887559  1.0000
  O   O3        1.0  0.8390726824470393  0.2037773815807357  0.35763118151705  1.0000
  O   O4        1.0  0.8175851772916047  0.08025359209621291  0.3367764067924881  1.0000
