data_image0
_chemical_formula_structural       Al4H88C88N8O20
_chemical_formula_sum              "Al4 H88 C88 N8 O20"
_cell_length_a       6.77503323317764
_cell_length_b       22.527020014629354
_cell_length_c       26.46108258546499
_cell_angle_alpha    101.05733180847952
_cell_angle_beta     89.99917187180652
_cell_angle_gamma    90.00015342665382

_space_group_name_H-M_alt    "P 1"
_space_group_IT_number       1

loop_
  _space_group_symop_operation_xyz
  'x, y, z'

loop_
  _atom_site_type_symbol
  _atom_site_label
  _atom_site_symmetry_multiplicity
  _atom_site_fract_x
  _atom_site_fract_y
  _atom_site_fract_z
  _atom_site_occupancy
  Al  Al1       1.0  0.7959594843847668  0.24964496915749385  0.2509505085540554  1.0000
  Al  Al2       1.0  0.20796310716330882  0.7501300205107102  0.7481518383810838  1.0000
  Al  Al3       1.0  0.2959605291463205  0.2503576054344664  0.24904608116165863  1.0000
  Al  Al4       1.0  0.707964966093968  0.7498682029168224  0.7518480388702002  1.0000
  H   H1        1.0  0.2898932727852639  0.4409966761093714  0.5105747761106302  1.0000
  H   H2        1.0  0.6957843625184524  0.5574853290993147  0.4888245760606154  1.0000
  H   H3        1.0  0.7898663951699592  0.05900465584846874  0.9894135066123724  1.0000
  H   H4        1.0  0.195775822421858  0.9425109470063548  0.011175202045578201  1.0000
  H   H5        1.0  0.956072690977507  0.45230672925409027  0.5753049162477878  1.0000
  H   H6        1.0  0.0337038089141046  0.5470966294660968  0.4247918701772163  1.0000
  H   H7        1.0  0.4560336857931233  0.047695438695804185  0.9246977671492829  1.0000
  H   H8        1.0  0.5337074126000587  0.9529003921882907  0.0752065820366568  1.0000
  H   H9        1.0  0.257424007710327  0.5446675209827988  0.8987347697069126  1.0000
  H   H10       1.0  0.7589655970258208  0.3813003176892806  0.04485265533815411  1.0000
  H   H11       1.0  0.7574157574956574  0.9553320330144859  0.6012653123175156  1.0000
  H   H12       1.0  0.2589429713643838  0.11869195140960195  0.4551413595221447  1.0000
  H   H13       1.0  0.6820929589059119  0.6718163615122423  0.8788353249554178  1.0000
  H   H14       1.0  0.3277582566887176  0.37642565314935444  0.15898029653310894  1.0000
  H   H15       1.0  0.18208038685425984  0.828191777784703  0.6211631242065182  1.0000
  H   H16       1.0  0.8277334007286187  0.12357589110360585  0.3410157893991084  1.0000
  H   H17       1.0  0.6062670236693679  0.6684629082407627  0.5543366994935822  1.0000
  H   H18       1.0  0.37787194023592724  0.6908631666712354  0.5853883213105178  1.0000
  H   H19       1.0  0.5727389279339264  0.6646698755477018  0.6201204692561575  1.0000
  H   H20       1.0  0.31605048054957763  0.5847553541807786  0.5965622056252187  1.0000
  H   H21       1.0  0.5385370844815398  0.5603533658494656  0.5652871504342514  1.0000
  H   H22       1.0  0.4168784326942756  0.5753434175900908  0.4822898184178541  1.0000
  H   H23       1.0  0.2395625534916022  0.6278752161550686  0.5112688777840333  1.0000
  H   H24       1.0  0.40851706869761983  0.3294500944051892  0.5066440030642951  1.0000
  H   H25       1.0  0.4488169448634664  0.3197956074047923  0.43930396171505487  1.0000
  H   H26       1.0  0.550435300559208  0.2673239829729185  0.4743798202613476  1.0000
  H   H27       1.0  0.8132916908589891  0.3379406565238129  0.45486024969918754  1.0000
  H   H28       1.0  0.7739468243266643  0.34955666270086994  0.5220325882822509  1.0000
  H   H29       1.0  0.5572171569904968  0.4379449262637537  0.517873941907709  1.0000
  H   H30       1.0  0.5829074833129013  0.4254735864866036  0.45013093348099176  1.0000
  H   H31       1.0  0.1062598334208857  0.8315373864864313  0.9456600917766096  1.0000
  H   H32       1.0  0.8778758684478093  0.8091339827095612  0.9146074635190403  1.0000
  H   H33       1.0  0.07273438350492971  0.8353321544119795  0.8798779881295362  1.0000
  H   H34       1.0  0.8160270859244675  0.9152394834637936  0.9034368827530345  1.0000
  H   H35       1.0  0.0385085182884026  0.9396475642906668  0.9347122011275387  1.0000
  H   H36       1.0  0.9168448970186135  0.9246553033460218  0.0177099184970402  1.0000
  H   H37       1.0  0.739526833577692  0.8721248135652787  0.9887312709150394  1.0000
  H   H38       1.0  0.9085108075366364  0.17055911893819345  0.993366180592119  1.0000
  H   H39       1.0  0.9488122698671405  0.18021147977722762  0.06070554409661359  1.0000
  H   H40       1.0  0.050449482903808  0.23267912558627304  0.0256280683004775  1.0000
  H   H41       1.0  0.3132894070155103  0.16205748901936803  0.04514242762630969  1.0000
  H   H42       1.0  0.2739266526450593  0.1504430628286571  0.9779723021886896  1.0000
  H   H43       1.0  0.0572045716667873  0.062057675611001194  0.9821309823884262  1.0000
  H   H44       1.0  0.08288620690071011  0.07452460882074521  0.0498729782024867  1.0000
  H   H45       1.0  0.424690496027047  0.5718707445270541  0.8338288878736152  1.0000
  H   H46       1.0  0.2869380498348733  0.5932594174662145  0.7827692973613553  1.0000
  H   H47       1.0  0.3996881799933689  0.6493455782096832  0.8286108516752934  1.0000
  H   H48       1.0  0.5951341566611817  0.3071953136801682  0.0756911022753499  1.0000
  H   H49       1.0  0.732771691584972  0.2565017405548603  0.10609224034108423  1.0000
  H   H50       1.0  0.6089225445314456  0.31721371931720915  0.1442325914124183  1.0000
  H   H51       1.0  0.9246848977344087  0.9281263364793446  0.6661647996590006  1.0000
  H   H52       1.0  0.786924304127048  0.9067382365835215  0.7172283632400394  1.0000
  H   H53       1.0  0.8996756508701653  0.8506488681148882  0.6713848483430882  1.0000
  H   H54       1.0  0.09511993026274719  0.19280412079466916  0.42431045681985313  1.0000
  H   H55       1.0  0.2327710819130573  0.24349878243437934  0.3939088131005235  1.0000
  H   H56       1.0  0.10890483896449152  0.18278792562962567  0.35576699586392374  1.0000
  H   H57       1.0  0.3530815022020306  0.6748005273421358  0.0267707546995197  1.0000
  H   H58       1.0  0.41729363668250136  0.6069604220837023  0.04696902377045831  1.0000
  H   H59       1.0  0.5022628705343308  0.6775210534309509  0.08254726127959337  1.0000
  H   H60       1.0  0.7771908493966607  0.6250729148408142  0.0283627709650673  1.0000
  H   H61       1.0  0.7126215362637822  0.6920059235631585  0.007248448982380801  1.0000
  H   H62       1.0  0.49869370037885125  0.6315809127060067  0.9379838596506717  1.0000
  H   H63       1.0  0.5702061728525152  0.5646034271620693  0.9584233299235477  1.0000
  H   H64       1.0  0.7317808762156872  0.512536894190177  0.14120489491782706  1.0000
  H   H65       1.0  0.6549877475056292  0.5459685328976961  0.08892811174979441  1.0000
  H   H66       1.0  0.6237746963375272  0.5859002430157078  0.1531254410954404  1.0000
  H   H67       1.0  0.3007125764273795  0.5408727100759878  0.11587413970098481  1.0000
  H   H68       1.0  0.37284594125164006  0.5089526382938986  0.16911608744989343  1.0000
  H   H69       1.0  0.522912217235465  0.42160943867216355  0.1093881693777519  1.0000
  H   H70       1.0  0.44635377656199193  0.4525448003584955  0.05586516886175019  1.0000
  H   H71       1.0  0.8530690213783885  0.8251947249153916  0.4732330609095783  1.0000
  H   H72       1.0  0.917282825354384  0.8930350177546205  0.4530299363709744  1.0000
  H   H73       1.0  0.0022600983576879004  0.8224698637494329  0.4174555310130188  1.0000
  H   H74       1.0  0.2771818209553416  0.874919034127558  0.47163785472849895  1.0000
  H   H75       1.0  0.2125930959235305  0.8079940750289225  0.4927601263494523  1.0000
  H   H76       1.0  0.9986780152653126  0.8684280406308461  0.5620195824187348  1.0000
  H   H77       1.0  0.0701941008003999  0.9354020739681064  0.5415747575619179  1.0000
  H   H78       1.0  0.23177895529929776  0.9874613800721335  0.35880399183784556  1.0000
  H   H79       1.0  0.15495512541912865  0.9540278578378578  0.4110779757201612  1.0000
  H   H80       1.0  0.1237758627391798  0.9140959452174474  0.3468796062870823  1.0000
  H   H81       1.0  0.8006975017406361  0.9591252569742681  0.3841237146735637  1.0000
  H   H82       1.0  0.8728556800465981  0.9910408607027821  0.3308799539749643  1.0000
  H   H83       1.0  0.0228997739079873  0.07838856273978223  0.39060864965144054  1.0000
  H   H84       1.0  0.9463145771854187  0.047455459441856404  0.44413163255426  1.0000
  H   H85       1.0  0.5463522892479702  0.3277003612535908  0.2727010050602204  1.0000
  H   H86       1.0  0.4593074419359908  0.6713676071468344  0.7300469240720988  1.0000
  H   H87       1.0  0.0463524608465633  0.17230123714929146  0.22729611832895097  1.0000
  H   H88       1.0  0.9592986085013919  0.8286287821601662  0.7699477894824797  1.0000
  C   C1        1.0  0.5421305855866478  0.19005917250046886  0.31641298745545754  1.0000
  C   C2        1.0  0.46161482613064214  0.8146514482250142  0.6869003722956961  1.0000
  C   C3        1.0  0.0421373054553555  0.3099459569387691  0.18358800646114298  1.0000
  C   C4        1.0  0.9616258877544723  0.6853507378041997  0.8131024255220751  1.0000
  C   C5        1.0  0.5482541330033825  0.16986765140434562  0.17534383887476673  1.0000
  C   C6        1.0  0.4552152900418705  0.8300034461487017  0.8249234363923108  1.0000
  C   C7        1.0  0.0482262442157761  0.33013435870559965  0.32465712743594827  1.0000
  C   C8        1.0  0.9552136785634815  0.6699958290415824  0.6750782255239615  1.0000
  C   C9        1.0  0.9736783597920038  0.4729329882780109  0.54134351830335  1.0000
  C   C10       1.0  0.0142413245405919  0.5264919935540534  0.4587009576256875  1.0000
  C   C11       1.0  0.47365588847387136  0.02707101069361079  0.9586594880707936  1.0000
  C   C12       1.0  0.5142313426075731  0.973509846961008  0.041299113916814185  1.0000
  C   C13       1.0  0.159665640973607  0.467859340396089  0.506216167616941  1.0000
  C   C14       1.0  0.8283647473967477  0.5317318289116814  0.49379124222773646  1.0000
  C   C15       1.0  0.6596539757898372  0.032140115530076244  0.9937810603621955  1.0000
  C   C16       1.0  0.32835133240160264  0.9682682660105258  0.006212287491337101  1.0000
  C   C17       1.0  0.04982397929310169  0.3751579921248195  0.37105050048013055  1.0000
  C   C18       1.0  0.9483775743247236  0.6244506786255216  0.6290493002084858  1.0000
  C   C19       1.0  0.549860810291861  0.12484517554554492  0.1289496919729771  1.0000
  C   C20       1.0  0.4483835646786005  0.8755493249878584  0.8709516182493573  1.0000
  C   C21       1.0  0.8345659648812002  0.4620629023645933  0.4932678809754805  1.0000
  C   C22       1.0  0.1527382308759115  0.537814907178195  0.5067707920614808  1.0000
  C   C23       1.0  0.3345344816274363  0.03793467555073701  0.0067343321273583  1.0000
  C   C24       1.0  0.652723963806892  0.9621874542449478  0.9932235217542313  1.0000
  C   C25       1.0  0.0235451383490641  0.45591553726301737  0.45682388136045665  1.0000
  C   C26       1.0  0.9640424413920814  0.5434543872370201  0.5432901759280426  1.0000
  C   C27       1.0  0.5235465513200738  0.044085385196943605  0.04317409484358589  1.0000
  C   C28       1.0  0.4640336733203443  0.9565472221494605  0.9567060683803135  1.0000
  C   C29       1.0  0.045306695555950696  0.41229989836107  0.41117027337768514  1.0000
  C   C30       1.0  0.9458454399998785  0.5871262671296694  0.5890466430711001  1.0000
  C   C31       1.0  0.5453419761201559  0.08770074231392043  0.088824542711933  1.0000
  C   C32       1.0  0.4458662775935665  0.9128711635832759  0.9109427328659693  1.0000
  C   C33       1.0  0.14015887834381152  0.6091877795214061  0.8567050084909837  1.0000
  C   C34       1.0  0.8721950749580643  0.3430450607117025  0.1071051849794031  1.0000
  C   C35       1.0  0.6401477200891109  0.8908118393030694  0.6432908868970983  1.0000
  C   C36       1.0  0.37219208733954906  0.15695515853429504  0.3928911198510007  1.0000
  C   C37       1.0  0.1309248030032322  0.5730684733702137  0.8940345476622582  1.0000
  C   C38       1.0  0.8833272820254408  0.3802262975688961  0.07072312736806911  1.0000
  C   C39       1.0  0.6309169412539576  0.9269374212121948  0.6059675507458167  1.0000
  C   C40       1.0  0.38330774166671233  0.11976957617854116  0.4292696650680412  1.0000
  C   C41       1.0  0.9654127072975173  0.5707653912057965  0.9254541866306026  1.0000
  C   C42       1.0  0.0459372388427397  0.4178234520119944  0.0657035853532477  1.0000
  C   C43       1.0  0.46541616128985913  0.9292389225632932  0.5745482157546391  1.0000
  C   C44       1.0  0.5459217590572366  0.08217374993650142  0.4342877586010232  1.0000
  C   C45       1.0  0.798122665303694  0.6067952391262212  0.9207869012679453  1.0000
  C   C46       1.0  0.2150173399933664  0.41563499015016  0.09707844756067631  1.0000
  C   C47       1.0  0.2981144866609924  0.8932137256775624  0.5792157405362701  1.0000
  C   C48       1.0  0.7150053127753466  0.08436261423990743  0.4029134284864071  1.0000
  C   C49       1.0  0.8077419762382475  0.6431857684870439  0.8836602727617944  1.0000
  C   C50       1.0  0.2019943617572366  0.37857311624774337  0.1336970450264303  1.0000
  C   C51       1.0  0.3077305057764406  0.8568208016057147  0.6163396352290818  1.0000
  C   C52       1.0  0.7019841382418263  0.12142812067840945  0.36629911908973883  1.0000
  C   C53       1.0  0.9721657850806693  0.6450861223416242  0.8517966305060726  1.0000
  C   C54       1.0  0.0363487264995328  0.3439284370849123  0.1403480092895606  1.0000
  C   C55       1.0  0.47214936429541143  0.854917048115539  0.6482026657860018  1.0000
  C   C56       1.0  0.5363472656614832  0.15607459716559197  0.35964953824726825  1.0000
  C   C57       1.0  0.025850492946553102  0.45800834520773054  0.028018915164345504  1.0000
  C   C58       1.0  0.9808367458475972  0.5303663261300217  0.9630265036257413  1.0000
  C   C59       1.0  0.5258389602217122  0.04198949368851863  0.4719751983196404  1.0000
  C   C60       1.0  0.48082444387905104  0.9696350526751375  0.5369727577664917  1.0000
  C   C61       1.0  0.3115482041530059  0.5847568918859382  0.5146860855031434  1.0000
  C   C62       1.0  0.4187388344187681  0.5936620182205561  0.5667698324651268  1.0000
  C   C63       1.0  0.49905472983457594  0.6578763935561087  0.5825966617090899  1.0000
  C   C64       1.0  0.6598609292328774  0.42099997773844694  0.4860165848794935  1.0000
  C   C65       1.0  0.704696690602141  0.3542154701738556  0.48528384769350214  1.0000
  C   C66       1.0  0.5183106257679668  0.31543334651107113  0.4759950631707923  1.0000
  C   C67       1.0  0.8115168604555052  0.9152424803893243  0.9853134118151061  1.0000
  C   C68       1.0  0.9187148464495181  0.906335832038856  0.933229267190917  1.0000
  C   C69       1.0  0.9990490855705048  0.8421238930144811  0.9174017608837984  1.0000
  C   C70       1.0  0.15984049312811524  0.07900047351206752  0.0139878166368703  1.0000
  C   C71       1.0  0.20468694858838182  0.14578364086102624  0.0147226958503808  1.0000
  C   C72       1.0  0.018308790274382102  0.18457079300126375  0.024013330454259595  1.0000
  C   C73       1.0  0.3229131770519444  0.6057888819814112  0.8239508232058411  1.0000
  C   C74       1.0  0.6923193583966238  0.30413983636717035  0.1082752569618677  1.0000
  C   C75       1.0  0.8228971635356929  0.894207218839803  0.6760440077929601  1.0000
  C   C76       1.0  0.1923101589067144  0.19585988461719953  0.39172401971050863  1.0000
  C   C77       1.0  0.620364593385098  0.6102046454888852  0.9554683932478129  1.0000
  C   C78       1.0  0.6577782767323654  0.6466615298425823  0.010031369234369  1.0000
  C   C79       1.0  0.47271402673555957  0.6518431792053861  0.04359334015794051  1.0000
  C   C80       1.0  0.407588132659896  0.44879989640519113  0.09537278939172471  1.0000
  C   C81       1.0  0.41304921728863053  0.5122242248724405  0.1293632664298201  1.0000
  C   C82       1.0  0.6170973617070246  0.5408662809461475  0.1282791603721449  1.0000
  C   C83       1.0  0.1203540073327929  0.8898011104809173  0.5445310494235187  1.0000
  C   C84       1.0  0.15776752081805512  0.8533371767272514  0.4899731720070122  1.0000
  C   C85       1.0  0.9727135519114398  0.8481524771236697  0.45641080490052127  1.0000
  C   C86       1.0  0.9075721141994038  0.05119990202520344  0.4046237692182616  1.0000
  C   C87       1.0  0.9130431535647856  0.9877733569341915  0.3706353279278218  1.0000
  C   C88       1.0  0.1170864732744263  0.9591303631942626  0.37172591239352937  1.0000
  N   N1        1.0  0.8290950845331722  0.493011088962952  0.9689790026507694  1.0000
  N   N2        1.0  0.17570139558783643  0.4958423538419298  0.022059503210663  1.0000
  N   N3        1.0  0.3290804345962215  0.006990000589311835  0.5310202978395752  1.0000
  N   N4        1.0  0.6756840044943289  0.004150707599656343  0.47793174052419124  1.0000
  N   N5        1.0  0.8531756325755923  0.45596978560192286  0.0013671442055525002  1.0000
  N   N6        1.0  0.15422011465478389  0.5317179839315288  0.9885474086043899  1.0000
  N   N7        1.0  0.3531541518401156  0.044029851436818014  0.4986284599822213  1.0000
  N   N8        1.0  0.6542073790273761  0.9682783296555613  0.511447659708935  1.0000
  O   O1        1.0  0.3791447269180851  0.18842146032378793  0.1928444736221877  1.0000
  O   O2        1.0  0.6259394054716908  0.8113344604339546  0.8087748375206587  1.0000
  O   O3        1.0  0.8791272382605797  0.3115845341041421  0.3071498904433909  1.0000
  O   O4        1.0  0.12593781179657532  0.688659882534296  0.691229184991151  1.0000
  O   O5        1.0  0.7120743305293902  0.2023719324404568  0.3002395496957888  1.0000
  O   O6        1.0  0.2903161593583619  0.798876153548264  0.6997351272920226  1.0000
  O   O7        1.0  0.2120841442281929  0.29763369833610653  0.19976043360852463  1.0000
  O   O8        1.0  0.7903373052161768  0.7011199045304509  0.8002613634221518  1.0000
  O   O9        1.0  0.7155503790604314  0.18724291062493145  0.194848905903811  1.0000
  O   O10       1.0  0.2899102089456989  0.812395298253975  0.804300944971402  1.0000
  O   O11       1.0  0.2155187628268251  0.3127579151323873  0.3051514417348429  1.0000
  O   O12       1.0  0.7898886472723631  0.687602264627941  0.6956963196176389  1.0000
  O   O13       1.0  0.877034316957058  0.2975197494977452  0.20203659852758443  1.0000
  O   O14       1.0  0.1248233671009444  0.7005971585824257  0.7954140430206919  1.0000
  O   O15       1.0  0.3770384067417041  0.20248100567235383  0.2979581496416301  1.0000
  O   O16       1.0  0.6248044147799093  0.7994124276926301  0.7045946275854577  1.0000
  O   O17       1.0  0.5465014043075627  0.2868843349065245  0.2525915086482797  1.0000
  O   O18       1.0  0.45750678107678777  0.7134258938591318  0.7472365183409977  1.0000
  O   O19       1.0  0.0465088793877086  0.2131178936367634  0.247404460444379  1.0000
  O   O20       1.0  0.9575066669643206  0.7865697677928768  0.7527608950932034  1.0000
