data_image0
_chemical_formula_structural       Mn2H12C12N16O8
_chemical_formula_sum              "Mn2 H12 C12 N16 O8"
_cell_length_a       8.410120926703652
_cell_length_b       8.465315266818077
_cell_length_c       9.673815143177636
_cell_angle_alpha    114.91992073679047
_cell_angle_beta     90.00158196094837
_cell_angle_gamma    119.78187109075176

_space_group_name_H-M_alt    "P 1"
_space_group_IT_number       1

loop_
  _space_group_symop_operation_xyz
  'x, y, z'

loop_
  _atom_site_type_symbol
  _atom_site_label
  _atom_site_symmetry_multiplicity
  _atom_site_fract_x
  _atom_site_fract_y
  _atom_site_fract_z
  _atom_site_occupancy
  Mn  Mn1       1.0  0.9598031540797434  0.9999987717761697  0.24999893652793062  1.0000
  Mn  Mn2       1.0  0.0402001146396955  4.3300879753003904e-06  0.7500032416747189  1.0000
  H   H1        1.0  0.37469590940303726  0.36923600361444636  0.6512079681975038  1.0000
  H   H2        1.0  0.005453141861216991  0.6307682074658842  0.848796502472382  1.0000
  H   H3        1.0  0.6253065809193927  0.6307655414154069  0.3487936340401064  1.0000
  H   H4        1.0  0.9945469732658624  0.369233343412894  0.1512030344600959  1.0000
  H   H5        1.0  0.5139860772400126  0.9240056979987868  0.8368201235759969  1.0000
  H   H6        1.0  0.5899829800936304  0.0760017898702401  0.6631819139082465  1.0000
  H   H7        1.0  0.486014447087733  0.07599429312124069  0.16317987004401147  1.0000
  H   H8        1.0  0.41001635520709084  0.9239982012828206  0.3368180797095945  1.0000
  H   H9        1.0  0.5818459196609351  0.7580105361091681  0.7085278015349629  1.0000
  H   H10       1.0  0.8238324316700912  0.24198545241024755  0.791474666538896  1.0000
  H   H11       1.0  0.4181538234110961  0.24198789239370913  0.2914736814208112  1.0000
  H   H12       1.0  0.17616571460359845  0.7580145387758533  0.20852532707678506  1.0000
  C   C1        1.0  0.33958467584670865  0.44255664637253733  0.7575332732295974  1.0000
  C   C2        1.0  0.8970246933562861  0.5574487159411489  0.7424685493053786  1.0000
  C   C3        1.0  0.660416626878046  0.5574449015817818  0.24246729635544995  1.0000
  C   C4        1.0  0.10297464194442796  0.44255127521191173  0.2575314443124626  1.0000
  C   C5        1.0  0.5599555667875362  0.8193921841697784  0.8262554177440508  1.0000
  C   C6        1.0  0.7405635945349048  0.18061295931844507  0.6737470972304038  1.0000
  C   C7        1.0  0.4400429929748739  0.18060625593185625  0.1737419346079605  1.0000
  C   C8        1.0  0.2594372975598273  0.8193901455031989  0.32625404831750865  1.0000
  C   C9        1.0  0.7472122222576798  0.9475411950709611  0.954349691050467  1.0000
  C   C10       1.0  0.7996650989231783  0.05244775663856419  0.5456518824318691  1.0000
  C   C11       1.0  0.25279104646175915  0.052461906793183695  0.04565248715217509  1.0000
  C   C12       1.0  0.20033423637753592  0.9475522345144965  0.454348111185972  1.0000
  N   N1        1.0  0.21111414303083353  0.34622356637694907  0.8215084726931465  1.0000
  N   N2        1.0  0.8648921636338398  0.6537862726190082  0.6784878938900718  1.0000
  N   N3        1.0  0.7888844167315766  0.6537748737246855  0.17848887965886462  1.0000
  N   N4        1.0  0.13510836069390558  0.3462137185010192  0.3215120997299366  1.0000
  N   N5        1.0  0.2042129296943428  0.49649181748327453  0.9465572766858941  1.0000
  N   N6        1.0  0.707727039319984  0.5035256936737084  0.5534399428129717  1.0000
  N   N7        1.0  0.7957852165793469  0.5035081737028265  0.05344271692978006  1.0000
  N   N8        1.0  0.29227348643711076  0.4964743003377521  0.44655901815664123  1.0000
  N   N9        1.0  0.3231018960523214  0.677903603844797  0.9593629741682648  1.0000
  N   N10       1.0  0.6451999600833319  0.3221092189569389  0.5406362940743534  1.0000
  N   N11       1.0  0.6768946948566994  0.3220932765641535  0.040634834866949625  1.0000
  N   N12       1.0  0.35479740779334873  0.6778892153948702  0.45936312357628845  1.0000
  N   N13       1.0  0.4094914951113679  0.6469213442958902  0.8415880594389334  1.0000
  N   N14       1.0  0.7625711298228666  0.3530873653608139  0.658415254073347  1.0000
  N   N15       1.0  0.5905066511623147  0.3530786468902107  0.15841193417674052  1.0000
  N   N16       1.0  0.2374301729018881  0.6469141825935053  0.3415853155116935  1.0000
  O   O1        1.0  0.7402042650778141  0.9311457060448022  0.07849437161092261  1.0000
  O   O2        1.0  0.8090501852289407  0.068834866497383  0.4215070724999634  1.0000
  O   O3        1.0  0.2597950702228999  0.06885428510825879  0.9215056220069258  1.0000
  O   O4        1.0  0.19095033766945577  0.9311651217312188  0.5784939537704474  1.0000
  O   O5        1.0  0.8938198056785894  0.0668813631965079  0.9263117412030724  1.0000
  O   O6        1.0  0.8269324434281343  0.9331073905188061  0.5737053015131082  1.0000
  O   O7        1.0  0.1061807172198072  0.9331186250320941  0.07368928506733859  1.0000
  O   O8        1.0  0.1730668918725797  0.0668926006342616  0.4262946921047401  1.0000
