data_image0
_chemical_formula_structural       Rb8H48C48N8O32
_chemical_formula_sum              "Rb8 H48 C48 N8 O32"
_cell_length_a       7.265639809
_cell_length_b       11.063325128
_cell_length_c       19.724
_cell_angle_alpha    90.0
_cell_angle_beta     90.0
_cell_angle_gamma    90.0

_space_group_name_H-M_alt    "P 1"
_space_group_IT_number       1

loop_
  _space_group_symop_operation_xyz
  'x, y, z'

loop_
  _atom_site_type_symbol
  _atom_site_label
  _atom_site_symmetry_multiplicity
  _atom_site_fract_x
  _atom_site_fract_y
  _atom_site_fract_z
  _atom_site_occupancy
  Rb  Rb1       1.0  0.9095854148747833  0.1577509455618369  0.48160109511255195  1.0000
  Rb  Rb2       1.0  0.4095867780720042  0.3422461110192927  0.5183983978908913  1.0000
  Rb  Rb3       1.0  0.0904146114133368  0.6577516176924902  0.0183978908943416  1.0000
  Rb  Rb4       1.0  0.5904146245573969  0.842246783149946  0.9816021091056584  1.0000
  Rb  Rb5       1.0  0.090410482389494  0.8422458792625633  0.5183983978908913  1.0000
  Rb  Rb6       1.0  0.5904160008986776  0.6577516176924902  0.4816016021091087  1.0000
  Rb  Rb7       1.0  0.9095854148747833  0.34224701490667536  0.9816016021091086  1.0000
  Rb  Rb8       1.0  0.4095812727068804  0.157753657223985  0.0183994118839976  1.0000
  H   H1        1.0  0.48137949195714197  0.943228177719341  0.6539069154329766  1.0000
  H   H2        1.0  0.981378128759921  0.5567720308978679  0.3460956195497857  1.0000
  H   H3        1.0  0.5186274160373827  0.4432284094760632  0.846099675522204  1.0000
  H   H4        1.0  0.0186163921630751  0.0567695509924491  0.15389880348813278  1.0000
  H   H5        1.0  0.5186246633548208  0.0567740704293627  0.3460996755222041  1.0000
  H   H6        1.0  0.0186122631392323  0.4432302172508286  0.6538967755019272  1.0000
  H   H7        1.0  0.48137949195714197  0.5567756464474058  0.1539059014398703  1.0000
  H   H8        1.0  0.9813795051012022  0.943224562169803  0.8460951125532361  1.0000
  H   H9        1.0  0.4853075699723277  0.9521450267551046  0.7802580612451848  1.0000
  H   H10       1.0  0.9853117121402306  0.5478569896368697  0.2197439667410279  1.0000
  H   H11       1.0  0.5147048433873138  0.4521443546244512  0.7197465017237903  1.0000
  H   H12       1.0  0.014702077560698997  0.0478508941819129  0.280251470290004  1.0000
  H   H13       1.0  0.5147034670460329  0.0478545097314438  0.21974802271344626  1.0000
  H   H14       1.0  0.0147089592670966  0.4521470662865993  0.7802499493003481  1.0000
  H   H15       1.0  0.4852910538769564  0.5478506624251834  0.2802580612451848  1.0000
  H   H16       1.0  0.9852924433622972  0.9521477384172528  0.7197429527479214  1.0000
  H   H17       1.0  0.723966524391187  0.3082906775800964  0.7729851957006701  1.0000
  H   H18       1.0  0.2239678875884081  0.1917108984379468  0.2270158182924362  1.0000
  H   H19       1.0  0.2760279965318091  0.8082859263864534  0.7270168322855426  1.0000
  H   H20       1.0  0.7760431494299525  0.6917061472443038  0.2729811397282517  1.0000
  H   H21       1.0  0.2760348782382067  0.6917097627938418  0.22701936726830496  1.0000
  H   H22       1.0  0.7760514074776379  0.8082904458233671  0.7729826607179078  1.0000
  H   H23       1.0  0.7239623953673444  0.19170999455056395  0.2729857026972198  1.0000
  H   H24       1.0  0.22396100588201048  0.3082879659179412  0.7270132833096739  1.0000
  H   H25       1.0  0.7192732006239169  0.30225722929689874  0.6464033664571075  1.0000
  H   H26       1.0  0.2192759401624258  0.1977416350589962  0.3535981545325484  1.0000
  H   H27       1.0  0.2807103095688319  0.802255189765404  0.8535996755222043  1.0000
  H   H28       1.0  0.780729591490818  0.6977359799779705  0.1463982964915829  1.0000
  H   H29       1.0  0.2807130622513938  0.6977450188518047  0.353601703508417  1.0000
  H   H30       1.0  0.7807199571018515  0.8022624208644726  0.6464003244777955  1.0000
  H   H31       1.0  0.7192800823303216  0.1977461544959098  0.146402859460558  1.0000
  H   H32       1.0  0.21927869284498058  0.3022554215221263  0.8535961265463426  1.0000
  H   H33       1.0  0.8486891949091415  0.4860907491898132  0.5417227742851338  1.0000
  H   H34       1.0  0.3486919344476433  0.0139081151660818  0.45827773271141575  1.0000
  H   H35       1.0  0.1513108313789786  0.9860914213204736  0.9582751977286533  1.0000
  H   H36       1.0  0.6513067154991958  0.5139087872967352  0.04172429527478979  1.0000
  H   H37       1.0  0.1513067023551358  0.5139078834093525  0.4582762117217598  1.0000
  H   H38       1.0  0.6513080918404766  0.9860896135457009  0.5417253092678962  1.0000
  H   H39       1.0  0.8486905712504225  0.0139099229408473  0.0417227742851338  1.0000
  H   H40       1.0  0.3486891817650815  0.4860907491898132  0.9582772257148662  1.0000
  H   H41       1.0  0.8874910082953134  0.4134859951301948  0.4754725207868589  1.0000
  H   H42       1.0  0.3874909951512606  0.0865128692256931  0.5245279862096908  1.0000
  H   H43       1.0  0.1125090179927994  0.913487571148238  0.0245259582234851  1.0000
  H   H44       1.0  0.6125076547955786  0.5865135413563536  0.9754735347799652  1.0000
  H   H45       1.0  0.1125062653102376  0.5865126374689708  0.5245264652200348  1.0000
  H   H46       1.0  0.6125076547955786  0.913487571148238  0.4754745487730716  1.0000
  H   H47       1.0  0.8874896319540326  0.0865119653383104  0.9754720137903091  1.0000
  H   H48       1.0  0.3874896188099796  0.4134868990175775  0.0245274792131411  1.0000
  C   C1        1.0  0.5944624442640033  0.1238976513969448  0.6406499695802097  1.0000
  C   C2        1.0  0.0944651838025052  0.37610302073371565  0.359352058406003  1.0000
  C   C3        1.0  0.405529323976431  0.62389561186545  0.8593540863922157  1.0000
  C   C4        1.0  0.9055320898030528  0.8761009812022209  0.14064388562157856  1.0000
  C   C5        1.0  0.4055348293415548  0.8761055006391416  0.3593545933887654  1.0000
  C   C6        1.0  0.9055362188268887  0.6239028429645188  0.6406443926181282  1.0000
  C   C7        1.0  0.5944693259704081  0.37610754017062925  0.1406499695802097  1.0000
  C   C8        1.0  0.09447068916762899  0.1238931319600312  0.8593495234232407  1.0000
  C   C9        1.0  0.5335056652820072  0.022937950124756395  0.6802763131210696  1.0000
  C   C10       1.0  0.033508404820509  0.4770618181185213  0.3197247008720367  1.0000
  C   C11       1.0  0.4664874792997082  0.522937718368027  0.8197247008720367  1.0000
  C   C12       1.0  0.9664861161024803  0.9770588746996438  0.1802722571486512  1.0000
  C   C13       1.0  0.46649160832354397  0.9770597785870264  0.3197282498478984  1.0000
  C   C14       1.0  0.966492997808885  0.522941333917565  0.6802712431555449  1.0000
  C   C15       1.0  0.533508417964569  0.47706272200590394  0.1802768201176264  1.0000
  C   C16       1.0  0.0335097811617899  0.022936142349983896  0.8197247008720367  1.0000
  C   C17       1.0  0.5359225205709635  0.027188028600797092  0.7499452443723413  1.0000
  C   C18       1.0  0.0359252601094653  0.47281445130462874  0.2500577976069778  1.0000
  C   C19       1.0  0.4640802583997186  0.5271796618576232  0.7500623605759458  1.0000
  C   C20       1.0  0.9640788952024977  0.9728115078857513  0.24993662543094788  1.0000
  C   C21       1.0  0.4640830110822803  0.9728151234352822  0.25006286757250246  1.0000
  C   C22       1.0  0.9640871532501833  0.5271932201683711  0.7499351044412919  1.0000
  C   C23       1.0  0.5359156388645587  0.47281354741724607  0.2499432163861286  1.0000
  C   C24       1.0  0.0359170020617796  0.0271835091638835  0.7500562766173218  1.0000
  C   C25       1.0  0.6007289261151456  0.13159244469056117  0.7832209490975472  1.0000
  C   C26       1.0  0.1007316656536474  0.3684100352148647  0.2167815858852151  1.0000
  C   C27       1.0  0.3992669711491317  0.6315904051590664  0.7167831068748711  1.0000
  C   C28       1.0  0.8992697369757536  0.8684061879086116  0.2832148651389161  1.0000
  C   C29       1.0  0.39927247651425546  0.8684088995707596  0.2167851348610839  1.0000
  C   C30       1.0  0.899284876729844  0.6315904051590664  0.7832143581423664  1.0000
  C   C31       1.0  0.6007275497738647  0.368409131327482  0.2832204421009905  1.0000
  C   C32       1.0  0.1007289129710855  0.1315897330284059  0.7167800648955591  1.0000
  C   C33       1.0  0.6686362285647931  0.2306087880887588  0.7459597444737369  1.0000
  C   C34       1.0  0.1686403444445759  0.2693927879292843  0.2540432975055751  1.0000
  C   C35       1.0  0.33136104504076497  0.7306031330077332  0.7540463394848941  1.0000
  C   C36       1.0  0.8313679398912228  0.769388940623024  0.24595264652200646  1.0000
  C   C37       1.0  0.3313637977233199  0.7693934600599377  0.2540473534779935  1.0000
  C   C38       1.0  0.8313748215976275  0.7306139796563327  0.7459546745082122  1.0000
  C   C39       1.0  0.668637604906074  0.2693936918166671  0.2459587304806305  1.0000
  C   C40       1.0  0.168637591762014  0.230605172539228  0.7540402555262631  1.0000
  C   C41       1.0  0.6655683638500633  0.22696973748379173  0.6762157777327147  1.0000
  C   C42       1.0  0.1655724797298461  0.2730318385342514  0.3237842222672853  1.0000
  C   C43       1.0  0.334424780731652  0.7269649862901487  0.8237842222672853  1.0000
  C   C44       1.0  0.8344344282646785  0.7730279912279912  0.1762127357533956  1.0000
  C   C45       1.0  0.334426157072933  0.7730325106649046  0.3237882782397108  1.0000
  C   C46       1.0  0.8344371809472406  0.7269731212766004  0.6762112147637395  1.0000
  C   C47       1.0  0.6655766218977419  0.2730354540837823  0.1762167917258139  1.0000
  C   C48       1.0  0.165575232412408  0.2269661219342609  0.8237837152707356  1.0000
  N   N1        1.0  0.5915322136773398  0.1375617169695431  0.8545548570269687  1.0000
  N   N2        1.0  0.0915294478507249  0.36244166682326545  0.1454471709592369  1.0000
  N   N3        1.0  0.4084691889520542  0.63755786966329  0.6454491989454496  1.0000
  N   N4        1.0  0.9084664494135524  0.862441435066536  0.3545487730683448  1.0000
  N   N5        1.0  0.4084719416346161  0.862441435066536  0.1454512269316552  1.0000
  N   N6        1.0  0.9084733311199571  0.6375623891002035  0.8545492800648944  1.0000
  N   N7        1.0  0.5915253319709421  0.36244347459803083  0.35455384303386944  1.0000
  N   N8        1.0  0.091526695168163  0.13755719753262946  0.6454471709592369  1.0000
  O   O1        1.0  0.5863654285095021  0.1227903893524598  0.5748438450618564  1.0000
  O   O2        1.0  0.0863667917067232  0.3772075711160454  0.4251576759278066  1.0000
  O   O3        1.0  0.4136263397309321  0.6227901575957375  0.9251597039140123  1.0000
  O   O4        1.0  0.9136249765337112  0.8772073393593232  0.074838268099775  1.0000
  O   O5        1.0  0.4136304687547748  0.8772091471340886  0.4251622388967746  1.0000
  O   O6        1.0  0.9136236001924302  0.6227955809200338  0.5748372541066686  1.0000
  O   O7        1.0  0.586373686557188  0.3772111866655763  0.0748433380652997  1.0000
  O   O8        1.0  0.0863750497544089  0.1227894854650771  0.9251571689312499  1.0000
  O   O9        1.0  0.5312209387560074  0.0475327258230038  0.8869483877509622  1.0000
  O   O10       1.0  0.0312112912229807  0.4524706579698048  0.11305465422834969  1.0000
  O   O11       1.0  0.4687845928972365  0.5475315901788989  0.6130561752180057  1.0000
  O   O12       1.0  0.9687804770174537  0.9524713301004581  0.3869412897992319  1.0000
  O   O13       1.0  0.4687928509449151  0.9524695223256926  0.11305871020076808  1.0000
  O   O14       1.0  0.9687832297000155  0.5475252629672127  0.8869412897992319  1.0000
  O   O15       1.0  0.5312085516844789  0.4524706579698048  0.3869468667613062  1.0000
  O   O16       1.0  0.031216796588104497  0.0475300141608557  0.6130531332386937  1.0000
  O   O17       1.0  0.638854955932487  0.2334958043908628  0.884635469478809  1.0000
  O   O18       1.0  0.1388480610820224  0.2665084832893285  0.1153665585074037  1.0000
  O   O19       1.0  0.3611505757207567  0.7334928609719853  0.615370614479822  1.0000
  O   O20       1.0  0.861143707158412  0.7665091554199888  0.3846298925167275  1.0000
  O   O21       1.0  0.3611450703556329  0.7665100593073717  0.1153706144798221  1.0000
  O   O22       1.0  0.8611560942299403  0.7334901493098371  0.8846298925167275  1.0000
  O   O23       1.0  0.6388466978848015  0.2665084832893285  0.3846359764753586  1.0000
  O   O24       1.0  0.1388453083994605  0.2334949005034801  0.615366051510847  1.0000
  O   O25       1.0  0.7982228891688266  0.41943899743628776  0.5132473129182742  1.0000
  O   O26       1.0  0.29822562870732827  0.0805589630322245  0.4867537010748321  1.0000
  O   O27       1.0  0.2017798898018555  0.9194432851164791  0.9867526870817257  1.0000
  O   O28       1.0  0.7017757739220727  0.5805587312754952  0.0132483269113735  1.0000
  O   O29       1.0  0.2017771371192936  0.5805569235007297  0.48675319407828244  1.0000
  O   O30       1.0  0.7017785266046344  0.9194423812290964  0.5132468059217175  1.0000
  O   O31       1.0  0.7982256418513884  0.0805616746943727  0.0132462989251678  1.0000
  O   O32       1.0  0.2982214996834855  0.4194399013236704  0.986753701074832  1.0000
