data_image0
_chemical_formula_structural       Cd3H28C46S6N14
_chemical_formula_sum              "Cd3 H28 C46 S6 N14"
_cell_length_a       8.972570922684495
_cell_length_b       11.323778316940725
_cell_length_c       14.181515453506043
_cell_angle_alpha    77.03665860912007
_cell_angle_beta     81.3015463687213
_cell_angle_gamma    68.65678943560374

_space_group_name_H-M_alt    "P 1"
_space_group_IT_number       1

loop_
  _space_group_symop_operation_xyz
  'x, y, z'

loop_
  _atom_site_type_symbol
  _atom_site_label
  _atom_site_symmetry_multiplicity
  _atom_site_fract_x
  _atom_site_fract_y
  _atom_site_fract_z
  _atom_site_occupancy
  Cd  Cd1       1.0  0.7838225269435526  0.357982214849656  0.26572443811156893  1.0000
  Cd  Cd2       1.0  0.21618149981663487  0.6420252399078735  0.7342731875777773  1.0000
  Cd  Cd3       1.0  0.9999967503697674  4.210663532978678e-07  5.0764570290099004e-06  1.0000
  H   H1        1.0  0.836124052993675  0.7081562996331456  0.8029252388365649  1.0000
  H   H2        1.0  0.16386526889410644  0.2918616274587578  0.1970755563904873  1.0000
  H   H3        1.0  0.5639404080210468  0.8065637092970305  0.7347632654310913  1.0000
  H   H4        1.0  0.43605608331665  0.19343845964455403  0.26522723228161743  1.0000
  H   H5        1.0  0.5497490608439364  0.9044750925762199  0.5591405171307926  1.0000
  H   H6        1.0  0.4502548954172595  0.09553835446929071  0.4408520187379068  1.0000
  H   H7        1.0  0.8020716213452487  0.9007319151145547  0.4563711789625913  1.0000
  H   H8        1.0  0.19793631804010653  0.0992717459405341  0.5436252751580355  1.0000
  H   H9        1.0  0.01663953182621462  0.9069058912483072  0.3834822225360525  1.0000
  H   H10       1.0  0.9833562050667409  0.09308910626919699  0.6165178339237087  1.0000
  H   H11       1.0  0.5306662648952594  0.7283555173737996  0.3849603938931807  1.0000
  H   H12       1.0  0.4693405911147223  0.2716138622186506  0.6150347083917822  1.0000
  H   H13       1.0  0.7121047028826267  0.5844407363464298  0.4599304831427347  1.0000
  H   H14       1.0  0.2879008246667425  0.41552084606821177  0.5400679586585753  1.0000
  H   H15       1.0  0.9308721008825028  0.4490577180169025  0.5689054627523477  1.0000
  H   H16       1.0  0.06912506623502415  0.5509016900482991  0.4310995878619082  1.0000
  H   H17       1.0  0.8623240165211357  0.4010326517779107  0.7477045713852988  1.0000
  H   H18       1.0  0.13767169235773485  0.5989487715677411  0.25229955229272605  1.0000
  H   H19       1.0  0.5742006513473824  0.4857340144527526  0.8105741413964652  1.0000
  H   H20       1.0  0.425796683389386  0.5142705911914119  0.1894244127071403  1.0000
  H   H21       1.0  0.5209365674968822  0.907290160190584  0.27890182014472487  1.0000
  H   H22       1.0  0.47908475958582397  0.09270876863202199  0.7210914492800954  1.0000
  H   H23       1.0  0.5295128990326674  0.0288259103028281  0.11079211395157529  1.0000
  H   H24       1.0  0.47047584883922866  0.9711913910353543  0.8892024620447714  1.0000
  H   H25       1.0  0.30090628016569804  0.0737344573360517  0.007693201106640396  1.0000
  H   H26       1.0  0.6990688494600477  0.9262766292851549  0.9923132073315201  1.0000
  H   H27       1.0  0.0747473758526735  0.8753667342978421  0.22677856946268085  1.0000
  H   H28       1.0  0.9252636715275386  0.1246258509542457  0.7732284094676984  1.0000
  C   C1        1.0  0.8231857070914685  0.7500335572493453  0.7260307662840191  1.0000
  C   C2        1.0  0.17682061227858972  0.2499739591744614  0.2739652606059266  1.0000
  C   C3        1.0  0.6729561360381737  0.8053834987793919  0.6886165504728936  1.0000
  C   C4        1.0  0.3270422410474937  0.19462705620156126  0.3113775394979755  1.0000
  C   C5        1.0  0.665634518030579  0.8602471639376714  0.5904533499684206  1.0000
  C   C6        1.0  0.33436881761406306  0.1397594068210211  0.4095430442968748  1.0000
  C   C7        1.0  0.8069596395362312  0.8574392369952335  0.5330243760810447  1.0000
  C   C8        1.0  0.1930502227046702  0.1425624534243184  0.4669729173428365  1.0000
  C   C9        1.0  0.9538647678550446  0.7967181805965352  0.5751523212573061  1.0000
  C   C10       1.0  0.046141570035985055  0.2032863027911276  0.42484696308677167  1.0000
  C   C11       1.0  0.11056277728478378  0.7827222073807931  0.5174101101847484  1.0000
  C   C12       1.0  0.8894517388823926  0.21727668401164377  0.4825851054630377  1.0000
  C   C13       1.0  0.12299170525250949  0.8423755207468704  0.4202804215674476  1.0000
  C   C14       1.0  0.8770229668487132  0.15761449289007598  0.5797202911798963  1.0000
  C   C15       1.0  0.2755090894287946  0.82256187785574  0.3709037240057143  1.0000
  C   C16       1.0  0.7245084140486923  0.17743181934518054  0.6290990642626042  1.0000
  C   C17       1.0  0.41096045662014535  0.7442853949587587  0.4213783211684898  1.0000
  C   C18       1.0  0.5890554305581758  0.2556974365490349  0.5786134441386892  1.0000
  C   C19       1.0  0.38977840933021907  0.6887764875775773  0.5187994258724444  1.0000
  C   C20       1.0  0.6102178144167353  0.31122080048685064  0.4811932046780072  1.0000
  C   C21       1.0  0.5264993901736403  0.6072045019104236  0.5787860047093929  1.0000
  C   C22       1.0  0.4735146242690861  0.39278470151200656  0.4212120515262754  1.0000
  C   C23       1.0  0.6846435400391114  0.5621682254220842  0.5379062756401823  1.0000
  C   C24       1.0  0.31537221875399263  0.43780081056090836  0.4620938321480992  1.0000
  C   C25       1.0  0.8069507587608911  0.4873213588772104  0.5984372368690956  1.0000
  C   C26       1.0  0.19305675670003802  0.5126457610014583  0.4015644919254768  1.0000
  C   C27       1.0  0.7699016178358137  0.4591783215215486  0.6981194113736392  1.0000
  C   C28       1.0  0.23009761174241555  0.5408107393152264  0.3018840492514769  1.0000
  C   C29       1.0  0.6097927736569274  0.5061570138417862  0.733221231028729  1.0000
  C   C30       1.0  0.39021009551276353  0.49383687280292315  0.2667805487347721  1.0000
  C   C31       1.0  0.2925476851577145  0.8861615033213043  0.2690625147074002  1.0000
  C   C32       1.0  0.7074482022263238  0.1138381168282478  0.7309403967212661  1.0000
  C   C33       1.0  0.42401807540415604  0.9266051817235234  0.23320639256519374  1.0000
  C   C34       1.0  0.5759821110879102  0.07339271391755628  0.7667921966482895  1.0000
  C   C35       1.0  0.4298730650938012  0.9941503644042339  0.13858042910470672  1.0000
  C   C36       1.0  0.5701093103234456  0.00586600944591002  0.8614147748346639  1.0000
  C   C37       1.0  0.3052157165160594  0.0183634636695871  0.0814237077052127  1.0000
  C   C38       1.0  0.694766930076824  0.9816516512011046  0.9185773033922828  1.0000
  C   C39       1.0  0.17549901540778742  0.9106376704308513  0.20488580774558335  1.0000
  C   C40       1.0  0.8244967178346486  0.08936775754587957  0.7951155765814732  1.0000
  C   C41       1.0  0.8055191117354354  0.6452058169210773  0.2828155757240012  1.0000
  C   C42       1.0  0.19446835965386097  0.35480072798746676  0.7171841721552141  1.0000
  C   C43       1.0  0.8924504688323295  0.30596578799903534  0.039206462892522595  1.0000
  C   C44       1.0  0.10753791287012865  0.6940433411807233  0.9607984912023539  1.0000
  C   C45       1.0  0.7743598659487531  0.07102909610581777  0.19482078581030748  1.0000
  C   C46       1.0  0.22564109523585055  0.9289741585975052  0.8051847399713594  1.0000
  S   S1        1.0  0.8266672007610437  0.76771648638438  0.31287689482176256  1.0000
  S   S2        1.0  0.17331922648689616  0.23228717911568003  0.6871233471922409  1.0000
  S   S3        1.0  0.02153694625269517  0.743729594593958  0.06136825731668694  1.0000
  S   S4        1.0  0.9784456352185411  0.25628230277979475  0.938639573953985  1.0000
  S   S5        1.0  0.7590898127022995  0.09942845048895778  0.304021182786208  1.0000
  S   S6        1.0  0.24092598346675234  0.9005793480791051  0.6959860688377618  1.0000
  N   N1        1.0  0.9593100949130076  0.7453129630143847  0.6708020928157694  1.0000
  N   N2        1.0  0.040690827437209975  0.2546994276895376  0.32919294805969906  1.0000
  N   N3        1.0  0.2423178973942725  0.7083301022988666  0.5637487633664406  1.0000
  N   N4        1.0  0.7576922993514611  0.2916766165664839  0.4362435470444623  1.0000
  N   N5        1.0  0.491541990866999  0.577927212506978  0.6753806001398885  1.0000
  N   N6        1.0  0.5084575695655501  0.4220773072348223  0.3246192053395447  1.0000
  N   N7        1.0  0.18235726881958664  0.9748011827289319  0.11362002155372856  1.0000
  N   N8        1.0  0.817637533665028  0.025216345146269217  0.8863874648319338  1.0000
  N   N9        1.0  0.785867541427592  0.5566424906781221  0.26165091932374207  1.0000
  N   N10       1.0  0.21412897958538213  0.4433787637122392  0.7383580168949848  1.0000
  N   N11       1.0  0.8301403152398947  0.3442894165712573  0.111434923480239  1.0000
  N   N12       1.0  0.16984914226851808  0.6557257357296108  0.8885641413942906  1.0000
  N   N13       1.0  0.7843797768121944  0.0501472503533265  0.11535230688688362  1.0000
  N   N14       1.0  0.2156058552329226  0.9498700308567861  0.8846615746963736  1.0000
