data_image0
_chemical_formula_structural       NiH14C6N2O10
_chemical_formula_sum              "Ni1 H14 C6 N2 O10"
_cell_length_a       4.960286434734672
_cell_length_b       5.339584352968434
_cell_length_c       11.670077146735487
_cell_angle_alpha    95.37760937116448
_cell_angle_beta     80.16779212558204
_cell_angle_gamma    95.23119440990408

_space_group_name_H-M_alt    "P 1"
_space_group_IT_number       1

loop_
  _space_group_symop_operation_xyz
  'x, y, z'

loop_
  _atom_site_type_symbol
  _atom_site_label
  _atom_site_symmetry_multiplicity
  _atom_site_fract_x
  _atom_site_fract_y
  _atom_site_fract_z
  _atom_site_occupancy
  Ni  Ni1       1.0  0.9999721141611108  0.5000123557484246  6.255628527156313e-06  1.0000
  H   H1        1.0  0.7949181263241485  0.4544994971930905  0.637372780074756  1.0000
  H   H2        1.0  0.2051907172864702  0.5454751508933597  0.3626034878372977  1.0000
  H   H3        1.0  0.48007817122775265  0.5850294514660774  0.6963328905195069  1.0000
  H   H4        1.0  0.5199911533085455  0.4149075637691411  0.3036374154957285  1.0000
  H   H5        1.0  0.520022720474465  0.6305261135788599  0.13068202626936198  1.0000
  H   H6        1.0  0.47993168470436853  0.3695318034226531  0.869333857853739  1.0000
  H   H7        1.0  0.5794531835946728  0.8837878971197952  0.5686440817682266  1.0000
  H   H8        1.0  0.42057200202124534  0.116191990701644  0.4313556211184347  1.0000
  H   H9        1.0  0.7812922721052544  0.07783679576366609  0.9403966272130687  1.0000
  H   H10       1.0  0.21865594015783074  0.9222169891001215  0.05961968345056329  1.0000
  H   H11       1.0  0.7701140357680459  0.062186718241875404  0.07325671152301538  1.0000
  H   H12       1.0  0.2298708088131534  0.937846235249367  0.926753279425533  1.0000
  H   H13       1.0  0.7805780554872542  0.756294133818443  0.18997810155203607  1.0000
  H   H14       1.0  0.2193845189796022  0.24373441683608374  0.8100489762683903  1.0000
  C   C1        1.0  0.811459116779659  0.7098723790082674  0.7900919087481736  1.0000
  C   C2        1.0  0.1885169416895565  0.2901053522103325  0.20991657722199616  1.0000
  C   C3        1.0  0.9991144757127445  0.898386112961191  0.5424764404687321  1.0000
  C   C4        1.0  0.0009394887902515985  0.10160636627335148  0.4575186495038252  1.0000
  C   C5        1.0  0.7027756090344751  0.6291070445743188  0.675527645913476  1.0000
  C   C6        1.0  0.29728796478016045  0.37084822693176994  0.32445354471472126  1.0000
  N   N1        1.0  0.7483637234498985  0.8181449922629794  0.5926442274799371  1.0000
  N   N2        1.0  0.2516854237579054  0.18181415445204147  0.4073329070894544  1.0000
  O   O1        1.0  0.21592484218602687  0.8178320946842631  0.5600276017597351  1.0000
  O   O2        1.0  0.7841122957325625  0.18214939763445406  0.4399540383831634  1.0000
  O   O3        1.0  0.9002526015328981  0.9338977559400162  0.8107194249067786  1.0000
  O   O4        1.0  0.09969907172960289  0.06608020476635797  0.18930118480567865  1.0000
  O   O5        1.0  0.7135185124688589  0.7087308353489163  0.1164555397920992  1.0000
  O   O6        1.0  0.2864337962063743  0.29130574177624874  0.8835680657408458  1.0000
  O   O7        1.0  0.7961294794506912  0.5292046795337626  0.8572775469939697  1.0000
  O   O8        1.0  0.2038176787323422  0.4707909003631983  0.1427160347760292  1.0000
  O   O9        1.0  0.7441910320197991  0.18047271065971426  0.017024348112201364  1.0000
  O   O10       1.0  0.25574254306830113  0.8195729621236225  0.9829835298410925  1.0000
