data_image0
_chemical_formula_structural       Dy2H14C16N2O16
_chemical_formula_sum              "Dy2 H14 C16 N2 O16"
_cell_length_a       5.813222464700983
_cell_length_b       10.335854310641045
_cell_length_c       11.236253082764685
_cell_angle_alpha    105.9074850329162
_cell_angle_beta     99.65607128885411
_cell_angle_gamma    106.96734481279894

_space_group_name_H-M_alt    "P 1"
_space_group_IT_number       1

loop_
  _space_group_symop_operation_xyz
  'x, y, z'

loop_
  _atom_site_type_symbol
  _atom_site_label
  _atom_site_symmetry_multiplicity
  _atom_site_fract_x
  _atom_site_fract_y
  _atom_site_fract_z
  _atom_site_occupancy
  Dy  Dy1       1.0  0.35902187898856397  0.813343679215464  0.5574196942607088  1.0000
  Dy  Dy2       1.0  0.6409708016662634  0.18664630139597452  0.4425801685717801  1.0000
  H   H1        1.0  0.2108675981793482  0.7013364316023215  0.10346847068461072  1.0000
  H   H2        1.0  0.7891421272129975  0.2986682000628917  0.8965184378212073  1.0000
  H   H3        1.0  0.6139343881543198  0.9308088801610382  0.9951253783079397  1.0000
  H   H4        1.0  0.3860799730882292  0.0692006119837671  0.004879967562260401  1.0000
  H   H5        1.0  0.6937343604172953  0.7783406590652932  0.777780172441844  1.0000
  H   H6        1.0  0.3062679936703958  0.2216631708813921  0.22221838308342265  1.0000
  H   H7        1.0  0.7618073872622659  0.7183970184658721  0.6448838799144384  1.0000
  H   H8        1.0  0.2381955344425535  0.28160474385541784  0.3551160261388305  1.0000
  H   H9        1.0  0.7166343881609407  0.8711068237913364  0.40647992927731025  1.0000
  H   H10       1.0  0.2833653342305454  0.12889838595160097  0.5935302938652144  1.0000
  H   H11       1.0  0.7023029252776567  0.717252956885389  0.4051664227872252  1.0000
  H   H12       1.0  0.29769601865176304  0.2827540426014039  0.5948334646934015  1.0000
  H   H13       1.0  0.017611436007690863  0.6734460607206643  0.8761478349399568  1.0000
  H   H14       1.0  0.9823772417294094  0.32655527748026  0.12384452121982294  1.0000
  C   C1        1.0  0.0795373301818997  0.7543451430292124  0.08292591119739265  1.0000
  C   C2        1.0  0.9204682864726054  0.24565532286027997  0.917065022778786  1.0000
  C   C3        1.0  0.017060319852134926  0.8397731949471208  0.18336339237372815  1.0000
  C   C4        1.0  0.9829559323380365  0.16022752650929564  0.8166311823674307  1.0000
  C   C5        1.0  0.8499421445762466  0.9078125834798956  0.15299813451876795  1.0000
  C   C6        1.0  0.15006788857018455  0.09218937700749312  0.8470050972245391  1.0000
  C   C7        1.0  0.7475607096859491  0.8820404340167871  0.023068444361520373  1.0000
  C   C8        1.0  0.2524484075844882  0.11796902760309542  0.9769382259230497  1.0000
  C   C9        1.0  0.7780769494826599  0.006103713183094298  0.25224272241329976  1.0000
  C   C10       1.0  0.22193432026265483  0.9939003992064176  0.7477611133662665  1.0000
  C   C11       1.0  0.13409301780667696  0.8515504311769674  0.31760768226398994  1.0000
  C   C12       1.0  0.8659244498978893  0.1484524143934109  0.6823865980000363  1.0000
  C   C13       1.0  0.08289065595749176  0.4716578491655241  0.46082513935304104  1.0000
  C   C14       1.0  0.9170463859946878  0.528308105170666  0.5391750803420764  1.0000
  C   C15       1.0  0.971449748597337  0.7377559165276824  0.9569859948929536  1.0000
  C   C16       1.0  0.028551788917134505  0.26224349937439945  0.04300701753032851  1.0000
  N   N1        1.0  0.8049492349414675  0.7988974705646825  0.9274522515350655  1.0000
  N   N2        1.0  0.1950561810456293  0.20110862334899346  0.07254976110409933  1.0000
  O   O1        1.0  0.041383888849914216  0.7483692043692401  0.3558666300847051  1.0000
  O   O2        1.0  0.9586307278001911  0.2516316551156947  0.6441331781993257  1.0000
  O   O3        1.0  0.33302192441438905  0.9568224044652781  0.38440467598360334  1.0000
  O   O4        1.0  0.6669738943621439  0.043182247690047915  0.6155890588429642  1.0000
  O   O5        1.0  0.8484788440696035  0.017486511295963705  0.37080305997782403  1.0000
  O   O6        1.0  0.15153846513654645  0.9825220178749062  0.6292040959759717  1.0000
  O   O7        1.0  0.6493321464818609  0.0767577979312648  0.21903761791261905  1.0000
  O   O8        1.0  0.35067078779412236  0.9232409041780301  0.7809660321906833  1.0000
  O   O9        1.0  0.644847362124935  0.7609037072748422  0.6814182436097056  1.0000
  O   O10       1.0  0.3551602359348606  0.23910015319675887  0.3185789875011907  1.0000
  O   O11       1.0  0.2685815250485603  0.5619100199883817  0.45005086133445366  1.0000
  O   O12       1.0  0.7313643693077624  0.4380561334261657  0.5499519430747881  1.0000
  O   O13       1.0  0.6085744496071613  0.7820642307332124  0.41607443264354077  1.0000
  O   O14       1.0  0.3914289233853552  0.2179412031394748  0.5839414966542621  1.0000
  O   O15       1.0  0.014154208676615097  0.3345192097981737  0.4126832125684389  1.0000
  O   O16       1.0  0.985831508128058  0.6654707671642512  0.5873196141677327  1.0000
