data_image0
_chemical_formula_structural       CdH8C8S2N8
_chemical_formula_sum              "Cd1 H8 C8 S2 N8"
_cell_length_a       5.783451066192721
_cell_length_b       6.556310767782897
_cell_length_c       8.95380782446242
_cell_angle_alpha    105.40093928119683
_cell_angle_beta     95.4101289123523
_cell_angle_gamma    96.90886945158762

_space_group_name_H-M_alt    "P 1"
_space_group_IT_number       1

loop_
  _space_group_symop_operation_xyz
  'x, y, z'

loop_
  _atom_site_type_symbol
  _atom_site_label
  _atom_site_symmetry_multiplicity
  _atom_site_fract_x
  _atom_site_fract_y
  _atom_site_fract_z
  _atom_site_occupancy
  Cd  Cd1       1.0  1.9900057090285776e-05  0.9999959496008872  0.9999951895425525  1.0000
  H   H1        1.0  0.5596307419940842  0.9818965843243107  0.6747508824096614  1.0000
  H   H2        1.0  0.4403419818001311  0.018076728267026002  0.3252506624540743  1.0000
  H   H3        1.0  0.2516656710941517  0.31557375740968757  0.7816740036028094  1.0000
  H   H4        1.0  0.7483005017551959  0.6844394705964733  0.21832215083713183  1.0000
  H   H5        1.0  0.06501669740525531  0.30654661777217745  0.380105219793748  1.0000
  H   H6        1.0  0.9349598578355511  0.693447449909769  0.6198938204325799  1.0000
  H   H7        1.0  0.25351450404541964  0.471386735681925  0.549960559141276  1.0000
  H   H8        1.0  0.7464593607331693  0.5286104980933645  0.4500343748137539  1.0000
  C   C1        1.0  0.7219353292367856  0.08132092736360622  0.6706413819064281  1.0000
  C   C2        1.0  0.2780891986085194  0.918705021850805  0.32934978535147513  1.0000
  C   C3        1.0  0.0730920113564366  0.2484042808216884  0.7273206092591309  1.0000
  C   C4        1.0  0.9269058439241603  0.7516042207784039  0.2726862797490242  1.0000
  C   C5        1.0  0.0702423778533259  0.40812290323829364  0.4999028935050448  1.0000
  C   C6        1.0  0.929735067579358  0.591883899645545  0.5000896601536766  1.0000
  C   C7        1.0  0.44905332132744746  0.7396777592307873  0.8756683170458573  1.0000
  C   C8        1.0  0.5509958972650111  0.2603226650569255  0.1243302262661388  1.0000
  S   S1        1.0  0.6864461770926623  0.6286027180863273  0.8741020652220329  1.0000
  S   S2        1.0  0.3135959552980481  0.37138486704964896  0.12588901045710807  1.0000
  N   N1        1.0  0.9729042114936489  0.2792692770950112  0.59488801680385  1.0000
  N   N2        1.0  0.027070856977260967  0.7207247560545798  0.4051064209236515  1.0000
  N   N3        1.0  0.7482092767084082  0.17351224833301163  0.5566421497105765  1.0000
  N   N4        1.0  0.251772002983806  0.8264723032735902  0.4433666880242555  1.0000
  N   N5        1.0  0.9181975810953275  0.12280358701881514  0.7780951907915536  1.0000
  N   N6        1.0  0.08176810724265948  0.877188903692051  0.2219059895911926  1.0000
  N   N7        1.0  0.2744055686096871  0.8167641655208515  0.8717781113032927  1.0000
  N   N8        1.0  0.7256667991762242  0.1832555884993781  0.12824164532758434  1.0000
