data_image0
_chemical_formula_structural       Zn2H36C36S2N4O8
_chemical_formula_sum              "Zn2 H36 C36 S2 N4 O8"
_cell_length_a       5.330945120510417
_cell_length_b       10.185153484127865
_cell_length_c       17.22321177257188
_cell_angle_alpha    101.41355268273524
_cell_angle_beta     90.00237826681206
_cell_angle_gamma    90.0092775907176

_space_group_name_H-M_alt    "P 1"
_space_group_IT_number       1

loop_
  _space_group_symop_operation_xyz
  'x, y, z'

loop_
  _atom_site_type_symbol
  _atom_site_label
  _atom_site_symmetry_multiplicity
  _atom_site_fract_x
  _atom_site_fract_y
  _atom_site_fract_z
  _atom_site_occupancy
  Zn  Zn1       1.0  0.7513381608489099  0.24999497259922512  0.7499960050768164  1.0000
  Zn  Zn2       1.0  0.2486663818588681  0.7500135831194751  0.2500043385374652  1.0000
  H   H1        1.0  0.7706771602192363  0.002586494433138907  0.8115492339814735  1.0000
  H   H2        1.0  0.7706977485507452  0.4974388257699758  0.6884670091598153  1.0000
  H   H3        1.0  0.22931424883005036  0.997405992215938  0.18844762388934552  1.0000
  H   H4        1.0  0.22929928972367716  0.5025695090093335  0.3115246003501965  1.0000
  H   H5        1.0  0.5263322284882362  0.8880509941318946  0.9003198157235913  1.0000
  H   H6        1.0  0.5263589750442392  0.6119895777880868  0.5997061188263472  1.0000
  H   H7        1.0  0.47365730641516274  0.11194862072436959  0.09968246103910157  1.0000
  H   H8        1.0  0.4736099249549284  0.38801280537203536  0.4002871675041959  1.0000
  H   H9        1.0  0.03533050198455359  0.23431100725742476  0.9463898564214757  1.0000
  H   H10       1.0  0.03520952136861409  0.26569917123669734  0.5536052150377699  1.0000
  H   H11       1.0  0.9646796681031874  0.7656936455813294  0.05361412841222086  1.0000
  H   H12       1.0  0.9647931429898052  0.7342924026530894  0.44639502785408774  1.0000
  H   H13       1.0  0.3097198820321196  0.336984197252221  0.8586050989416377  1.0000
  H   H14       1.0  0.3096627766257782  0.16299296184585896  0.6413635852709874  1.0000
  H   H15       1.0  0.6902865355915538  0.6630164199148253  0.14139728661525197  1.0000
  H   H16       1.0  0.6903680246513771  0.8370004105197354  0.358628723388115  1.0000
  H   H17       1.0  0.17444407321247718  0.8772003099448393  0.9822763082769582  1.0000
  H   H18       1.0  0.1744507209358019  0.6228251197199552  0.5177368249649916  1.0000
  H   H19       1.0  0.825554842138594  0.12280537330036616  0.01772894969701609  1.0000
  H   H20       1.0  0.8255256831046934  0.377175466631435  0.4822643958443678  1.0000
  H   H21       1.0  0.2084185620668251  0.5768932059959649  0.9060469444946191  1.0000
  H   H22       1.0  0.20807961155728094  0.9230608923801777  0.5939039886082824  1.0000
  H   H23       1.0  0.7915953591657824  0.42310939985836854  0.09395507619920096  1.0000
  H   H24       1.0  0.7919249291762824  0.07693272875724938  0.4060982184623114  1.0000
  H   H25       1.0  0.9582679094504982  0.6955901756661547  0.9102154111960274  1.0000
  H   H26       1.0  0.957868683591272  0.8043952108734017  0.5898287599437209  1.0000
  H   H27       1.0  0.0417478876594188  0.30441050076317566  0.08978930350627928  1.0000
  H   H28       1.0  0.0421471129492517  0.19560147417737989  0.41017610231816787  1.0000
  H   H29       1.0  0.27597918606628713  0.580033119092647  0.7636266667204124  1.0000
  H   H30       1.0  0.2760259285495508  0.9200138028121569  0.7363090369714056  1.0000
  H   H31       1.0  0.7240366094039459  0.419959471638336  0.23637426720991067  1.0000
  H   H32       1.0  0.7239673583543292  0.07998781526180208  0.26369345717247933  1.0000
  H   H33       1.0  0.3428963788244275  0.7352091816373372  0.8269419421970523  1.0000
  H   H34       1.0  0.3426535301949655  0.7647698726593075  0.6730261270173797  1.0000
  H   H35       1.0  0.6571287973595191  0.2647924379282287  0.17306055216699429  1.0000
  H   H36       1.0  0.6573491366758759  0.23523480924026774  0.3269790223048544  1.0000
  C   C1        1.0  0.6073530015555519  0.05091036996036988  0.843015939464969  1.0000
  C   C2        1.0  0.6073687577191577  0.4491144587691805  0.6569903623503207  1.0000
  C   C3        1.0  0.392636533116054  0.9490882286688912  0.15698564634991635  1.0000
  C   C4        1.0  0.3926320325961114  0.5508900759837089  0.34300896425731503  1.0000
  C   C5        1.0  0.46777272980042994  0.9870040461195728  0.8923718389375495  1.0000
  C   C6        1.0  0.46778351767729026  0.5130188374566201  0.6076444132850509  1.0000
  C   C7        1.0  0.5322168052258932  0.012998499770546295  0.10762785250726377  1.0000
  C   C8        1.0  0.5322060158353423  0.48697468003761907  0.3923537177907902  1.0000
  C   C9        1.0  0.25304137422396883  0.048903805064668404  0.9307488198950438  1.0000
  C   C10       1.0  0.2530255531444681  0.45111500608546595  0.5692590173829402  1.0000
  C   C11       1.0  0.7469594162374734  0.9510968853686278  0.06925647697382686  1.0000
  C   C12       1.0  0.7469602297040225  0.5488835629565185  0.4307414038657171  1.0000
  C   C13       1.0  0.1968719415070197  0.17847427556911546  0.9185622614790104  1.0000
  C   C14       1.0  0.19680402935382094  0.321529042765249  0.581434979038498  1.0000
  C   C15       1.0  0.8031232228221158  0.8215363856943652  0.08144237531696055  1.0000
  C   C16       1.0  0.8031704966345431  0.678463340152895  0.4185578028246083  1.0000
  C   C17       1.0  0.3479286548089248  0.23742642529784763  0.8694987961790799  1.0000
  C   C18       1.0  0.34787010144061264  0.2625666204862398  0.6304833651346938  1.0000
  C   C19       1.0  0.6520758872579079  0.7625781243364144  0.13050111272462317  1.0000
  C   C20       1.0  0.6521456928333436  0.7374228186224625  0.36951142006105187  1.0000
  C   C21       1.0  0.1047522228668285  0.976991634272501  0.9796598606027087  1.0000
  C   C22       1.0  0.1047470236120205  0.5230231662274888  0.5203477996699846  1.0000
  C   C23       1.0  0.895242941141838  0.023017023948767697  0.020344558837969397  1.0000
  C   C24       1.0  0.8952443882016753  0.47698054303632614  0.47965840543722027  1.0000
  C   C25       1.0  0.8779263375836519  0.5001983825259443  0.8420211401107449  1.0000
  C   C26       1.0  0.8777565292825287  0.9998211966508487  0.6579724452921666  1.0000
  C   C27       1.0  0.1220763283630717  0.49979836073423917  0.1579860511411439  1.0000
  C   C28       1.0  0.1222254999771621  0.00017019980304410054  0.342020810215267  1.0000
  C   C29       1.0  0.060585049967173205  0.614727400091354  0.8714223399806753  1.0000
  C   C30       1.0  0.060297639481476005  0.8852804714499242  0.6285931165151338  1.0000
  C   C31       1.0  0.939421368549425  0.3852753377650727  0.1285849210928234  1.0000
  C   C32       1.0  0.9397144040396485  0.11471303239131458  0.37140443244594923  1.0000
  C   C33       1.0  0.19177694548312016  0.6650751554506582  0.8042464821463255  1.0000
  C   C34       1.0  0.19168582685347246  0.8349612886731703  0.6957435211776966  1.0000
  C   C35       1.0  0.808238851626797  0.3349255209786718  0.19575823255598118  1.0000
  C   C36       1.0  0.8083093355356894  0.16503638222767586  0.304260867349214  1.0000
  S   S1        1.0  0.9714890068542914  0.7500608935174354  0.7500480922719674  1.0000
  S   S2        1.0  0.0285155347177692  0.24993580571280205  0.24995735218238474  1.0000
  N   N1        1.0  0.5484045639737402  0.17411712047083938  0.8312490816947713  1.0000
  N   N2        1.0  0.5483868807091595  0.3258846515774038  0.6687341789703038  1.0000
  N   N3        1.0  0.4515905980203314  0.8258824064132778  0.16874970148578675  1.0000
  N   N4        1.0  0.451615784481632  0.6741177478679531  0.33125968986351495  1.0000
  O   O1        1.0  0.9758283610951465  0.40195319016933667  0.7906064279614355  1.0000
  O   O2        1.0  0.9757439751806204  0.09804577772261067  0.7093891239867887  1.0000
  O   O3        1.0  0.024194938676345104  0.5980483116613299  0.20939140822834187  1.0000
  O   O4        1.0  0.024230551700668505  0.9019487258849136  0.2906085333929269  1.0000
  O   O5        1.0  0.6574341066262405  0.5034673778229929  0.8663532516943347  1.0000
  O   O6        1.0  0.6572687948420538  0.9965686604855359  0.6336424748572043  1.0000
  O   O7        1.0  0.34258168941033057  0.49653307801791147  0.13364272895550758  1.0000
  O   O8        1.0  0.34273011602725484  0.003425447203454699  0.3663394613964285  1.0000
