data_image0
_chemical_formula_structural       Mn4H36C28N4O28
_chemical_formula_sum              "Mn4 H36 C28 N4 O28"
_cell_length_a       6.784636447129211
_cell_length_b       8.5075044177795
_cell_length_c       16.439878079879797
_cell_angle_alpha    89.99830495341493
_cell_angle_beta     89.9986808598249
_cell_angle_gamma    90.00161831044991

_space_group_name_H-M_alt    "P 1"
_space_group_IT_number       1

loop_
  _space_group_symop_operation_xyz
  'x, y, z'

loop_
  _atom_site_type_symbol
  _atom_site_label
  _atom_site_symmetry_multiplicity
  _atom_site_fract_x
  _atom_site_fract_y
  _atom_site_fract_z
  _atom_site_occupancy
  Mn  Mn1       1.0  0.9320657749179304  0.9447826248787692  0.4005204909849738  1.0000
  Mn  Mn2       1.0  0.067960876436274  0.4448062447253136  0.5994794205721591  1.0000
  Mn  Mn3       1.0  0.0679436233889703  0.9447762429074376  0.9005088388228658  1.0000
  Mn  Mn4       1.0  0.9320049103657622  0.4448243800042703  0.0994959392312751  1.0000
  H   H1        1.0  0.6605915465244223  0.8809084568530422  0.5393992129234847  1.0000
  H   H2        1.0  0.3394269514311148  0.38088500435002703  0.4606028957991484  1.0000
  H   H3        1.0  0.3394121627212101  0.880937895875796  0.0394049377252017  1.0000
  H   H4        1.0  0.6605459062738815  0.3809272664814073  0.9605819638088705  1.0000
  H   H5        1.0  0.8842873566948056  0.8875465647391252  0.5713563656608758  1.0000
  H   H6        1.0  0.115738745961508  0.3875339896553527  0.4286322589795404  1.0000
  H   H7        1.0  0.1157236472982817  0.8875756546074027  0.07136604033319571  1.0000
  H   H8        1.0  0.8842272868145997  0.38757895118946806  0.9286231923730811  1.0000
  H   H9        1.0  0.5296096966444352  0.7288613032142874  0.41265249482462  1.0000
  H   H10       1.0  0.4704373309818663  0.22896757854123712  0.587368977835787  1.0000
  H   H11       1.0  0.47046804196696707  0.7289803773051418  0.9126291105108777  1.0000
  H   H12       1.0  0.5295391915423053  0.22892138123560804  0.08737837140796502  1.0000
  H   H13       1.0  0.1452688107450157  0.7017805474396466  0.4651451851242072  1.0000
  H   H14       1.0  0.8547595721355846  0.2017868292204525  0.5348450735677872  1.0000
  H   H15       1.0  0.8547446087858291  0.701803684495779  0.9651522141930826  1.0000
  H   H16       1.0  0.1452262915050397  0.2017966032703669  0.03485081833678551  1.0000
  H   H17       1.0  0.0404284749872517  0.6304399015190825  0.3859655946182414  1.0000
  H   H18       1.0  0.9595959130083285  0.1304381572613309  0.6140312334394126  1.0000
  H   H19       1.0  0.9595735768462104  0.6304571777698555  0.8859673698818966  1.0000
  H   H20       1.0  0.0403977502539092  0.13043498551876098  0.11403249970465619  1.0000
  H   H21       1.0  0.3165873296015889  0.5797615654011138  0.31462411833222603  1.0000
  H   H22       1.0  0.683427899151468  0.07980946393956148  0.6853704457115485  1.0000
  H   H23       1.0  0.6834360740063944  0.5798066941532766  0.8146212174179297  1.0000
  H   H24       1.0  0.3165629416686642  0.07981370231597398  0.18540376017492832  1.0000
  H   H25       1.0  0.28076006519989954  0.9804859264896564  0.48893029236130303  1.0000
  H   H26       1.0  0.7192545821089881  0.4804916805840093  0.5110678549338346  1.0000
  H   H27       1.0  0.7192589269569396  0.980507180112554  0.9889252264672806  1.0000
  H   H28       1.0  0.2807350864954898  0.4805068655101861  0.011060146828910399  1.0000
  H   H29       1.0  0.19791184757617233  0.15574782187434266  0.4687732392458486  1.0000
  H   H30       1.0  0.8021060656571137  0.6557902162689615  0.5312286746222625  1.0000
  H   H31       1.0  0.8020820775453075  0.15577799871672937  0.9687588704804356  1.0000
  H   H32       1.0  0.19788719710375344  0.655772969141644  0.0312254034859976  1.0000
  H   H33       1.0  0.38325864741864984  0.6011159368601396  0.16620952009090217  1.0000
  H   H34       1.0  0.6167381729632878  0.10106335679759579  0.833790799877754  1.0000
  H   H35       1.0  0.6167236767646642  0.6010478935101062  0.6662115115452069  1.0000
  H   H36       1.0  0.3832657725385147  0.10107027714089159  0.33380340757586424  1.0000
  C   C1        1.0  0.5575983514202676  0.7329786706349068  0.3473884642807335  1.0000
  C   C2        1.0  0.4424665089192601  0.23305003160238152  0.6526031398040005  1.0000
  C   C3        1.0  0.4424684340985792  0.733048919680975  0.8473726456052405  1.0000
  C   C4        1.0  0.5575404177618282  0.23300916764070218  0.1526226081821562  1.0000
  C   C5        1.0  0.4387239577157586  0.6507267947162203  0.2928971634546471  1.0000
  C   C6        1.0  0.5613070437102721  0.1507401359443818  0.7070744137759348  1.0000
  C   C7        1.0  0.5613031648087413  0.6507327272346686  0.7928984644853756  1.0000
  C   C8        1.0  0.43867772268717425  0.1507412546071976  0.2071029185029829  1.0000
  C   C9        1.0  0.476159583965419  0.662746028416386  0.2100945761702633  1.0000
  C   C10       1.0  0.5238497324521134  0.16271853849048057  0.7898835080769118  1.0000
  C   C11       1.0  0.5238490000576022  0.6627146768951987  0.7101010994232411  1.0000
  C   C12       1.0  0.4761337848075584  0.16272755584653711  0.28989949137096  1.0000
  C   C13       1.0  0.6343959333990199  0.75536914912918  0.1836707767914803  1.0000
  C   C14       1.0  0.3655783332663916  0.2553506834830372  0.8163302172412941  1.0000
  C   C15       1.0  0.3655849716737549  0.7553295230994121  0.6836642048089772  1.0000
  C   C16       1.0  0.6344276160846575  0.25534211726874634  0.3163343563034857  1.0000
  C   C17       1.0  0.7486626664398202  0.8330014092016569  0.24211776039273764  1.0000
  C   C18       1.0  0.2513217134795767  0.3330248371613251  0.7578838667586822  1.0000
  C   C19       1.0  0.2513339343315976  0.8329956420920865  0.7420982832187022  1.0000
  C   C20       1.0  0.7486651843859062  0.33300592039988425  0.25790151922105764  1.0000
  C   C21       1.0  0.921000069739982  0.9369874720467876  0.2201208469787019  1.0000
  C   C22       1.0  0.07900124894528907  0.4369916489780152  0.7798895251814741  1.0000
  C   C23       1.0  0.07903533247374378  0.9369742878024353  0.7201030068528169  1.0000
  C   C24       1.0  0.9209527203269798  0.436949588093803  0.2798945919769125  1.0000
  C   C25       1.0  0.6746719878595115  0.7671876112498096  0.09401715351096841  1.0000
  C   C26       1.0  0.3252909043490674  0.267171350156488  0.9060098151048024  1.0000
  C   C27       1.0  0.3253202333013902  0.7671317958497638  0.5939921076269598  1.0000
  C   C28       1.0  0.6747237235026659  0.26713900966853293  0.4060117467535278  1.0000
  N   N1        1.0  0.7091931162719334  0.8218743751641142  0.3224969748556746  1.0000
  N   N2        1.0  0.2908395103646058  0.32191620911849844  0.6774963068023184  1.0000
  N   N3        1.0  0.29085756378273686  0.8219094646493018  0.8224746890493009  1.0000
  N   N4        1.0  0.7091352668401284  0.32187641731393773  0.1775234590499437  1.0000
  O   O1        1.0  0.8001981774401727  0.8585149511638049  0.5239715999186528  1.0000
  O   O2        1.0  0.19980184198138315  0.3584733612054691  0.47602963612712307  1.0000
  O   O3        1.0  0.19980560133728176  0.8585388871230747  0.023977434447083102  1.0000
  O   O4        1.0  0.8001605196691058  0.3585364070664666  0.9760177183221188  1.0000
  O   O5        1.0  0.09492768253889489  0.7291597371954025  0.4098583077886175  1.0000
  O   O6        1.0  0.9050736633046269  0.2291722301114021  0.5901345722087967  1.0000
  O   O7        1.0  0.9051118979311424  0.7291863618245884  0.909873982629712  1.0000
  O   O8        1.0  0.09490271299686269  0.22917381532608516  0.09014322816892673  1.0000
  O   O9        1.0  0.19821842106949816  0.0439576210331651  0.4508706781070231  1.0000
  O   O10       1.0  0.8018161768786383  0.5439790053552896  0.5491293017108632  1.0000
  O   O11       1.0  0.801787292230827  0.04398426471851019  0.9508587453331856  1.0000
  O   O12       1.0  0.19820751038690787  0.5439805715739254  0.0491424510112992  1.0000
  O   O13       1.0  0.011855907203532497  0.004897295829358899  0.2777069534854775  1.0000
  O   O14       1.0  0.9880844525390343  0.5048659933108225  0.722304575589483  1.0000
  O   O15       1.0  0.9881404009345047  0.004878779477351699  0.7776829099818701  1.0000
  O   O16       1.0  0.011855967909951897  0.5048798088587104  0.2223182781538213  1.0000
  O   O17       1.0  0.9606287458578606  0.9529865304972631  0.144877885510283  1.0000
  O   O18       1.0  0.0393996684760225  0.4529913986065352  0.8551389320418893  1.0000
  O   O19       1.0  0.039411420487276395  0.9530018371798195  0.6448658961018766  1.0000
  O   O20       1.0  0.9606081503567765  0.45294553114293734  0.355130848585226  1.0000
  O   O21       1.0  0.7870425784579496  0.6635812602859373  0.0622002687914573  1.0000
  O   O22       1.0  0.21290780992998748  0.16358298047658337  0.9378252483013868  1.0000
  O   O23       1.0  0.21292712252729018  0.6635323107302397  0.5621799401250273  1.0000
  O   O24       1.0  0.7870984344050312  0.1635108621665964  0.4378151636888674  1.0000
  O   O25       1.0  0.5854955473149276  0.872397225025139  0.0535444502019828  1.0000
  O   O26       1.0  0.41447695928120243  0.37241240683673743  0.9464523145626842  1.0000
  O   O27       1.0  0.41452181019899104  0.8723422477312608  0.5535288977406623  1.0000
  O   O28       1.0  0.5854890159025672  0.37233220980498766  0.4464672596021586  1.0000
