data_image0
_chemical_formula_structural       Zn2H32C48N8O8
_chemical_formula_sum              "Zn2 H32 C48 N8 O8"
_cell_length_a       5.345579743263408
_cell_length_b       14.316671375839956
_cell_length_c       18.724516052280197
_cell_angle_alpha    100.58351304054086
_cell_angle_beta     90.02622502914691
_cell_angle_gamma    100.7052439058539

_space_group_name_H-M_alt    "P 1"
_space_group_IT_number       1

loop_
  _space_group_symop_operation_xyz
  'x, y, z'

loop_
  _atom_site_type_symbol
  _atom_site_label
  _atom_site_symmetry_multiplicity
  _atom_site_fract_x
  _atom_site_fract_y
  _atom_site_fract_z
  _atom_site_occupancy
  Zn  Zn1       1.0  0.07499707061496248  0.00020362371446228659  0.7500975142003057  1.0000
  Zn  Zn2       1.0  0.925058537649562  0.99980264465308  0.24991681150198272  1.0000
  H   H1        1.0  0.6824540303121296  0.11095372232361456  0.711444378419614  1.0000
  H   H2        1.0  0.5722817602247545  0.8892502958356799  0.7885786670725281  1.0000
  H   H3        1.0  0.31754195264732493  0.8890117193178779  0.2885680704373997  1.0000
  H   H4        1.0  0.42773858011127425  0.11076027687714428  0.2114369545354293  1.0000
  H   H5        1.0  0.4183073879133515  0.11304402103345979  0.6040916016601302  1.0000
  H   H6        1.0  0.30608013650088145  0.8870255583500538  0.8958247492303286  1.0000
  H   H7        1.0  0.5816771968381858  0.8869323347307797  0.3959217086616178  1.0000
  H   H8        1.0  0.6939334581441728  0.11297900954041748  0.10418232396110481  1.0000
  H   H9        1.0  0.7817058329101912  0.8873120783815053  0.485406137066562  1.0000
  H   H10       1.0  0.8936509476977148  0.11291272835718048  0.0146996588345516  1.0000
  H   H11       1.0  0.21842645550941597  0.11272050554283909  0.5145866445652061  1.0000
  H   H12       1.0  0.10637476946779162  0.8870823443657442  0.9853180328528027  1.0000
  H   H13       1.0  0.026351480908253882  0.894380076369501  0.5987695869290804  1.0000
  H   H14       1.0  0.1312467943016955  0.10592264093227752  0.9014105880083747  1.0000
  H   H15       1.0  0.973719855925303  0.1056277961670915  0.40122096081952213  1.0000
  H   H16       1.0  0.8687900601047717  0.894076008940793  0.09860827139481641  1.0000
  H   H17       1.0  0.4986011888357068  0.8150884095877443  0.6236494310313248  1.0000
  H   H18       1.0  0.6838719016912052  0.18519657125734307  0.8761759961216882  1.0000
  H   H19       1.0  0.501437898972533  0.18489596291350807  0.3763642287983089  1.0000
  H   H20       1.0  0.3161517364058852  0.8148093433384032  0.1238436137611814  1.0000
  H   H21       1.0  0.6449049491445679  0.6791665812291114  0.5389949832696743  1.0000
  H   H22       1.0  0.9661027972859203  0.3209442905449862  0.960798101397458  1.0000
  H   H23       1.0  0.35498319831519615  0.32080401887087356  0.46099538464905265  1.0000
  H   H24       1.0  0.033938566504602405  0.6790634247349913  0.03921648015785449  1.0000
  H   H25       1.0  0.010862000678663743  0.479069350394539  0.5976778015137683  1.0000
  H   H26       1.0  0.5319870848716945  0.5213801273865144  0.9022638201450875  1.0000
  H   H27       1.0  0.9888428285764235  0.5209577408443024  0.4022669495348339  1.0000
  H   H28       1.0  0.4680628567759584  0.47862606100846955  0.09774086657711223  1.0000
  H   H29       1.0  0.8610868992964739  0.6164844039052183  0.6807307806164361  1.0000
  H   H30       1.0  0.24469172159803074  0.3841169686909184  0.8192295189976804  1.0000
  H   H31       1.0  0.1387645514510467  0.38354776027348686  0.3192469520347174  1.0000
  H   H32       1.0  0.7553631300191695  0.6158840527440291  0.18077585773009022  1.0000
  C   C1        1.0  0.6968511453959323  0.06258050069051539  0.660155225232799  1.0000
  C   C2        1.0  0.6348076537282381  0.9376002326628381  0.8398762439012372  1.0000
  C   C3        1.0  0.30316703870136075  0.937395735682408  0.3398489742422727  1.0000
  C   C4        1.0  0.3652239112575231  0.062399095661575574  0.1601325760014802  1.0000
  C   C5        1.0  0.5504876447451963  0.06301623009907328  0.5989194232790426  1.0000
  C   C6        1.0  0.4880272756509853  0.9370767772984789  0.9010716302319608  1.0000
  C   C7        1.0  0.4495267440011972  0.936967412825723  0.4010834130260577  1.0000
  C   C8        1.0  0.5120149129707912  0.062917597610884  0.09893470925825201  1.0000
  C   C9        1.0  0.5752745042752565  0.000461429123085082  0.5332453747051604  1.0000
  C   C10       1.0  0.5748236748349316  0.9996229038832284  0.9667811006885076  1.0000
  C   C11       1.0  0.42480791888976205  0.9995499135240921  0.4667479259495054  1.0000
  C   C12       1.0  0.42520462793430625  0.0003773973002906991  0.033224148338447904  1.0000
  C   C13       1.0  0.750651957580047  0.9385562486158534  0.533618910161934  1.0000
  C   C14       1.0  0.8116820877435842  0.06162538277534678  0.966473339458581  1.0000
  C   C15       1.0  0.2494471621590648  0.06146232022545209  0.46637566916852785  1.0000
  C   C16       1.0  0.1883620108984445  0.9383652801651292  0.03354464162617889  1.0000
  C   C17       1.0  0.8890075780110607  0.9415179497700237  0.5968588051350707  1.0000
  C   C18       1.0  0.9471042135298545  0.05871266819870158  0.9032684139020404  1.0000
  C   C19       1.0  0.11107153523769141  0.05848674546135158  0.4031354582193459  1.0000
  C   C20       1.0  0.05291681748365567  0.9412805220870055  0.09674466700738554  1.0000
  C   C21       1.0  0.0838762424709357  0.8056510675213812  0.7054484954162916  1.0000
  C   C22       1.0  0.2779764364290997  0.19474150590826153  0.7945956515275938  1.0000
  C   C23       1.0  0.9161273263420568  0.19435967604612608  0.2945537885096244  1.0000
  C   C24       1.0  0.7220885790338158  0.8052573553732715  0.2054200373070572  1.0000
  C   C25       1.0  0.17200124855222057  0.7235163155724181  0.6567549611608643  1.0000
  C   C26       1.0  0.4485114851601039  0.2768683935412851  0.8431476488230558  1.0000
  C   C27       1.0  0.8279357126081806  0.2764846987853317  0.34322902473449096  1.0000
  C   C28       1.0  0.5515278853658926  0.7231390986906447  0.15685940731405884  1.0000
  C   C29       1.0  0.39222401669410095  0.741348705755847  0.616532830807472  1.0000
  C   C30       1.0  0.65115662041827  0.2589513609963632  0.883298667914957  1.0000
  C   C31       1.0  0.6077386758572487  0.2586400994331015  0.3834586199943502  1.0000
  C   C32       1.0  0.34885800560114427  0.7410515114689955  0.11671184828841769  1.0000
  C   C33       1.0  0.47351297849737506  0.6668107997476722  0.5700420556756924  1.0000
  C   C34       1.0  0.8069670555021562  0.3333929949872071  0.9297962017118238  1.0000
  C   C35       1.0  0.5263568652653916  0.3331719283022494  0.4299312082687053  1.0000
  C   C36       1.0  0.1930709112679453  0.6666041643929006  0.07021223451166493  1.0000
  C   C37       1.0  0.3349564311012756  0.5717131477895023  0.5636849537123896  1.0000
  C   C38       1.0  0.7634997342847284  0.42853815102439086  0.9362058483496014  1.0000
  C   C39       1.0  0.6648462846798681  0.42828507697878854  0.43627554475521185  1.0000
  C   C40       1.0  0.23655659378231045  0.5714620761287675  0.06380045728275262  1.0000
  C   C41       1.0  0.11476704337405859  0.5533547145310037  0.603811874509539  1.0000
  C   C42       1.0  0.5616260267817239  0.44703855145235144  0.8960906770078978  1.0000
  C   C43       1.0  0.8849844504125599  0.4466609148574747  0.3961292449760236  1.0000
  C   C44       1.0  0.43843435022894534  0.552966047666878  0.10391586747331871  1.0000
  C   C45       1.0  0.032657618599479535  0.6289211426693553  0.6497274654945429  1.0000
  C   C46       1.0  0.4039143022488147  0.3715348356788438  0.8501709175247782  1.0000
  C   C47       1.0  0.9671794877645395  0.3710897677023794  0.35024009013007884  1.0000
  C   C48       1.0  0.5961336499941937  0.6284711031352188  0.14983746798715464  1.0000
  N   N1        1.0  0.4051408981451702  0.49022067708113315  0.5195536584261973  1.0000
  N   N2        1.0  0.9151164839910563  0.5098899157629191  0.9804278557350443  1.0000
  N   N3        1.0  0.5945858745241921  0.5097753417499362  0.48039628949945273  1.0000
  N   N4        1.0  0.08493611499953597  0.4901216172792003  0.019573498947721608  1.0000
  N   N5        1.0  0.8636720024033123  0.002608428348189287  0.659222896626531  1.0000
  N   N6        1.0  0.8611947823926512  0.9976376936368752  0.8408647652032215  1.0000
  N   N7        1.0  0.13637499211401385  0.9973768354372151  0.3407775532344104  1.0000
  N   N8        1.0  0.13883527380847482  0.0023586009919540976  0.15914565678103543  1.0000
  O   O1        1.0  0.23580493460326568  0.8902104429836792  0.709838031669257  1.0000
  O   O2        1.0  0.3453678441385009  0.11013388348098364  0.7903933671336603  1.0000
  O   O3        1.0  0.764268372484672  0.10979001494015957  0.29018649509217204  1.0000
  O   O4        1.0  0.6546698719440229  0.8898627141684442  0.20963421924887635  1.0000
  O   O5        1.0  0.878330643155486  0.793229663042737  0.736911890639263  1.0000
  O   O6        1.0  0.08479261897944917  0.20720422865588256  0.7630986069669847  1.0000
  O   O7        1.0  0.12167201532696481  0.2067867557936438  0.26309300151280723  1.0000
  O   O8        1.0  0.9152742680540412  0.7927833891274644  0.2369102802251177  1.0000
