data_image0
_chemical_formula_structural       Mg6H100C104N16O32
_chemical_formula_sum              "Mg6 H100 C104 N16 O32"
_cell_length_a       15.243449383016237
_cell_length_b       15.243404282549491
_cell_length_c       17.09528181697892
_cell_angle_alpha    70.8860108938679
_cell_angle_beta     70.88595805551674
_cell_angle_gamma    70.44105648523379

_space_group_name_H-M_alt    "P 1"
_space_group_IT_number       1

loop_
  _space_group_symop_operation_xyz
  'x, y, z'

loop_
  _atom_site_type_symbol
  _atom_site_label
  _atom_site_symmetry_multiplicity
  _atom_site_fract_x
  _atom_site_fract_y
  _atom_site_fract_z
  _atom_site_occupancy
  Mg  Mg1       1.0  0.9999997812388272  0.5000006619956778  1.5343794146842647e-06  1.0000
  Mg  Mg2       1.0  0.49999740879920296  3.5660687561236655e-07  0.4999997739106519  1.0000
  Mg  Mg3       1.0  0.8671110747505608  0.4723017761818015  0.21191116821364644  1.0000
  Mg  Mg4       1.0  0.5276974592806098  0.13289078432675444  0.2880899757149392  1.0000
  Mg  Mg5       1.0  0.1328946472808354  0.5276915039379092  0.7880901959686926  1.0000
  Mg  Mg6       1.0  0.4723025323270207  0.8671122989077773  0.7119090403228724  1.0000
  H   H1        1.0  0.0034459634412869005  0.6039314062525637  0.29165985582966414  1.0000
  H   H2        1.0  0.39607354766627634  0.9965499348075825  0.2083427527936124  1.0000
  H   H3        1.0  0.9965482883156227  0.3960766180220788  0.7083393913080941  1.0000
  H   H4        1.0  0.6039264389482214  0.0034475975477050594  0.7916572855922865  1.0000
  H   H5        1.0  0.8048749069699496  0.0823807587703699  0.12935876499658866  1.0000
  H   H6        1.0  0.9176229907713633  0.19512545206762877  0.37064065545322233  1.0000
  H   H7        1.0  0.1951279527376499  0.9176125731407724  0.8706399025042943  1.0000
  H   H8        1.0  0.0823834630584912  0.804873203893081  0.6293566019474924  1.0000
  H   H9        1.0  0.0976467157870502  0.6858559117106892  0.32806209583437607  1.0000
  H   H10       1.0  0.314154006452803  0.9023455608796028  0.17193835948329902  1.0000
  H   H11       1.0  0.9023511337530722  0.3141546673282604  0.6719342014504267  1.0000
  H   H12       1.0  0.685850995037555  0.09764582083118963  0.8280637623597825  1.0000
  H   H13       1.0  0.7694069277239349  0.2262913573836586  0.18357915585121987  1.0000
  H   H14       1.0  0.7737079117553094  0.23059665729672937  0.31642077341989255  1.0000
  H   H15       1.0  0.23059735927613192  0.773700211674118  0.8164219485717299  1.0000
  H   H16       1.0  0.2262949501285191  0.769405688858619  0.683578210444786  1.0000
  H   H17       1.0  0.0768484975683208  0.13428238173675314  0.9727146741381317  1.0000
  H   H18       1.0  0.8657145034201648  0.9231529155260816  0.5272862341845582  1.0000
  H   H19       1.0  0.9231572367069275  0.8657122970927065  0.027282772087836905  1.0000
  H   H20       1.0  0.1342811679615536  0.0768484855788714  0.47271744314065955  1.0000
  H   H21       1.0  0.04048410483294159  0.28064034469066007  0.02542198957700489  1.0000
  H   H22       1.0  0.7193560376137356  0.95951922145899  0.474580656778713  1.0000
  H   H23       1.0  0.9595201845569149  0.7193560794082714  0.9745788795178498  1.0000
  H   H24       1.0  0.28063532634524085  0.04048813590992488  0.5254242984258325  1.0000
  H   H25       1.0  0.7089378998378565  0.923853543450477  0.8878958500749692  1.0000
  H   H26       1.0  0.07614807167522028  0.29105988598605154  0.6121042823758103  1.0000
  H   H27       1.0  0.2910390880490398  0.0761415302059731  0.1121156478731464  1.0000
  H   H28       1.0  0.923851227529859  0.708958657865736  0.3878881213839095  1.0000
  H   H29       1.0  0.17023897890679512  0.6497292408232268  0.03205373060528437  1.0000
  H   H30       1.0  0.35026761040123233  0.8297619923168397  0.46794848617401646  1.0000
  H   H31       1.0  0.8297717736917178  0.35026067727954296  0.9679448110169772  1.0000
  H   H32       1.0  0.6497280616821683  0.17024287566985663  0.5320553579048949  1.0000
  H   H33       1.0  0.6136014293545599  0.6905635233172379  0.16156622543623214  1.0000
  H   H34       1.0  0.30943311035458987  0.3864043256245893  0.33843492787028856  1.0000
  H   H35       1.0  0.3863942038210483  0.3094281342960201  0.8384490561479864  1.0000
  H   H36       1.0  0.6905704957851171  0.6136006358784415  0.6615554795644984  1.0000
  H   H37       1.0  0.25950783863531507  0.7390097887095949  0.0665982012334895  1.0000
  H   H38       1.0  0.2609901499015592  0.7404933710254938  0.4334018834717099  1.0000
  H   H39       1.0  0.7405029209291739  0.2609815228277483  0.9333981803696858  1.0000
  H   H40       1.0  0.739011261961373  0.2595079423221237  0.5666019134045542  1.0000
  H   H41       1.0  0.8213535189408391  0.7611847666118764  0.9274270198566654  1.0000
  H   H42       1.0  0.2388156499595127  0.17864909834277407  0.5725718378317312  1.0000
  H   H43       1.0  0.17862994059524342  0.23881074184546242  0.07258014020987248  1.0000
  H   H44       1.0  0.7611857893402244  0.8213661071492669  0.42742442235199013  1.0000
  H   H45       1.0  0.5002791478061539  0.8521799541956626  0.12297734122523718  1.0000
  H   H46       1.0  0.1478127917384882  0.49972245799558823  0.37702636080584284  1.0000
  H   H47       1.0  0.49971001308977486  0.147806415333946  0.8770419275895595  1.0000
  H   H48       1.0  0.8521915488742097  0.5002871887855137  0.6229589689300284  1.0000
  H   H49       1.0  0.08455912231166711  0.3620362026511473  0.1753504795305645  1.0000
  H   H50       1.0  0.6379582403314216  0.9154515861692758  0.32464301806944473  1.0000
  H   H51       1.0  0.9154487755595256  0.6379600139603882  0.8246435560421547  1.0000
  H   H52       1.0  0.3620431943311218  0.08455113643841371  0.6753533449758677  1.0000
  H   H53       1.0  0.8797639232531439  0.5103481942269923  0.3722111288760956  1.0000
  H   H54       1.0  0.48965293905648366  0.12023435945127404  0.12778818146527024  1.0000
  H   H55       1.0  0.12024036958410991  0.4896496197897308  0.6277887521578621  1.0000
  H   H56       1.0  0.5103427480876731  0.8797684438802024  0.8722104059453815  1.0000
  H   H57       1.0  0.7621890542665568  0.5705038014505562  0.4206614376511483  1.0000
  H   H58       1.0  0.42949180157599187  0.2378092650199761  0.07934019154635058  1.0000
  H   H59       1.0  0.23781452056182667  0.4294941963963695  0.5793385979208737  1.0000
  H   H60       1.0  0.5705046052651498  0.7621947426407162  0.9206578392444486  1.0000
  H   H61       1.0  0.8393333631874073  0.3513629073837591  0.4429484045428468  1.0000
  H   H62       1.0  0.6486337031733953  0.1606676363088013  0.05705133181960785  1.0000
  H   H63       1.0  0.16067020896644382  0.6486357810260871  0.5570526019464596  1.0000
  H   H64       1.0  0.3513605331770008  0.8393320537342177  0.9429520857462208  1.0000
  H   H65       1.0  0.7212998570602379  0.4110794127993315  0.4930500521107747  1.0000
  H   H66       1.0  0.588918300690338  0.27870161230035256  0.006949373832156874  1.0000
  H   H67       1.0  0.27870514506061284  0.5889168221942287  0.506952420383314  1.0000
  H   H68       1.0  0.4110838407236415  0.7212974490450609  0.9930501837959794  1.0000
  H   H69       1.0  0.8224084267207343  0.41341543760677996  0.5211751024055573  1.0000
  H   H70       1.0  0.5865820874871943  0.1775924302348599  0.9788248172986941  1.0000
  H   H71       1.0  0.1775965814508638  0.5865828831426756  0.47882559500764194  1.0000
  H   H72       1.0  0.4134171836505871  0.8224073681897368  0.02117477250256166  1.0000
  H   H73       1.0  0.030414469732661997  0.30896364197114673  0.4070025458795855  1.0000
  H   H74       1.0  0.6910390408640055  0.9695893972638037  0.09299347284618174  1.0000
  H   H75       1.0  0.9695927175125759  0.6910431643909835  0.592990386555009  1.0000
  H   H76       1.0  0.30895664022941105  0.030411320311785093  0.9070068896453591  1.0000
  H   H77       1.0  0.148527936726822  0.2337381668723921  0.40976128246173715  1.0000
  H   H78       1.0  0.7662634403573422  0.8514763688892231  0.09023300838905617  1.0000
  H   H79       1.0  0.8514770922003406  0.7662671069828307  0.5902333026888089  1.0000
  H   H80       1.0  0.2337308151317075  0.14852749969913498  0.9097645150986156  1.0000
  H   H81       1.0  0.059079923713781596  0.18786803806480631  0.4007120601537224  1.0000
  H   H82       1.0  0.8121354087165712  0.9409219196952067  0.09928478612334148  1.0000
  H   H83       1.0  0.9409265394718387  0.8121368663716311  0.5992828018998183  1.0000
  H   H84       1.0  0.18786099833812392  0.059077928762420094  0.9007126929755529  1.0000
  H   H85       1.0  0.2667701747888104  0.26469526791026243  0.27380842745232314  1.0000
  H   H86       1.0  0.7353023880839943  0.7332318972006252  0.22618933655986243  1.0000
  H   H87       1.0  0.7332377218112143  0.7353085730276875  0.7261869125450959  1.0000
  H   H88       1.0  0.26469472642382647  0.2667677568764689  0.7738115038755566  1.0000
  H   H89       1.0  0.23150813849500906  0.27740610221913903  0.17969456648144444  1.0000
  H   H90       1.0  0.7225888118605254  0.7684971953821463  0.3203054259742898  1.0000
  H   H91       1.0  0.7685004649276335  0.7225926910555103  0.8203037842014925  1.0000
  H   H92       1.0  0.27740902938143824  0.23150367005771952  0.6796925139248985  1.0000
  H   H93       1.0  0.2376596695453799  0.16756782288857147  0.2609085244585004  1.0000
  H   H94       1.0  0.8324308181638572  0.7623438843422435  0.23909081038187455  1.0000
  H   H95       1.0  0.7623496613130955  0.8324356486305858  0.7390870924419063  1.0000
  H   H96       1.0  0.16756414858164698  0.2376542477782806  0.7609081668949217  1.0000
  H   H97       1.0  0.7082825534322907  0.5094858056901045  0.3393993380614831  1.0000
  H   H98       1.0  0.4905145230368645  0.29171686186347767  0.16060001616987316  1.0000
  H   H99       1.0  0.29171959135790354  0.49051603197412424  0.6605994154030556  1.0000
  H   H100      1.0  0.5094833172186738  0.70828608229872  0.8393984925648044  1.0000
  C   C1        1.0  0.8855949739688285  0.34528284213234867  0.14352753247820976  1.0000
  C   C2        1.0  0.6547156957074306  0.11440599863113488  0.35647512129378367  1.0000
  C   C3        1.0  0.1144035733228961  0.6547108951634896  0.8564734352500878  1.0000
  C   C4        1.0  0.34528357415918254  0.8856014241198764  0.6435257729321722  1.0000
  C   C5        1.0  0.9037090485622982  0.2616681465824798  0.1084579475651283  1.0000
  C   C6        1.0  0.7383319034725417  0.0962932219917718  0.3915391307833928  1.0000
  C   C7        1.0  0.0962938215586746  0.738327968681027  0.8915375718557784  1.0000
  C   C8        1.0  0.2616659234815303  0.9037117885840403  0.6084640486404569  1.0000
  C   C9        1.0  0.0811266812095113  0.6224373759663494  0.15980702816328576  1.0000
  C   C10       1.0  0.37756714410080144  0.9188697899714313  0.34019549208895944  1.0000
  C   C11       1.0  0.9188733024457035  0.3775663925559414  0.8401947167291015  1.0000
  C   C12       1.0  0.6224299789899136  0.08113403210067098  0.6598029701428842  1.0000
  C   C13       1.0  0.022953076215664205  0.5738794564729875  0.1398272898696078  1.0000
  C   C14       1.0  0.426113019368195  0.9770438891353667  0.3601873540578707  1.0000
  C   C15       1.0  0.9770612550985902  0.4261074514477345  0.860174012080549  1.0000
  C   C16       1.0  0.573884063126627  0.0229453344038859  0.6398229477610756  1.0000
  C   C17       1.0  0.7942724752275366  0.6234622294334925  0.07272085491210606  1.0000
  C   C18       1.0  0.37653607485756163  0.20572958859692392  0.4272806813826265  1.0000
  C   C19       1.0  0.2057246138773365  0.37653531954543246  0.9272882063742501  1.0000
  C   C20       1.0  0.6234653501644658  0.7942724311391203  0.572718812599071  1.0000
  C   C21       1.0  0.7234491028806714  0.7168843214284379  0.04635000331781214  1.0000
  C   C22       1.0  0.2831141338109759  0.27655492790569985  0.45364812906489504  1.0000
  C   C23       1.0  0.2765364992822157  0.28310993090826747  0.9536604100500343  1.0000
  C   C24       1.0  0.7168851754617336  0.7234560004116232  0.546340040374652  1.0000
  C   C25       1.0  0.06056036632559621  0.6330207894492262  0.24316296997943715  1.0000
  C   C26       1.0  0.3669813871259536  0.9394391606464296  0.2568376146615066  1.0000
  C   C27       1.0  0.9394446461374529  0.36697961529772993  0.7568365383319744  1.0000
  C   C28       1.0  0.6330157353342686  0.060559808142905076  0.7431604969193301  1.0000
  C   C29       1.0  0.8565049739283593  0.12574853038062636  0.10702299851802627  1.0000
  C   C30       1.0  0.8742526064181889  0.1434970660110508  0.3929766847938654  1.0000
  C   C31       1.0  0.14350075499782378  0.8742475295746887  0.8929763895425253  1.0000
  C   C32       1.0  0.12574738617586687  0.8565039385011489  0.6070217624084437  1.0000
  C   C33       1.0  0.11224562876820701  0.6784677719444543  0.2634085381612224  1.0000
  C   C34       1.0  0.3215335657490002  0.8877552346375027  0.23659365234880164  1.0000
  C   C35       1.0  0.8877572272072525  0.32152971565296445  0.7365918529897544  1.0000
  C   C36       1.0  0.6784671352845992  0.11224349677182478  0.7634075873545357  1.0000
  C   C37       1.0  0.944049418357423  0.09831746665661723  0.04870183709997642  1.0000
  C   C38       1.0  0.9016808885854034  0.05594981981499099  0.45129878297741044  1.0000
  C   C39       1.0  0.0559498548955872  0.901675401521267  0.9512962472356891  1.0000
  C   C40       1.0  0.0983169367517505  0.9440524162003855  0.5487046146309353  1.0000
  C   C41       1.0  0.836643821612945  0.20659322759192383  0.13712975478222247  1.0000
  C   C42       1.0  0.7934100350779402  0.16335816140867365  0.36287058182315235  1.0000
  C   C43       1.0  0.16335831642482657  0.7934030574346739  0.8628706070095049  1.0000
  C   C44       1.0  0.20659210000054878  0.836644359784927  0.6371314864750632  1.0000
  C   C45       1.0  0.010288218805222002  0.15497673101584297  0.018907917438426125  1.0000
  C   C46       1.0  0.8450196407355719  0.9897167707620228  0.4810930032051888  1.0000
  C   C47       1.0  0.9897175057583212  0.8450186313429882  0.9810928436212126  1.0000
  C   C48       1.0  0.15497531418300528  0.010288975134578503  0.5189107943708818  1.0000
  C   C49       1.0  0.9901364068149262  0.23582633644943485  0.0483307094664768  1.0000
  C   C50       1.0  0.7641699547141202  0.009868181798587726  0.45166786431448713  1.0000
  C   C51       1.0  0.0098686131124026  0.7641657569249602  0.9516653515447545  1.0000
  C   C52       1.0  0.23582571722690912  0.9901394589901571  0.5483363475590295  1.0000
  C   C53       1.0  0.1845773195075964  0.716695106520227  0.19886020709626712  1.0000
  C   C54       1.0  0.2833066053104858  0.8154203274174563  0.30114219299763084  1.0000
  C   C55       1.0  0.8154298627445088  0.28330614896265166  0.8011337476864141  1.0000
  C   C56       1.0  0.7166926389498015  0.18457181854649457  0.6988654680444667  1.0000
  C   C57       1.0  0.6885483785668214  0.8716963382420461  0.9471786627866479  1.0000
  C   C58       1.0  0.1283030095366158  0.3114525100106891  0.5528229570264641  1.0000
  C   C59       1.0  0.3114321898662952  0.12829434058971864  0.05283482561296888  1.0000
  C   C60       1.0  0.8716984403900555  0.688561319630658  0.4471696033853832  1.0000
  C   C61       1.0  0.1546004930861997  0.6585517049419495  0.09631406121818034  1.0000
  C   C62       1.0  0.3414441161432221  0.8454027398137639  0.40368898909981993  1.0000
  C   C63       1.0  0.8454102569089628  0.34143751732272426  0.9036852674240735  1.0000
  C   C64       1.0  0.6585551425371462  0.15459981910414913  0.5963150703497108  1.0000
  C   C65       1.0  0.6327108102152084  0.7422487124035444  0.10148701720470406  1.0000
  C   C66       1.0  0.25774913061772503  0.3672942316904584  0.398512849104428  1.0000
  C   C67       1.0  0.36727908705537965  0.2577395713604816  0.8985262201374766  1.0000
  C   C68       1.0  0.7422551932461018  0.6327160915864528  0.6014781393815056  1.0000
  C   C69       1.0  0.5982610217266356  0.8969977121869378  0.0027711068179102805  1.0000
  C   C70       1.0  0.10300022783339101  0.4017378666757736  0.49722715576772464  1.0000
  C   C71       1.0  0.40171883235856853  0.1029903811897697  0.997240996366969  1.0000
  C   C72       1.0  0.8970041063014448  0.5982780127555501  0.5027610524328382  1.0000
  C   C73       1.0  0.20445265854252173  0.7072529943666767  0.11536989230422987  1.0000
  C   C74       1.0  0.2927454683083326  0.79554866475366  0.3846323603510201  1.0000
  C   C75       1.0  0.7955573713997309  0.2927419555738879  0.8846309124443791  1.0000
  C   C76       1.0  0.7072538028294489  0.20445113367093626  0.6153672294502359  1.0000
  C   C77       1.0  0.7503633668802792  0.7818917376739452  0.9687874245120868  1.0000
  C   C78       1.0  0.21810925364732725  0.24963980005024664  0.5312111824795167  1.0000
  C   C79       1.0  0.24962224323501664  0.21810182937499423  0.031220260001177336  1.0000
  C   C80       1.0  0.7818972161483445  0.7503734298258706  0.4687824390414335  1.0000
  C   C81       1.0  0.5702176324630628  0.8313610929470272  0.08029284821723356  1.0000
  C   C82       1.0  0.16863686729015367  0.42978679372987477  0.41970728562969134  1.0000
  C   C83       1.0  0.42977370335743353  0.16862890539571412  0.9197194769261472  1.0000
  C   C84       1.0  0.8313653070520673  0.5702220058320719  0.5802824256767211  1.0000
  C   C85       1.0  0.0550110361515124  0.3407200323161279  0.2450384135354255  1.0000
  C   C86       1.0  0.6592789172184722  0.9449881726836794  0.2549565288922438  1.0000
  C   C87       1.0  0.9449983012560068  0.6592758201517839  0.7549541410029974  1.0000
  C   C88       1.0  0.34072108058226996  0.0550142235046991  0.7450403442700805  1.0000
  C   C89       1.0  0.8050741162345857  0.50552995669198  0.3978381114112182  1.0000
  C   C90       1.0  0.49446900047893644  0.19492552397204585  0.10216324747639051  1.0000
  C   C91       1.0  0.19492657952113754  0.49446876944218593  0.6021648862294028  1.0000
  C   C92       1.0  0.5055274098096021  0.8050798736064378  0.8978337952535115  1.0000
  C   C93       1.0  0.7965898706216948  0.4148693322668966  0.46768731215907167  1.0000
  C   C94       1.0  0.5851282763268271  0.20341015083170805  0.03231367476998061  1.0000
  C   C95       1.0  0.20341513670584987  0.5851282944028499  0.5323135862950323  1.0000
  C   C96       1.0  0.4148688320590638  0.7965888038905151  0.967689124643627  1.0000
  C   C97       1.0  0.08744838870178741  0.2512898495855822  0.3822319897502879  1.0000
  C   C98       1.0  0.7487138590353268  0.912552418921969  0.11776569390393382  1.0000
  C   C99       1.0  0.9125573564749628  0.748715238681051  0.6177630268413028  1.0000
  C   C100      1.0  0.2512832590622622  0.08744585227088214  0.8822337906759972  1.0000
  C   C101      1.0  0.21916530863914832  0.24626434844726228  0.2487696225696325  1.0000
  C   C102      1.0  0.7537343645444352  0.7808362561843011  0.25123093091451676  1.0000
  C   C103      1.0  0.780841870867242  0.7537389839995613  0.7512254870276466  1.0000
  C   C104      1.0  0.24626203807644492  0.21916428107786598  0.748768105080771  1.0000
  N   N1        1.0  0.23944406434343077  0.7672130362345941  0.21121561909085787  1.0000
  N   N2        1.0  0.23279137069869896  0.7605542604572477  0.288785801663373  1.0000
  N   N3        1.0  0.7605595069663665  0.23278495809555017  0.788785588439353  1.0000
  N   N4        1.0  0.7672143572410662  0.2394438782203991  0.7112141552326818  1.0000
  N   N5        1.0  0.958982016389264  0.013454539084598606  0.024114039393225557  1.0000
  N   N6        1.0  0.9865424017677071  0.04101955198333232  0.4758862345636529  1.0000
  N   N7        1.0  0.041020848311461605  0.9865443437057877  0.9758836057595702  1.0000
  N   N8        1.0  0.013456147842624902  0.9589804267546781  0.5241146817338491  1.0000
  N   N9        1.0  0.541430870817571  0.9898635489496002  0.9753526852935935  1.0000
  N   N10       1.0  0.01013287286397  0.4585675231278117  0.5246495485687106  1.0000
  N   N11       1.0  0.4585496881174079  0.010123654208477708  0.02466356624779566  1.0000
  N   N12       1.0  0.989868590150614  0.5414483993029933  0.47533889284586917  1.0000
  N   N13       1.0  0.11898442106762272  0.28308230423197506  0.28978769466369414  1.0000
  N   N14       1.0  0.716917426698707  0.8810203446334768  0.21020940991490994  1.0000
  N   N15       1.0  0.8810227558354242  0.7169203323767661  0.7102082019535771  1.0000
  N   N16       1.0  0.2830825712444067  0.1189792787528674  0.7897870954528161  1.0000
  O   O1        1.0  0.056575891356217795  0.5434377527079947  0.07247933423836633  1.0000
  O   O2        1.0  0.45656339085658  0.9434121440065226  0.4275283139047943  1.0000
  O   O3        1.0  0.943419048999914  0.45656035303669285  0.92752843272487  1.0000
  O   O4        1.0  0.5434351762754801  0.05658923871640548  0.5724669264990537  1.0000
  O   O5        1.0  0.9417870863391684  0.4024813826145605  0.10909220248141344  1.0000
  O   O6        1.0  0.5975171355740301  0.05821359863039532  0.3909076161984404  1.0000
  O   O7        1.0  0.0582100276805306  0.5975106453777316  0.8909079195084076  1.0000
  O   O8        1.0  0.402482130773997  0.9417938206038343  0.6090944499857118  1.0000
  O   O9        1.0  0.8186031367009434  0.3579571405094412  0.20961088235777944  1.0000
  O   O10       1.0  0.6420461387757327  0.18139787231766039  0.2903904539822549  1.0000
  O   O11       1.0  0.18139754969901387  0.6420353371489896  0.790394510630023  1.0000
  O   O12       1.0  0.35795385100141164  0.8186065955595014  0.709609331931951  1.0000
  O   O13       1.0  0.7702467670698496  0.5731853283974928  0.14826173262918738  1.0000
  O   O14       1.0  0.42681287303400234  0.22975842797960405  0.3517348114778971  1.0000
  O   O15       1.0  0.22975033048572874  0.42680183048653214  0.8517433125214925  1.0000
  O   O16       1.0  0.5731893108775453  0.7702524608550121  0.6482519527894368  1.0000
  O   O17       1.0  0.8732124926623115  0.604413328330871  0.018336446081782944  1.0000
  O   O18       1.0  0.39558817850918626  0.12679082812877598  0.4816590406756945  1.0000
  O   O19       1.0  0.12678101167607278  0.3955851450742074  0.9816716299575675  1.0000
  O   O20       1.0  0.604403947369775  0.8732177757706909  0.5183312944107004  1.0000
  O   O21       1.0  0.9431462802721952  0.5661443148581212  0.193500651888499  1.0000
  O   O22       1.0  0.43386237366005537  0.05684639554385736  0.3065086115650573  1.0000
  O   O23       1.0  0.056847239543877506  0.433861106377563  0.8065030698254888  1.0000
  O   O24       1.0  0.5661412054597789  0.9431536863005691  0.6934902349051698  1.0000
  O   O25       1.0  0.776002193296648  0.5075436746341282  0.3242400061492391  1.0000
  O   O26       1.0  0.49245412699038127  0.22399719206291738  0.17576061612869862  1.0000
  O   O27       1.0  0.22400137892839206  0.4924536273747009  0.6757608164427752  1.0000
  O   O28       1.0  0.5075422825252928  0.7760061250348472  0.8242364437448018  1.0000
  O   O29       1.0  0.9673609112498696  0.369498273850084  0.2789751271928722  1.0000
  O   O30       1.0  0.6305071962132729  0.03264958242828443  0.22101160556469074  1.0000
  O   O31       1.0  0.0326462765648543  0.6304974413038879  0.7210163340633288  1.0000
  O   O32       1.0  0.36949780928379283  0.9673494288840986  0.7789900627658071  1.0000
