data_image0
_chemical_formula_structural       Ag2H40C50N4Cl2O12
_chemical_formula_sum              "Ag2 H40 C50 N4 Cl2 O12"
_cell_length_a       10.035524456554626
_cell_length_b       13.938504701308121
_cell_length_c       14.935320766966205
_cell_angle_alpha    66.72229245017068
_cell_angle_beta     88.64903554303315
_cell_angle_gamma    71.54874011283626

_space_group_name_H-M_alt    "P 1"
_space_group_IT_number       1

loop_
  _space_group_symop_operation_xyz
  'x, y, z'

loop_
  _atom_site_type_symbol
  _atom_site_label
  _atom_site_symmetry_multiplicity
  _atom_site_fract_x
  _atom_site_fract_y
  _atom_site_fract_z
  _atom_site_occupancy
  Ag  Ag1       1.0  0.14715955368393455  0.9208373589554099  0.6321091704485369  1.0000
  Ag  Ag2       1.0  0.8528502627730602  0.07915773636168667  0.36789359866241267  1.0000
  H   H1        1.0  0.40117550540271196  0.4711680832074094  0.2588113328276407  1.0000
  H   H2        1.0  0.5988316538880556  0.528823771394407  0.7411940580725159  1.0000
  H   H3        1.0  0.5822951973692554  0.6801347560667635  0.029888794498923194  1.0000
  H   H4        1.0  0.41768540851435193  0.31987063225933804  0.9701027517662054  1.0000
  H   H5        1.0  0.5667059938992196  0.3094930905398456  0.3694232269515538  1.0000
  H   H6        1.0  0.43331496458780805  0.6905043460025907  0.6305857642085257  1.0000
  H   H7        1.0  0.4528649455871303  0.20602499756756024  0.5044688844948767  1.0000
  H   H8        1.0  0.5471610005853618  0.7939674055669528  0.4955398753935469  1.0000
  H   H9        1.0  0.31330460397224863  0.0767192658095155  0.31797077479451014  1.0000
  H   H10       1.0  0.6867002930937076  0.9232932422354023  0.6820322507685788  1.0000
  H   H11       1.0  0.4299366205151075  0.18190242896454833  0.18162249286623927  1.0000
  H   H12       1.0  0.5700608900517137  0.8181110072915988  0.8183783482704499  1.0000
  H   H13       1.0  0.8157865640202288  0.6152825613793879  0.061418640888284456  1.0000
  H   H14       1.0  0.18420871001804073  0.38471845157759077  0.9385708593272427  1.0000
  H   H15       1.0  0.9515061062332818  0.7300947703128813  0.9566866538809861  1.0000
  H   H16       1.0  0.04848720817475539  0.2699038278148648  0.043307149606867844  1.0000
  H   H17       1.0  0.9331201340703642  0.5995075662023835  0.7405614306013035  1.0000
  H   H18       1.0  0.06687218753883425  0.4004984613128925  0.2594302689048646  1.0000
  H   H19       1.0  0.7998139073861027  0.4820993940144048  0.848429494296397  1.0000
  H   H20       1.0  0.20018275222573584  0.517903266226881  0.15156270119096152  1.0000
  H   H21       1.0  0.38105075613015044  0.8269872607661951  0.02112276846621335  1.0000
  H   H22       1.0  0.6189429781033837  0.17301054917236766  0.978877348339289  1.0000
  H   H23       1.0  0.24614056714121083  0.8774601796080788  0.08648080151219521  1.0000
  H   H24       1.0  0.7538468409642151  0.12253856931190647  0.9135211195012262  1.0000
  H   H25       1.0  0.23073949381148412  0.783326695516145  0.03752830852972979  1.0000
  H   H26       1.0  0.7692515547606007  0.21666786024380263  0.962472426981769  1.0000
  H   H27       1.0  0.5364005005140413  0.672535684474724  0.2888584738770632  1.0000
  H   H28       1.0  0.4635925738160222  0.32745884794782404  0.7111435619590124  1.0000
  H   H29       1.0  0.4204539513587946  0.8120077392415793  0.23582904131772867  1.0000
  H   H30       1.0  0.5795368103655035  0.18798766753646132  0.7641747285978155  1.0000
  H   H31       1.0  0.5597738349701158  0.7638723121797993  0.17112508625702827  1.0000
  H   H32       1.0  0.4402175961560528  0.23612637660203717  0.8288774323223436  1.0000
  H   H33       1.0  0.19380781604802877  0.6554905309561363  0.2053065429184144  1.0000
  H   H34       1.0  0.8061839395584441  0.3445048551776394  0.7946965417706054  1.0000
  H   H35       1.0  0.20510959474124488  0.7524634963704669  0.251879682981965  1.0000
  H   H36       1.0  0.7948845308225573  0.2475335119155702  0.7481247440579607  1.0000
  H   H37       1.0  0.3148959631422272  0.6124713210802851  0.3104373552660675  1.0000
  H   H38       1.0  0.685101162703816  0.3875231646674422  0.6895672812191762  1.0000
  H   H39       1.0  0.6833705746440442  0.3104349892331014  0.07700294682052797  1.0000
  H   H40       1.0  0.31663722519225246  0.689557664328092  0.9230001193963133  1.0000
  C   C1        1.0  0.4658238239773737  0.6070050367770535  0.15249875622675546  1.0000
  C   C2        1.0  0.5341681720681775  0.3929968846430114  0.8474951663779747  1.0000
  C   C3        1.0  0.4655322755952226  0.4982666558670771  0.20096090162238772  1.0000
  C   C4        1.0  0.5344718556403124  0.5017326469718952  0.7990404172770982  1.0000
  C   C5        1.0  0.5567225047563226  0.4286267162652919  0.15978097051227994  1.0000
  C   C6        1.0  0.4432825732304621  0.5713750130716163  0.8402153949525798  1.0000
  C   C7        1.0  0.6207799303095882  0.4996731826778457  0.0833829508643191  1.0000
  C   C8        1.0  0.37921271614101937  0.5003320117704603  0.9166083850154295  1.0000
  C   C9        1.0  0.5620114679805963  0.6069723114988222  0.08155963392879767  1.0000
  C   C10       1.0  0.43797919034454935  0.393030454656916  0.9184340021400602  1.0000
  C   C11       1.0  0.5661842252411375  0.3187089957746778  0.18281829050732062  1.0000
  C   C12       1.0  0.4338232793323157  0.681291913060079  0.8171843532109477  1.0000
  C   C13       1.0  0.4985806773634706  0.2574213764899582  0.26482758360516107  1.0000
  C   C14       1.0  0.5014284985479877  0.7425729198677613  0.7351775101891039  1.0000
  C   C15       1.0  0.505871856703024  0.26313563373117427  0.35636026056023695  1.0000
  C   C16       1.0  0.49415246490128323  0.7368584651570913  0.6436512471963667  1.0000
  C   C17       1.0  0.4425030752602125  0.2045741976402979  0.4326754951711109  1.0000
  C   C18       1.0  0.5575104868681535  0.7954216930445098  0.5673315736042355  1.0000
  C   C19       1.0  0.3709986000628119  0.1392929129952947  0.4174895603337987  1.0000
  C   C20       1.0  0.6290210298410983  0.8607029031895054  0.5825207417208843  1.0000
  C   C21       1.0  0.3665339258446636  0.1299441066558131  0.3270350177928236  1.0000
  C   C22       1.0  0.6334716673128254  0.8700593489507822  0.6729734081976703  1.0000
  C   C23       1.0  0.431509919610221  0.18837084905401721  0.2518984524040064  1.0000
  C   C24       1.0  0.5684936382908674  0.8116326254022111  0.7481080055674951  1.0000
  C   C25       1.0  0.3061377433252018  0.07949355521877519  0.4953766558779478  1.0000
  C   C26       1.0  0.6938827584260283  0.9205120603050002  0.5046205619786477  1.0000
  C   C27       1.0  0.7201563962767848  0.4686065642523757  0.02204267235934055  1.0000
  C   C28       1.0  0.27983490295501673  0.5313994704438229  0.9779477092901345  1.0000
  C   C29       1.0  0.7939481882476824  0.544594328898455  0.9594663438285451  1.0000
  C   C30       1.0  0.2060434551834618  0.4554133512874258  0.04052407984725189  1.0000
  C   C31       1.0  0.8371370344323597  0.6145631649347081  0.9898823348095718  1.0000
  C   C32       1.0  0.1628506046137446  0.3854421147837852  0.010109756425158902  1.0000
  C   C33       1.0  0.9135945553944608  0.678749298231281  0.9317828367913352  1.0000
  C   C34       1.0  0.08639011150352617  0.3212560479077736  0.06821197781737001  1.0000
  C   C35       1.0  0.9476466898444829  0.6732715324001431  0.8416797214877434  1.0000
  C   C36       1.0  0.052340661992722894  0.32673212875535274  0.1583163338871074  1.0000
  C   C37       1.0  0.9057094271601258  0.6030091574149238  0.8105010781852543  1.0000
  C   C38       1.0  0.09427584265086612  0.39699943931348247  0.18948781122642805  1.0000
  C   C39       1.0  0.8309077370943283  0.5386951726539306  0.8699255173550426  1.0000
  C   C40       1.0  0.16908121153806382  0.46131171844665175  0.13006392759626814  1.0000
  C   C41       1.0  0.02847465952860517  0.7364545876212675  0.783225213719618  1.0000
  C   C42       1.0  0.9715203481031625  0.263557163653708  0.21676493734448596  1.0000
  C   C43       1.0  0.3796659508549426  0.7069903202311634  0.17076815928518854  1.0000
  C   C44       1.0  0.6203304303241808  0.2930057867727243  0.8292305275088339  1.0000
  C   C45       1.0  0.3053270016110189  0.8042938161058403  0.07293925722211721  1.0000
  C   C46       1.0  0.6946654321735153  0.19569991735733075  0.9270651032972808  1.0000
  C   C47       1.0  0.48028493841604825  0.7410389403030987  0.2194448889229151  1.0000
  C   C48       1.0  0.5197041132543916  0.2589581218386883  0.7805556196111496  1.0000
  C   C49       1.0  0.26707129357175335  0.6799941885917632  0.23849184877885687  1.0000
  C   C50       1.0  0.7329274572035872  0.3200010709833022  0.7615091101021393  1.0000
  N   N1        1.0  0.2541467091250027  0.029745605110086594  0.559789561545962  1.0000
  N   N2        1.0  0.745855395991434  0.970251251485209  0.44021138676500726  1.0000
  N   N3        1.0  0.09713641486016664  0.7868140446273557  0.7361171482170192  1.0000
  N   N4        1.0  0.9028611128978953  0.21318705269889895  0.263889676988839  1.0000
  Cl  Cl1       1.0  0.8108319935569099  0.11921568825979989  0.591551970878264  1.0000
  Cl  Cl2       1.0  0.18917513832197122  0.8807835616219537  0.4084486277304648  1.0000
  O   O1        1.0  0.6297278074757031  0.26244553213270183  0.13246278609455692  1.0000
  O   O2        1.0  0.37028708323577314  0.7375519789097353  0.867542971786179  1.0000
  O   O3        1.0  0.7545669214819666  0.37440199054047696  0.016958988406280198  1.0000
  O   O4        1.0  0.24542683247060637  0.6256007675358219  0.983040604315896  1.0000
  O   O5        1.0  0.8803072132047235  0.00043635153292600055  0.6114045853705505  1.0000
  O   O6        1.0  0.11969790277569091  0.9995653957550984  0.38859445087193484  1.0000
  O   O7        1.0  0.8913788309232089  0.15045077462842465  0.6481222554538989  1.0000
  O   O8        1.0  0.10863128260219676  0.8495484133205408  0.3518762874752639  1.0000
  O   O9        1.0  0.8060259600719634  0.185745156775873  0.48614987504505786  1.0000
  O   O10       1.0  0.19397079416284407  0.814255078762116  0.5138499271224362  1.0000
  O   O11       1.0  0.6673437972714991  0.1338767311085505  0.6187744647440708  1.0000
  O   O12       1.0  0.33267010869509755  0.8661183354848419  0.3812335757936651  1.0000
