data_image0
_chemical_formula_structural       Zn4H36C64N12O20
_chemical_formula_sum              "Zn4 H36 C64 N12 O20"
_cell_length_a       10.398166564384383
_cell_length_b       13.894294663
_cell_length_c       15.13
_cell_angle_alpha    90.0
_cell_angle_beta     103.53508105012703
_cell_angle_gamma    90.0

_space_group_name_H-M_alt    "P 1"
_space_group_IT_number       1

loop_
  _space_group_symop_operation_xyz
  'x, y, z'

loop_
  _atom_site_type_symbol
  _atom_site_label
  _atom_site_symmetry_multiplicity
  _atom_site_fract_x
  _atom_site_fract_y
  _atom_site_fract_z
  _atom_site_occupancy
  Zn  Zn1       1.0  0.1704130855917469  0.8491981986980833  0.5796620133917756  1.0000
  Zn  Zn2       1.0  0.3295870999290997  0.349200165800454  0.4203371572283459  1.0000
  Zn  Zn3       1.0  0.8295862962692269  0.150800026256789  0.4203374906201559  1.0000
  Zn  Zn4       1.0  0.6704122819318741  0.6508016577537887  0.5796616858450605  1.0000
  H   H1        1.0  0.3004290200694086  0.007579369989933602  0.6540906979951586  1.0000
  H   H2        1.0  0.1995721546321505  0.5075795620471766  0.34590929266886405  1.0000
  H   H3        1.0  0.6995713509722776  0.9924202944046956  0.34590896512214186  1.0000
  H   H4        1.0  0.8004282164095358  0.49242082206731663  0.6540910313869759  1.0000
  H   H5        1.0  0.1490873386129152  0.038766991276958214  0.5980408494860754  1.0000
  H   H6        1.0  0.350911857727219  0.5387679030540795  0.401960144844267  1.0000
  H   H7        1.0  0.8509110540673462  0.9612319533977924  0.4019598172975519  1.0000
  H   H8        1.0  0.6490875241337548  0.461233200780292  0.5980406810447292  1.0000
  H   H9        1.0  0.9053328093219762  0.7426494291558401  0.5095130530581002  1.0000
  H   H10       1.0  0.5946647796984195  0.24264707793896895  0.4904859643017473  1.0000
  H   H11       1.0  0.0946655833582852  0.2573531141182741  0.4904862918484625  1.0000
  H   H12       1.0  0.40533361298184195  0.7573518667357746  0.5095140415433548  1.0000
  H   H13       1.0  0.1470614965138992  0.9194306231333158  0.791674023499489  1.0000
  H   H14       1.0  0.3529386890069475  0.4194289916363232  0.20832514712063238  1.0000
  H   H15       1.0  0.8529388745277872  0.0805697609811773  0.20832630055635087  1.0000
  H   H16       1.0  0.6470616820347388  0.5805692333185564  0.7916738550581426  1.0000
  H   H17       1.0  0.7306049174626992  0.7280024100061768  0.7920750656647542  1.0000
  H   H18       1.0  0.7693956390998267  0.2280000587893127  0.20792575088827187  1.0000
  H   H19       1.0  0.2693924860368497  0.2720001332679374  0.2079241201364397  1.0000
  H   H20       1.0  0.2306067103032774  0.7720003253251875  0.7920762132553705  1.0000
  H   H21       1.0  0.7984092985755068  0.8878205262804286  0.10391831318953139  1.0000
  H   H22       1.0  0.7015942255291563  0.3878196145033073  0.8960816588025364  1.0000
  H   H23       1.0  0.2015900832854669  0.11218057755394283  0.896080529883875  1.0000
  H   H24       1.0  0.2984071346932424  0.6121807696111929  0.10391882435867218  1.0000
  H   H25       1.0  0.8293716440546319  0.887225317944882  0.271773552990183  1.0000
  H   H26       1.0  0.6706299016886064  0.3872236864478823  0.72822610079114  1.0000
  H   H27       1.0  0.1706277378063419  0.11277506616961831  0.728225290083216  1.0000
  H   H28       1.0  0.3293704693530799  0.6127759779467397  0.27177356232616023  1.0000
  H   H29       1.0  0.21419521310369297  0.8315269166391348  0.13517806909701585  1.0000
  H   H30       1.0  0.2858069507785714  0.3315267245818916  0.8648227416109078  1.0000
  H   H31       1.0  0.7858031795765612  0.16847202803561606  0.8648212758095466  1.0000
  H   H32       1.0  0.7141944094438273  0.668472220092859  0.13517774155030077  1.0000
  H   H33       1.0  0.2456175276140939  0.8360741068011706  0.3046413312291136  1.0000
  H   H34       1.0  0.2543836470874652  0.3360739147439205  0.6953593203734413  1.0000
  H   H35       1.0  0.7543818542468799  0.16392483787358  0.695358172782818  1.0000
  H   H36       1.0  0.7456177131349335  0.6639257496507016  0.3046411627877674  1.0000
  C   C1        1.0  0.9146756211506784  0.7624150960472563  0.580095115900761  1.0000
  C   C2        1.0  0.5853229570504226  0.26241346455025655  0.4199040605644554  1.0000
  C   C3        1.0  0.0853217823488706  0.2375867275069865  0.41990406990043266  1.0000
  C   C4        1.0  0.4146774139912636  0.7375861998443654  0.5800962634913842  1.0000
  C   C5        1.0  0.8704948538116284  0.7755650978596195  0.7126596862701149  1.0000
  C   C6        1.0  0.6295066919316099  0.275564186082498  0.28734062844974056  1.0000
  C   C7        1.0  0.1295025496879205  0.22443744541449465  0.287339499531079  1.0000
  C   C8        1.0  0.3704966466522137  0.7244369177518735  0.7126608338607383  1.0000
  C   C9        1.0  0.9878759830496833  0.8290417239152532  0.7125478562520725  1.0000
  C   C10       1.0  0.5121245735128426  0.329040812138132  0.2874529603009535  1.0000
  C   C11       1.0  0.012124387992003  0.1709608193588679  0.2874518068652349  1.0000
  C   C12       1.0  0.4878777758902686  0.6709610114161109  0.7125483429041565  1.0000
  C   C13       1.0  0.05851498504257789  0.877205377863234  0.7905652158962155  1.0000
  C   C14       1.0  0.4414861896589812  0.37720374636623444  0.2094341138292748  1.0000
  C   C15       1.0  0.9414843968183959  0.12279644569100873  0.20943362717719077  1.0000
  C   C16       1.0  0.5585161597441299  0.6227959180283875  0.7905658674987703  1.0000
  C   C17       1.0  0.0103141872882944  0.8648593031497853  0.8678328185260824  1.0000
  C   C18       1.0  0.4896869874132648  0.3648569519329214  0.132168494015005  1.0000
  C   C19       1.0  0.9896842053919669  0.135141800684579  0.1321671873190127  1.0000
  C   C20       1.0  0.5103133836284215  0.6351412730219581  0.8678318300408349  1.0000
  C   C21       1.0  0.8943380657035435  0.811952695234126  0.8668377892047443  1.0000
  C   C22       1.0  0.605663480039695  0.3119510637371334  0.1331618645765857  1.0000
  C   C23       1.0  0.1056583486152931  0.18804912832011675  0.13316057655254807  1.0000
  C   C24       1.0  0.3943368910019913  0.6880471612177461  0.8668384594792542  1.0000
  C   C25       1.0  0.8199496977689336  0.7676906427214762  0.7901166334958559  1.0000
  C   C26       1.0  0.6800508587935923  0.26768901122447636  0.20988352211863057  1.0000
  C   C27       1.0  0.1800467165499029  0.23231118083277386  0.20988239319996885  1.0000
  C   C28       1.0  0.3199514906095189  0.7323106531701458  0.7901177810864722  1.0000
  C   C29       1.0  0.0678449375220183  0.8953689483157916  0.9628015223320501  1.0000
  C   C30       1.0  0.4321582155409587  0.3953680365386703  0.03719878654271009  1.0000
  C   C31       1.0  0.932155433519668  0.10463215551857993  0.03719814078525022  1.0000
  C   C32       1.0  0.5678421555007276  0.6046301884162092  0.9628008765745972  1.0000
  C   C33       1.0  0.8737848688611008  0.8071356101194527  0.959720926249254  1.0000
  C   C34       1.0  0.6262186552435622  0.3071339786224598  0.040280367619878625  1.0000
  C   C35       1.0  0.1262184697227227  0.1928676528745328  0.04027657043003069  1.0000
  C   C36       1.0  0.3737866617016863  0.6928628068926699  0.9597187691472086  1.0000
  C   C37       1.0  0.0046145280233887  0.8600580518723364  0.11045471828886377  1.0000
  C   C38       1.0  0.4953886250395882  0.3600578598150861  0.889546251524429  1.0000
  C   C39       1.0  0.9953858430182975  0.1399416125222857  0.8895442838899043  1.0000
  C   C40       1.0  0.5046137243635229  0.6399403651397861  0.11045372980361627  1.0000
  C   C41       1.0  0.8954766127035256  0.8757544225978506  0.1481868150572154  1.0000
  C   C42       1.0  0.6045259222204251  0.3757535108207294  0.8518129978294835  1.0000
  C   C43       1.0  0.10452375833816062  0.1242459615166425  0.8518128480600919  1.0000
  C   C44       1.0  0.3954754380019736  0.6242461535738928  0.14818682439319278  1.0000
  C   C45       1.0  0.913872406412203  0.876677823195813  0.2418588502981009  1.0000
  C   C46       1.0  0.5861291393310353  0.3766769114186915  0.7581414644217543  1.0000
  C   C47       1.0  0.0861269754487708  0.12332184119881621  0.7581406537138305  1.0000
  C   C48       1.0  0.413871231710651  0.6233227529759378  0.24185885963407824  1.0000
  C   C49       1.0  0.1313523176201272  0.8455110737851186  0.1660474694016116  1.0000
  C   C50       1.0  0.3686508354428568  0.3455108817278757  0.8339528394731487  1.0000
  C   C51       1.0  0.8686470642408465  0.1544885906095033  0.8339507127332553  1.0000
  C   C52       1.0  0.6313525031409668  0.654488062946875  0.16604862283733005  1.0000
  C   C53       1.0  0.1482267513931177  0.847565154304661  0.2599995857785728  1.0000
  C   C54       1.0  0.351773434127729  0.3475642425275396  0.7400009067186133  1.0000
  C   C55       1.0  0.8517726304678562  0.1524345100899609  0.7399999182333659  1.0000
  C   C56       1.0  0.6482269369139573  0.6524339824273397  0.2599987563986872  1.0000
  C   C57       1.0  0.0399124525650052  0.8635918764522048  0.29864644448694827  1.0000
  C   C58       1.0  0.4600877329558343  0.3635909646750832  0.7013533870717054  1.0000
  C   C59       1.0  0.9600869292959686  0.1364085076622956  0.7013530595249904  1.0000
  C   C60       1.0  0.5399116489051323  0.6364079799996676  0.2986461169402261  1.0000
  C   C61       1.0  0.0566642279296588  0.866706824065574  0.3986475694054334  1.0000
  C   C62       1.0  0.44333694677190033  0.366707351728202  0.601352421258589  1.0000
  C   C63       1.0  0.9433361431120276  0.1332921206091768  0.601352093711867  1.0000
  C   C64       1.0  0.5566634242697859  0.6332923126664198  0.3986472418587184  1.0000
  N   N1        1.0  0.013081914921613702  0.8184006655826012  0.6271233357344173  1.0000
  N   N2        1.0  0.4869172814185135  0.3183997538054797  0.3728763367188606  1.0000
  N   N3        1.0  0.9869164777586478  0.18160043825177047  0.37287600917214536  1.0000
  N   N4        1.0  0.5130840788038782  0.6816006303090134  0.6271241464423412  1.0000
  N   N5        1.0  0.826951118851369  0.734603680687755  0.6277576524210173  1.0000
  N   N6        1.0  0.6730504268918693  0.23460204919075525  0.3722426622988451  1.0000
  N   N7        1.0  0.1730482630096049  0.2653981428664878  0.3722405297138565  1.0000
  N   N8        1.0  0.3269509333305223  0.765398334923738  0.6277584818008961  1.0000
  N   N9        1.0  0.983832212297358  0.8550653551084864  0.015312502898453316  1.0000
  N   N10       1.0  0.5161703226265999  0.3550658827711075  0.9846873099882455  1.0000
  N   N11       1.0  0.0161661803829034  0.1449350290060138  0.9846868420081164  1.0000
  N   N12       1.0  0.4838310375957988  0.6449323421837648  0.015313173172963003  1.0000
  O   O1        1.0  0.1665790211504472  0.83546162518865  0.44852384047571536  1.0000
  O   O2        1.0  0.3334211643703924  0.3354614331314067  0.5514759910829383  1.0000
  O   O3        1.0  0.8334203607105266  0.1645380392059721  0.5514756635362159  1.0000
  O   O4        1.0  0.6665792066712868  0.6645382312632224  0.4485243329729015  1.0000
  O   O5        1.0  0.9650565731951133  0.8976353461980722  0.43376443398467757  1.0000
  O   O6        1.0  0.5349439833674126  0.3976365935805717  0.5662357216298088  1.0000
  O   O7        1.0  0.0349428086658605  0.10236359847667843  0.5662344090887215  1.0000
  O   O8        1.0  0.46505539849355426  0.6023637905339285  0.43376444332065484  1.0000
  O   O9        1.0  0.164660010568376  0.9454211472123575  0.9931953479021229  1.0000
  O   O10       1.0  0.3353411641331832  0.44542023543523623  0.006805964638964201  1.0000
  O   O11       1.0  0.8353383821118855  0.054577797462393114  0.006803336065907224  1.0000
  O   O12       1.0  0.664661185269928  0.5545765500798936  0.9931946776276133  1.0000
  O   O13       1.0  0.7840909077633853  0.7681145577270811  0.986168468512062  1.0000
  O   O14       1.0  0.715912616341285  0.268114365669831  0.013832825357070517  1.0000
  O   O15       1.0  0.2159055065554512  0.2318829475079198  0.01383188006082749  1.0000
  O   O16       1.0  0.2840877547004013  0.7318852987247909  0.986168820575834  1.0000
  O   O17       1.0  0.2240247018429073  0.9872706987083718  0.6080115776772459  1.0000
  O   O18       1.0  0.2759735053165073  0.48727266581074263  0.3919925622403966  1.0000
  O   O19       1.0  0.775973690837354  0.0127268065266293  0.39199239379905026  1.0000
  O   O20       1.0  0.7240238981830416  0.5127291577435004  0.6080112501305237  1.0000
