data_image0
_chemical_formula_structural       Ni2H68C80N8O16
_chemical_formula_sum              "Ni2 H68 C80 N8 O16"
_cell_length_a       10.574803739688884
_cell_length_b       12.133128630594266
_cell_length_c       17.445710279130598
_cell_angle_alpha    110.69833921757093
_cell_angle_beta     89.33787897845951
_cell_angle_gamma    102.05820939169195

_space_group_name_H-M_alt    "P 1"
_space_group_IT_number       1

loop_
  _space_group_symop_operation_xyz
  'x, y, z'

loop_
  _atom_site_type_symbol
  _atom_site_label
  _atom_site_symmetry_multiplicity
  _atom_site_fract_x
  _atom_site_fract_y
  _atom_site_fract_z
  _atom_site_occupancy
  Ni  Ni1       1.0  0.5000033810848451  0.5000028592765844  0.9999981585660648  1.0000
  Ni  Ni2       1.0  1.0693898247306305e-06  0.5000028830439193  0.9999991082147304  1.0000
  H   H1        1.0  0.4041139338777598  0.3625821308125837  0.06757954725816263  1.0000
  H   H2        1.0  0.5958903044585782  0.6374308220580006  0.9324244658897882  1.0000
  H   H3        1.0  0.28786150948513983  0.428445874890194  0.0571728667489921  1.0000
  H   H4        1.0  0.7121365598117891  0.5715642058211756  0.942826990619764  1.0000
  H   H5        1.0  0.907363671067344  0.3534081394610666  0.061202243713076115  1.0000
  H   H6        1.0  0.09263204942295293  0.6465945971098891  0.9387907166383584  1.0000
  H   H7        1.0  0.7862430825051449  0.41502612414620194  0.05254450617778872  1.0000
  H   H8        1.0  0.21375422612145198  0.5849758116569748  0.9474517180370299  1.0000
  H   H9        1.0  0.8712748612885618  0.8737595850929694  0.21199153665499182  1.0000
  H   H10       1.0  0.1287283382727864  0.1262513573104229  0.7880028239149439  1.0000
  H   H11       1.0  0.6249038539028007  0.1466539932527624  0.767750662989272  1.0000
  H   H12       1.0  0.37511033427041707  0.8533518402768082  0.23224773759027073  1.0000
  H   H13       1.0  0.15924422386441958  0.47110425329662314  0.8157294955359617  1.0000
  H   H14       1.0  0.8407636471027615  0.5289098892173743  0.18428571608391317  1.0000
  H   H15       1.0  0.3503031824030174  0.3706445236478331  0.8321599333658513  1.0000
  H   H16       1.0  0.6497086325717306  0.6293584996041022  0.16783435215721454  1.0000
  H   H17       1.0  0.682027368630486  0.3083355854633183  0.9273205438890102  1.0000
  H   H18       1.0  0.31797111668156225  0.6916637558914972  0.07267909464268035  1.0000
  H   H19       1.0  0.991380720850451  0.3379950601804893  0.5553867486392079  1.0000
  H   H20       1.0  0.008616296691940346  0.6619955532422852  0.44462459729159326  1.0000
  H   H21       1.0  0.8143125997933467  0.6930122782064886  0.058299799566626107  1.0000
  H   H22       1.0  0.18569235180238056  0.3069942678541012  0.9416969838542572  1.0000
  H   H23       1.0  0.0232507298580913  0.4379615143506328  0.6919128424285432  1.0000
  H   H24       1.0  0.9767665210691162  0.5620427886961537  0.3080955421780586  1.0000
  H   H25       1.0  0.3405632078755261  0.6391743525824793  0.6072626508281758  1.0000
  H   H26       1.0  0.6594514466922591  0.3608172170682877  0.3927381462021842  1.0000
  H   H27       1.0  0.5468783309049812  0.39979744459837  0.6706000712985017  1.0000
  H   H28       1.0  0.4531104598755745  0.6001942749051778  0.3293851001198008  1.0000
  H   H29       1.0  0.8272592192888125  0.6759494962248453  0.6220384251460302  1.0000
  H   H30       1.0  0.1727433258331672  0.3240417302052236  0.3779553269349165  1.0000
  H   H31       1.0  0.4764597048908783  0.6756942578301164  0.7337372106964182  1.0000
  H   H32       1.0  0.5235540355877077  0.3243153489064312  0.26627067164628937  1.0000
  H   H33       1.0  0.6791641951217785  0.4354105980860369  0.7972381168343008  1.0000
  H   H34       1.0  0.3208270769038037  0.564588382663004  0.20274991925096944  1.0000
  H   H35       1.0  0.5135350833107282  0.0399655653226887  0.6597571041402831  1.0000
  H   H36       1.0  0.4864730454654024  0.9600473902188185  0.34024406948013564  1.0000
  H   H37       1.0  0.2387999925057755  0.8082725355919322  0.4512950224104131  1.0000
  H   H38       1.0  0.761201592711835  0.19172771940902317  0.5487031313114343  1.0000
  H   H39       1.0  0.9583167822595796  0.7103108781183423  0.7500187552796691  1.0000
  H   H40       1.0  0.041680902039040305  0.2896667877927399  0.24997236051584082  1.0000
  H   H41       1.0  0.1559186369753789  0.1892561024287147  0.5759407600732659  1.0000
  H   H42       1.0  0.8440785642926371  0.8107389145934077  0.424067031267839  1.0000
  H   H43       1.0  0.5428421800633602  0.3267623955159422  0.5303791222173331  1.0000
  H   H44       1.0  0.45716220074771025  0.6732334194019529  0.469618584285911  1.0000
  H   H45       1.0  0.3986454080334454  0.9300496298660549  0.5249009957113772  1.0000
  H   H46       1.0  0.6013625290414097  0.0699498898769662  0.4750998967272011  1.0000
  H   H47       1.0  0.14335386555322324  0.6949844259967649  0.3115926992596131  1.0000
  H   H48       1.0  0.8566454561082394  0.30502301289772055  0.6884082682258212  1.0000
  H   H49       1.0  0.1381944830875526  0.13000020955946917  0.44070751320257534  1.0000
  H   H50       1.0  0.8617885026967187  0.8699945635645959  0.5592995493783022  1.0000
  H   H51       1.0  0.27527532888268524  0.303185676569818  0.7080948397556739  1.0000
  H   H52       1.0  0.7247336139117165  0.6968138231172034  0.29190433471343624  1.0000
  H   H53       1.0  0.1347299713537566  0.6405493007440343  0.17241887303109146  1.0000
  H   H54       1.0  0.8652727914571016  0.35945637082505755  0.8275805574804168  1.0000
  H   H55       1.0  0.0369816639686249  0.0145425826544212  0.30150826000274833  1.0000
  H   H56       1.0  0.9630137987127227  0.9854613408890246  0.6984987383481424  1.0000
  H   H57       1.0  0.5759162982894565  0.8496053193612169  0.5460542746408024  1.0000
  H   H58       1.0  0.4240847453194334  0.15037761642683023  0.4539294975549808  1.0000
  H   H59       1.0  0.6184967941147266  0.9049897289777538  0.6539263485024804  1.0000
  H   H60       1.0  0.3814866774235313  0.09501172608476341  0.3460576259511186  1.0000
  H   H61       1.0  0.46343173582054215  0.8057248128829074  0.6135631128942336  1.0000
  H   H62       1.0  0.5365606176036694  0.1942741004416177  0.3864209010213813  1.0000
  H   H63       1.0  0.044346163984748374  0.8183364688715143  0.6282131910706924  1.0000
  H   H64       1.0  0.9556500244958882  0.18165754702393852  0.3717903449411182  1.0000
  H   H65       1.0  0.2134138646327415  0.8878392257644805  0.6527474795378012  1.0000
  H   H66       1.0  0.7865890800881561  0.11215482737095785  0.3472526714384614  1.0000
  H   H67       1.0  0.14096099404943632  0.7685979520460934  0.6883439930114862  1.0000
  H   H68       1.0  0.8590414471253282  0.2314079208392101  0.3116652303508545  1.0000
  C   C1        1.0  0.9173600874934066  0.7998789016614936  0.1807068130065304  1.0000
  C   C2        1.0  0.0826453204605428  0.20013043557806745  0.8192946411595301  1.0000
  C   C3        1.0  0.5761635235533049  0.21562818843455034  0.8042699477750119  1.0000
  C   C4        1.0  0.42383235057889845  0.7843775287894703  0.19573690012238393  1.0000
  C   C5        1.0  0.19941862177265793  0.506923972022797  0.7694218487985581  1.0000
  C   C6        1.0  0.8005860161626047  0.4930918075531566  0.23058856324470872  1.0000
  C   C7        1.0  0.9021351044378961  0.6005402351048589  0.8608007041125987  1.0000
  C   C8        1.0  0.09785634402565789  0.39945164923118165  0.13919025834822923  1.0000
  C   C9        1.0  0.5914368980687996  0.5190680720390545  0.5657972394793447  1.0000
  C   C10       1.0  0.4085627427251879  0.48092561131941386  0.4341878934729237  1.0000
  C   C11       1.0  0.4327025905522391  0.3322381169533842  0.835583331384548  1.0000
  C   C12       1.0  0.5672988118475287  0.6677657454647347  0.16441623939977754  1.0000
  C   C13       1.0  0.6042495298331261  0.29643956268888166  0.8831708372155802  1.0000
  C   C14       1.0  0.3957427501957511  0.7035624733942784  0.11683397684657854  1.0000
  C   C15       1.0  0.0878247598825581  0.519806635056959  0.5684262099033077  1.0000
  C   C16       1.0  0.912169409871332  0.4801759209381374  0.43158724301268603  1.0000
  C   C17       1.0  0.9957647889736309  0.4111732426693847  0.5322805011043314  1.0000
  C   C18       1.0  0.0042311660898946505  0.5888174263357798  0.4677342909460833  1.0000
  C   C19       1.0  0.4011444626587917  0.17761821935705774  0.695157530363396  1.0000
  C   C20       1.0  0.5988508794360924  0.8223847540565072  0.30484695098902387  1.0000
  C   C21       1.0  0.08134595931619511  0.8466586405415911  0.29730709063544236  1.0000
  C   C22       1.0  0.9186531093204168  0.15334793111792783  0.7026953922018677  1.0000
  C   C23       1.0  0.09012384497749082  0.6089990524647533  0.533563474094116  1.0000
  C   C24       1.0  0.9098686554889355  0.3909888736872986  0.4664512250694912  1.0000
  C   C25       1.0  0.8897103758674945  0.7095334201577758  0.10511500105202029  1.0000
  C   C26       1.0  0.11029060801358531  0.2904676273970992  0.8948787468870378  1.0000
  C   C27       1.0  0.6768154719227865  0.5361177686951991  0.6372868225676955  1.0000
  C   C28       1.0  0.32318194224679797  0.46387506385603683  0.3627021095752809  1.0000
  C   C29       1.0  0.12364241604549163  0.4871415036799719  0.699272588781966  1.0000
  C   C30       1.0  0.8763636057849028  0.5128635401676862  0.300737038554864  1.0000
  C   C31       1.0  0.26553560767857937  0.0482757101490279  0.5393162870080205  1.0000
  C   C32       1.0  0.7344596074499848  0.9517228241388053  0.4606900207839502  1.0000
  C   C33       1.0  0.3008551605250461  0.6036877572060959  0.6535609448501845  1.0000
  C   C34       1.0  0.6991489373972684  0.3963162463602501  0.3464432648765694  1.0000
  C   C35       1.0  0.6386616072035949  0.4662752620504591  0.6864593339171279  1.0000
  C   C36       1.0  0.36134168992510507  0.5337175449018474  0.3135238988094359  1.0000
  C   C37       1.0  0.7942180562634249  0.623339463012563  0.6605034078450913  1.0000
  C   C38       1.0  0.20579213729974544  0.37665185165427323  0.339488697531138  1.0000
  C   C39       1.0  0.3259823326504049  0.5772051334569  0.783384659974736  1.0000
  C   C40       1.0  0.6740219875250589  0.42280078221132567  0.21662515979900834  1.0000
  C   C41       1.0  0.19759107004870213  0.9790475347968414  0.4575675814803192  1.0000
  C   C42       1.0  0.8024057395960325  0.0209536877190644  0.5424376467370068  1.0000
  C   C43       1.0  0.17208237889334307  0.5368543047907794  0.6404620572513622  1.0000
  C   C44       1.0  0.8279304281334205  0.46313370939694937  0.3595413347055114  1.0000
  C   C45       1.0  0.8261328004457908  0.5762137883361689  0.781977065052395  1.0000
  C   C46       1.0  0.1738688508795008  0.42377184389381745  0.21800676948816292  1.0000
  C   C47       1.0  0.3767301861411241  0.6236898954354544  0.7237371082214068  1.0000
  C   C48       1.0  0.6232757743656805  0.37632771697573725  0.2762743156491396  1.0000
  C   C49       1.0  0.7117724486396285  0.48657808611750414  0.7578055400761842  1.0000
  C   C50       1.0  0.2882236349827778  0.5134038813993484  0.24217854446797557  1.0000
  C   C51       1.0  0.4350780165995403  0.07295533140858619  0.6418104479595073  1.0000
  C   C52       1.0  0.5649251702020733  0.927048633003103  0.3581925994864648  1.0000
  C   C53       1.0  0.19788490222084928  0.8557546515971809  0.4185395704039082  1.0000
  C   C54       1.0  0.8021085159659621  0.1442472815350655  0.5814594933384356  1.0000
  C   C55       1.0  0.867709359259834  0.642640665734895  0.7314754412042461  1.0000
  C   C56       1.0  0.1322976776384692  0.3573497708121849  0.2685198771319577  1.0000
  C   C57       1.0  0.23465752478156787  0.15524899758635513  0.593097747639817  1.0000
  C   C58       1.0  0.7653397207058534  0.8447494847473537  0.40690454816316907  1.0000
  C   C59       1.0  0.5227384196280199  0.40310049628618577  0.517459810204663  1.0000
  C   C60       1.0  0.4772547991017078  0.5968894476781088  0.4825226823202867  1.0000
  C   C61       1.0  0.5664897629939177  0.6168847364555605  0.5468576606519022  1.0000
  C   C62       1.0  0.4335095894392467  0.3831216575720049  0.4531361814346724  1.0000
  C   C63       1.0  0.3686504757007398  0.010209140518092899  0.5654348228325219  1.0000
  C   C64       1.0  0.6313479788396066  0.9897912457036356  0.4345719410980351  1.0000
  C   C65       1.0  0.14144550690775054  0.7903456430416824  0.33956566228569335  1.0000
  C   C66       1.0  0.8585449248921223  0.2096553053916352  0.6604314299661951  1.0000
  C   C67       1.0  0.40540481180885735  0.6027789183145985  0.8611071909626988  1.0000
  C   C68       1.0  0.5946114477543035  0.397237925983184  0.13890240394688652  1.0000
  C   C69       1.0  0.1363031257342584  0.03368815546039631  0.41409285241885396  1.0000
  C   C70       1.0  0.8636856429382007  0.9663111732960346  0.5859135969066429  1.0000
  C   C71       1.0  0.3015309955209205  0.21980768885798344  0.6694250446494011  1.0000
  C   C72       1.0  0.6984683954397539  0.7801962136721274  0.3305779620738606  1.0000
  C   C73       1.0  0.05452865654709884  0.6782840945933445  0.16297651058014406  1.0000
  C   C74       1.0  0.9454658106708674  0.3217132727779984  0.8370174771818385  1.0000
  C   C75       1.0  0.07942599681107515  0.9690167346646633  0.33501430132513127  1.0000
  C   C76       1.0  0.9205704392223452  0.030982670486402197  0.6649899252455995  1.0000
  C   C77       1.0  0.5666577189738434  0.827287978182767  0.6020919591180061  1.0000
  C   C78       1.0  0.43333205313442136  0.17270825512756013  0.397894276291666  1.0000
  C   C79       1.0  0.1410262620146909  0.8028931621826131  0.6378005587737547  1.0000
  C   C80       1.0  0.858970794275031  0.1971054385724003  0.3622074975297167  1.0000
  N   N1        1.0  0.9757968118621038  0.6346272153933583  0.0953491874326673  1.0000
  N   N2        1.0  0.02421046164484863  0.3653776544506187  0.9046512332840564  1.0000
  N   N3        1.0  0.5142327693204365  0.36851613257513094  0.901274466103189  1.0000
  N   N4        1.0  0.4857638882781644  0.6314876524910106  0.09872505377774134  1.0000
  N   N5        1.0  0.02193060260631093  0.7793955800000633  0.21732101650751193  1.0000
  N   N6        1.0  0.9780660171527487  0.22060822875034353  0.7826796554735154  1.0000
  N   N7        1.0  0.46698844794329364  0.23888105853649222  0.7740091675927802  1.0000
  N   N8        1.0  0.5330081898277329  0.7611147273552845  0.22599306586542411  1.0000
  O   O1        1.0  0.3508763450101712  0.5631033844972039  0.9152768556944367  1.0000
  O   O2        1.0  0.6491262789824362  0.4368988809709435  0.08473095060543301  1.0000
  O   O3        1.0  0.5226060016704467  0.6585196651953782  0.8676426121211805  1.0000
  O   O4        1.0  0.47740518369963075  0.3414987496971876  0.13236043470029563  1.0000
  O   O5        1.0  0.35930787322770635  0.3908698553971917  0.026991275841489  1.0000
  O   O6        1.0  0.6406980289240211  0.6091422493370828  0.9730136969696447  1.0000
  O   O7        1.0  0.8614261091828297  0.38341450248499603  0.022793131178829616  1.0000
  O   O8        1.0  0.13857354665463362  0.6165892342552866  0.9772018108437451  1.0000
  O   O9        1.0  0.013655732021497629  0.6696621774127608  0.8745952596385538  1.0000
  O   O10       1.0  0.9863228944248446  0.3303333026993869  0.1254062043367128  1.0000
  O   O11       1.0  0.8499555826325816  0.5463381107363716  0.9086088150996688  1.0000
  O   O12       1.0  0.1500409220120815  0.4536602258635156  0.0913871339720913  1.0000
  O   O13       1.0  0.6278209447077288  0.7312458499056261  0.5973866720516411  1.0000
  O   O14       1.0  0.3721721178797424  0.2687462430031502  0.4026129515212773  1.0000
  O   O15       1.0  0.17683507692450465  0.720572354548466  0.5631517257949883  1.0000
  O   O16       1.0  0.8231602499070901  0.27941008665359135  0.436855400751142  1.0000
