data_image0
_chemical_formula_structural       Dy6Cu3H12C30N12O27
_chemical_formula_sum              "Dy6 Cu3 H12 C30 N12 O27"
_cell_length_a       6.756703155086497
_cell_length_b       16.19260254426906
_cell_length_c       16.18989988659984
_cell_angle_alpha    118.14918703110376
_cell_angle_beta     97.86151642343303
_cell_angle_gamma    98.25949008412502

_space_group_name_H-M_alt    "P 1"
_space_group_IT_number       1

loop_
  _space_group_symop_operation_xyz
  'x, y, z'

loop_
  _atom_site_type_symbol
  _atom_site_label
  _atom_site_symmetry_multiplicity
  _atom_site_fract_x
  _atom_site_fract_y
  _atom_site_fract_z
  _atom_site_occupancy
  Dy  Dy1       1.0  0.11887114983954228  0.9114658693365105  0.8468683937720913  1.0000
  Dy  Dy2       1.0  0.2105759059545634  0.9353645367348168  0.08923255209951028  1.0000
  Dy  Dy3       1.0  0.2734782628927234  0.15271108793606913  0.0632745891871522  1.0000
  Dy  Dy4       1.0  0.8811105048913176  0.0885271234440168  0.15312394402177182  1.0000
  Dy  Dy5       1.0  0.7894097236272157  0.0646306239258507  0.9107666036919183  1.0000
  Dy  Dy6       1.0  0.7265130172932642  0.8472833570541103  0.936722718156972  1.0000
  Cu  Cu1       1.0  4.507434525161984e-06  0.4999990405413257  0.4999935459212211  1.0000
  Cu  Cu2       1.0  0.5000216902390946  5.694646858999792e-06  0.5000044491609188  1.0000
  Cu  Cu3       1.0  0.49998778149546297  0.4999991027557798  3.243822533170325e-06  1.0000
  H   H1        1.0  0.4174581396692787  0.4755976423663669  0.5746537424855235  1.0000
  H   H2        1.0  0.6967058638414303  0.5894056879205396  0.7303087757204524  1.0000
  H   H3        1.0  0.9455356939154596  0.09944799957713713  0.5255455858560651  1.0000
  H   H4        1.0  0.11452688512837028  0.13947207729723493  0.4116440072617636  1.0000
  H   H5        1.0  0.846062951879311  0.42732154890835256  0.9014830722085208  1.0000
  H   H6        1.0  0.9739708057423685  0.27347370040104124  0.86102171598327  1.0000
  H   H7        1.0  0.5825281637590791  0.5243960785730553  0.42534971878641425  1.0000
  H   H8        1.0  0.30326875537274833  0.41058009508584803  0.2697013678970634  1.0000
  H   H9        1.0  0.054515212325384456  0.900545781350765  0.4744445068808788  1.0000
  H   H10       1.0  0.8855083071437804  0.8605288951536709  0.5883441934977969  1.0000
  H   H11       1.0  0.1539062482665728  0.5726793607429742  0.0985128527301669  1.0000
  H   H12       1.0  0.02600280314484155  0.7265300974429183  0.1389776855643064  1.0000
  C   C1        1.0  0.36984880379885954  0.7290178476538999  0.7554959094509854  1.0000
  C   C2        1.0  0.21092921485809774  0.6629296196491412  0.6709101857011676  1.0000
  C   C3        1.0  0.40714679510384133  0.5472998006848826  0.627117463793617  1.0000
  C   C4        1.0  0.5586828417045666  0.6106484119776142  0.7115833599311969  1.0000
  C   C5        1.0  0.00906264603980848  0.6817133407626416  0.6442972346139086  1.0000
  C   C6        1.0  0.6459199020068666  0.026268533060644514  0.27185996782179705  1.0000
  C   C7        1.0  0.5518158203909137  0.007817663529252202  0.3376052138124663  1.0000
  C   C8        1.0  0.8639785655818386  0.07971646016375901  0.45366512759274974  1.0000
  C   C9        1.0  0.9540085386939835  0.10009625180366304  0.3902928776640239  1.0000
  C   C10       1.0  0.3303179266133611  0.962214070297904  0.3182392071094641  1.0000
  C   C11       1.0  0.6180355705960421  0.24565533606761392  0.9734740237234406  1.0000
  C   C12       1.0  0.5426390860603192  0.3296867334312454  0.992000716979412  1.0000
  C   C13       1.0  0.7836766090417341  0.37475549815086145  0.9207748399131149  1.0000
  C   C14       1.0  0.8528000445378864  0.29109076408688156  0.9002049233725204  1.0000
  C   C15       1.0  0.3666032073780555  0.3554602364739453  0.037349576095053315  1.0000
  C   C16       1.0  0.6301372362404648  0.27097803361269973  0.2445011390521756  1.0000
  C   C17       1.0  0.7890715498034311  0.3370655535702058  0.32908000632664175  1.0000
  C   C18       1.0  0.5928340035626221  0.4526917513239398  0.37288093972740205  1.0000
  C   C19       1.0  0.44129222434264653  0.38934385672873634  0.2884212113886094  1.0000
  C   C20       1.0  0.9909427095808638  0.31828760114228777  0.35568606281511006  1.0000
  C   C21       1.0  0.3540917340336308  0.9737425108489294  0.7281445165927424  1.0000
  C   C22       1.0  0.4482133657650849  0.9921926773683867  0.6624012346376064  1.0000
  C   C23       1.0  0.13606092351242435  0.9202845191065167  0.5463332186821077  1.0000
  C   C24       1.0  0.0460071162283954  0.8999047025896731  0.609699694795765  1.0000
  C   C25       1.0  0.6697059608138076  0.03779770760974801  0.681770067750712  1.0000
  C   C26       1.0  0.38195625053683113  0.7543463191898855  0.026532264390390213  1.0000
  C   C27       1.0  0.45734490291744817  0.6703113103398977  0.008005254106272747  1.0000
  C   C28       1.0  0.216304507577  0.6252425411718435  0.07922477886251042  1.0000
  C   C29       1.0  0.14719004712225825  0.7089101668732739  0.0997941253724406  1.0000
  C   C30       1.0  0.6333930915685502  0.6445385405616694  0.9626581001852089  1.0000
  N   N1        1.0  0.5409463544415302  0.6978026576529288  0.7730724142863821  1.0000
  N   N2        1.0  0.2368423021606391  0.5756221093066218  0.6100272112086955  1.0000
  N   N3        1.0  0.8496688541409936  0.0743735426908145  0.30307174743186494  1.0000
  N   N4        1.0  0.6644237507175886  0.0344487597305658  0.4250690941621116  1.0000
  N   N5        1.0  0.7735852856851648  0.22921431730034675  0.9255428702303236  1.0000
  N   N6        1.0  0.6291479335122219  0.39090052513254403  0.9657086763572594  1.0000
  N   N7        1.0  0.4590332023620434  0.3021924982190143  0.22693131429083022  1.0000
  N   N8        1.0  0.7631602388393546  0.4243737876231961  0.3899677519871361  1.0000
  N   N9        1.0  0.15033363072921455  0.9256338860409842  0.6969230732973912  1.0000
  N   N10       1.0  0.3356171172002151  0.9655579880317194  0.5749338996600105  1.0000
  N   N11       1.0  0.22642118452620252  0.7707895136306749  0.07445976530510741  1.0000
  N   N12       1.0  0.37083161280111193  0.6091003964203168  0.03429405541135115  1.0000
  O   O1        1.0  0.36472533381571304  0.8139623706600365  0.8167810159302323  1.0000
  O   O2        1.0  0.9604275974805958  0.7579402187992346  0.6969628774132063  1.0000
  O   O3        1.0  0.8872908035711689  0.6128580585096374  0.5632612055873666  1.0000
  O   O4        1.0  0.05036550176287583  0.8391831918357582  0.9318601342706856  1.0000
  O   O5        1.0  0.5556646757177217  0.0032083033735972005  0.1871447728003517  1.0000
  O   O6        1.0  0.2059506389375019  0.9382676786175783  0.2418121842790059  1.0000
  O   O7        1.0  0.27586900309234624  0.9501237770110865  0.3868320667627574  1.0000
  O   O8        1.0  0.21331707333681746  0.09253458855344122  0.160717767588622  1.0000
  O   O9        1.0  0.550788251042853  0.18367467890157496  0.996319528555688  1.0000
  O   O10       1.0  0.26570214698911343  0.3025944263273745  0.06100662832690778  1.0000
  O   O11       1.0  0.3247497174070873  0.43610732953726494  0.049525104867875355  1.0000
  O   O12       1.0  0.1176118620030664  0.06864047837220262  0.9064678257033307  1.0000
  O   O13       1.0  0.6352566376412339  0.18603134390017576  0.18321415097704374  1.0000
  O   O14       1.0  0.03958751894727907  0.2420650563951626  0.30301748655925564  1.0000
  O   O15       1.0  0.11272178467555702  0.38713928534792075  0.4367165133511436  1.0000
  O   O16       1.0  0.9496224604572276  0.1608105285402105  0.06813477920228196  1.0000
  O   O17       1.0  0.4443450147091212  0.9968049017200401  0.812863080744812  1.0000
  O   O18       1.0  0.7940638577455913  0.061743369887146606  0.7581992694957903  1.0000
  O   O19       1.0  0.7241670484613466  0.049891618762146095  0.6131858194902193  1.0000
  O   O20       1.0  0.7866641592200595  0.9074576837678737  0.8392772945437132  1.0000
  O   O21       1.0  0.4492143852971822  0.8163277081297908  0.003688373848746255  1.0000
  O   O22       1.0  0.7343041292879988  0.6974065242574246  0.9390069954664072  1.0000
  O   O23       1.0  0.6752394361736264  0.5638921616782258  0.9504843289557243  1.0000
  O   O24       1.0  0.8823741012663432  0.9313525210809744  0.09353404055561043  1.0000
  O   O25       1.0  0.39802389447256553  0.9996200895144726  0.0006361511541969183  1.0000
  O   O26       1.0  0.6019618458022292  0.00037218698525979984  0.9993579495896441  1.0000
  O   O27       1.0  0.9999910121186132  1.415431995599695e-06  1.381551605584634e-06  1.0000
