data_image0
_chemical_formula_structural       Y4H24C24O36
_chemical_formula_sum              "Y4 H24 C24 O36"
_cell_length_a       6.538076544068305
_cell_length_b       10.237906737003794
_cell_length_c       13.380216146143319
_cell_angle_alpha    89.99990858631898
_cell_angle_beta     89.9994773066686
_cell_angle_gamma    90.00003372219447

_space_group_name_H-M_alt    "P 1"
_space_group_IT_number       1

loop_
  _space_group_symop_operation_xyz
  'x, y, z'

loop_
  _atom_site_type_symbol
  _atom_site_label
  _atom_site_symmetry_multiplicity
  _atom_site_fract_x
  _atom_site_fract_y
  _atom_site_fract_z
  _atom_site_occupancy
  Y   Y1        1.0  0.1332675077518743  0.5000003646039061  0.30032264323781993  1.0000
  Y   Y2        1.0  0.8667302616188762  0.5000000933990094  0.6996777857584392  1.0000
  Y   Y3        1.0  0.633268940282889  2.3357015519999988e-07  0.1996771049036568  1.0000
  Y   Y4        1.0  0.3667318880984779  2.2443411039999986e-07  0.8003225767137039  1.0000
  H   H1        1.0  0.2156920939958269  0.27445247071135265  0.1540267563275037  1.0000
  H   H2        1.0  0.7843069985089384  0.27445089111371596  0.8459739521864122  1.0000
  H   H3        1.0  0.7156920736595963  0.22554783995006034  0.3459732440332814  1.0000
  H   H4        1.0  0.2843054446051028  0.22554744198921373  0.6540267777184569  1.0000
  H   H5        1.0  0.7843072048771873  0.7255489640540275  0.8459736726647478  1.0000
  H   H6        1.0  0.21569230036318024  0.7255485901273245  0.1540264768070472  1.0000
  H   H7        1.0  0.28430722522647756  0.7744516412925149  0.6540256902160095  1.0000
  H   H8        1.0  0.7156923247586633  0.7744530160129414  0.3459743986498863  1.0000
  H   H9        1.0  0.9794014650685129  0.3116106053528397  0.1505153717825891  1.0000
  H   H10       1.0  0.020596131932933293  0.3116097061713177  0.8494852906844413  1.0000
  H   H11       1.0  0.47940081658727246  0.18838980514741616  0.3494842003944357  1.0000
  H   H12       1.0  0.5205951381845323  0.18838950385512024  0.6505151200383139  1.0000
  H   H13       1.0  0.020596304308760697  0.6883888758886766  0.8494843098421967  1.0000
  H   H14       1.0  0.9794016374369148  0.6883887983072581  0.1505151383130325  1.0000
  H   H15       1.0  0.5205969527974261  0.8116106528570343  0.650514733857662  1.0000
  H   H16       1.0  0.47940263118577053  0.811609977385629  0.349485308958549  1.0000
  H   H17       1.0  0.22560455169502086  0.42427765102150505  0.515170284163915  1.0000
  H   H18       1.0  0.7743931483931377  0.42427876281976035  0.4848302386742276  1.0000
  H   H19       1.0  0.7256048609175778  0.07572359014521621  0.9848292126731621  1.0000
  H   H20       1.0  0.27439099076840995  0.07572157006455169  0.015170247387267499  1.0000
  H   H21       1.0  0.7743978061895117  0.5757257372695573  0.48482939744822323  1.0000
  H   H22       1.0  0.2256061504668168  0.5757246254684246  0.5151716850609773  1.0000
  H   H23       1.0  0.2743944379610781  0.9242749143344183  0.015170468948817  1.0000
  H   H24       1.0  0.7256021901094768  0.9242759576525257  0.9848286868768739  1.0000
  C   C1        1.0  0.0762514664499889  0.7547427570025107  0.3987021891253306  1.0000
  C   C2        1.0  0.9237526540044598  0.754736848838796  0.6012979241599581  1.0000
  C   C3        1.0  0.5762483845842326  0.7452607498710789  0.10129781318912022  1.0000
  C   C4        1.0  0.4237526681880439  0.7452638092991533  0.8987030592205159  1.0000
  C   C5        1.0  0.9237478324234729  0.24525965452504284  0.6012982398663098  1.0000
  C   C6        1.0  0.0762497038564618  0.2452606788769458  0.39870399957205643  1.0000
  C   C7        1.0  0.42375244379060456  0.2547406848945927  0.8987026157997207  1.0000
  C   C8        1.0  0.5762481601876956  0.25473957899085053  0.1012973697671171  1.0000
  C   C9        1.0  0.0385641108073429  0.8818292220287345  0.4510698087983229  1.0000
  C   C10       1.0  0.9614385964134867  0.8818302730059883  0.5489316417326862  1.0000
  C   C11       1.0  0.5385618903273937  0.6181732938137326  0.0489311088886808  1.0000
  C   C12       1.0  0.46143904618973863  0.6181694226399869  0.9510669315356992  1.0000
  C   C13       1.0  0.9614382470636824  0.11817514302296667  0.5489313675573726  1.0000
  C   C14       1.0  0.038563761482763  0.11816823147575659  0.4510665451383177  1.0000
  C   C15       1.0  0.4614374085674484  0.381830094478282  0.9510670779861171  1.0000
  C   C16       1.0  0.5385617821968224  0.38182712831636667  0.0489320027120002  1.0000
  C   C17       1.0  0.07522326946301659  2.532236152299999e-06  0.401539683512631  1.0000
  C   C18       1.0  0.9247836768768137  0.9999979257638997  0.5984652296956696  1.0000
  C   C19       1.0  0.5752220031484754  0.5000006555311386  0.09846019565555512  1.0000
  C   C20       1.0  0.42477729575897166  0.49999980247590503  0.9015364964768864  1.0000
  C   C21       1.0  0.1254653754113093  7.015210172999998e-07  0.2911953152120859  1.0000
  C   C22       1.0  0.8745365249924077  4.1452749139999977e-07  0.7088049860486763  1.0000
  C   C23       1.0  0.6254589900457859  0.49999957498187075  0.208802845257118  1.0000
  C   C24       1.0  0.3745479563489623  0.4999989294999804  0.791196088975731  1.0000
  O   O1        1.0  0.2519257579242407  0.727397390973472  0.3651739555363633  1.0000
  O   O2        1.0  0.7480783374919894  0.7273972080196459  0.6348284337505845  1.0000
  O   O3        1.0  0.7519312521219135  0.7726032521227921  0.134827505760434  1.0000
  O   O4        1.0  0.24807441419315515  0.7726043603721563  0.8651710906385262  1.0000
  O   O5        1.0  0.7480704819311724  0.27260404378979797  0.6348279682068637  1.0000
  O   O6        1.0  0.25192096138057707  0.2726032499835611  0.36517199524227095  1.0000
  O   O7        1.0  0.2480726352556815  0.22739622911911536  0.8651729232227936  1.0000
  O   O8        1.0  0.7519325322024883  0.2273960976340276  0.1348278435931221  1.0000
  O   O9        1.0  0.9267401891508058  0.673941254522532  0.3886990103470964  1.0000
  O   O10       1.0  0.0732577393404128  0.6739398876342618  0.6113041925742024  1.0000
  O   O11       1.0  0.4267410543628358  0.8260594547571715  0.1113016716764932  1.0000
  O   O12       1.0  0.5732539543488641  0.8260586842836374  0.8886968584995216  1.0000
  O   O13       1.0  0.0732575802064375  0.3260601802410221  0.6113029133927271  1.0000
  O   O14       1.0  0.9267369710061999  0.32606154712794916  0.3886984785445192  1.0000
  O   O15       1.0  0.5732582445083878  0.17393807295952968  0.8886987573181742  1.0000
  O   O16       1.0  0.42673922652902246  0.17393884343344007  0.1113020757646197  1.0000
  O   O17       1.0  0.972773683441339  0.9999992873908706  0.2324829931021881  1.0000
  O   O18       1.0  0.0272321908822235  0.9999985590413728  0.767520553091842  1.0000
  O   O19       1.0  0.47276980438027744  0.499999485793303  0.2675159889820193  1.0000
  O   O20       1.0  0.5272279650179285  0.4999999954505156  0.7324814505265209  1.0000
  O   O21       1.0  0.3086728733957713  1.0598778029999992e-07  0.2640900912878266  1.0000
  O   O22       1.0  0.6913203074695033  3.520142683999996e-07  0.7359103377186643  1.0000
  O   O23       1.0  0.8086777605256399  0.5000005585949906  0.23590887492816387  1.0000
  O   O24       1.0  0.1913154203391869  0.4999989226448918  0.7640915540789308  1.0000
  O   O25       1.0  0.11684486458496218  0.3444433058743356  0.1697792946517751  1.0000
  O   O26       1.0  0.883155821460896  0.3444427728106803  0.830221327118828  1.0000
  O   O27       1.0  0.6168450742971457  0.15555696736379326  0.3302211463472844  1.0000
  O   O28       1.0  0.38315237992873813  0.15555657447799118  0.6697789621437593  1.0000
  O   O29       1.0  0.8831544342871567  0.6555561753667049  0.8302211343416843  1.0000
  O   O30       1.0  0.11684500690652301  0.6555576851920506  0.1697798492427012  1.0000
  O   O31       1.0  0.38315575409164637  0.844444467403413  0.6697777878973952  1.0000
  O   O32       1.0  0.6168438599401822  0.8444438835246398  0.33022146685591747  1.0000
  O   O33       1.0  0.24994701336123626  0.4999982571695583  0.471730675459348  1.0000
  O   O34       1.0  0.7500522855174194  0.5000002473100834  0.5282690061626312  1.0000
  O   O35       1.0  0.7499481295075655  1.129373217e-07  0.0282684248272815  1.0000
  O   O36       1.0  0.2500491823972055  2.6348907100000068e-08  0.971731129072225  1.0000
