data_image0
_chemical_formula_structural       Co2H8C12N8O8
_chemical_formula_sum              "Co2 H8 C12 N8 O8"
_cell_length_a       6.854243013243325
_cell_length_b       7.4653262770419655
_cell_length_c       9.141776998150686
_cell_angle_alpha    113.00615944524075
_cell_angle_beta     109.87192804295535
_cell_angle_gamma    90.25766342753408

_space_group_name_H-M_alt    "P 1"
_space_group_IT_number       1

loop_
  _space_group_symop_operation_xyz
  'x, y, z'

loop_
  _atom_site_type_symbol
  _atom_site_label
  _atom_site_symmetry_multiplicity
  _atom_site_fract_x
  _atom_site_fract_y
  _atom_site_fract_z
  _atom_site_occupancy
  Co  Co1       1.0  0.2549760379773076  0.6775832478231364  0.3560112126493279  1.0000
  Co  Co2       1.0  0.7416163304556989  0.3251495391573798  0.6399071210828209  1.0000
  H   H1        1.0  0.6339732704114314  0.6142784912743976  0.44174884566574235  1.0000
  H   H2        1.0  0.6340982715976156  0.836032607407077  0.446314185475586  1.0000
  H   H3        1.0  0.34399868541672873  0.3891541433496998  0.5427492874692348  1.0000
  H   H4        1.0  0.34239032105256223  0.17208541672896155  0.5489196502650484  1.0000
  H   H5        1.0  0.8738528935308381  0.5079260515658531  0.23427371312691037  1.0000
  H   H6        1.0  0.8715499295774408  0.7329032532406857  0.23896343470947545  1.0000
  H   H7        1.0  0.1457549680406274  0.49484106189734683  0.7659021332908152  1.0000
  H   H8        1.0  0.1424191489639455  0.2757880683042089  0.7729597479975182  1.0000
  C   C1        1.0  0.2537899859151906  0.7477857854295351  0.6789748908313056  1.0000
  C   C2        1.0  0.2517656132104166  0.9470639401859274  0.6826964058369497  1.0000
  C   C3        1.0  0.7492237939680491  0.259081873315246  0.3169892723962845  1.0000
  C   C4        1.0  0.7483167358239128  0.0615552684158089  0.32015252185232856  1.0000
  C   C5        1.0  0.2502130273499432  0.8739534283722534  0.955433923589737  1.0000
  C   C6        1.0  0.2488776734228821  0.06372379873258888  0.9591305031230203  1.0000
  C   C7        1.0  0.7586062857421751  0.11573157903340807  0.04480956632586693  1.0000
  C   C8        1.0  0.7586616154317768  0.9298411332362376  0.04755568602504918  1.0000
  C   C9        1.0  0.250950900104769  0.8280466019050153  0.09294617801678126  1.0000
  C   C10       1.0  0.2497594162366994  0.23612160476273658  0.10077610962800063  1.0000
  C   C11       1.0  0.751834965166836  0.14930852748222628  0.9015381405826373  1.0000
  C   C12       1.0  0.7529263021976507  0.7556115999932799  0.9064639978660265  1.0000
  N   N1        1.0  0.2517280060232637  0.7177245950699459  0.8130525086544437  1.0000
  N   N2        1.0  0.24851287059999555  0.09743132526832449  0.8228522255874395  1.0000
  N   N3        1.0  0.7591854354436197  0.2796415815667713  0.18077031544756744  1.0000
  N   N4        1.0  0.7584700108720102  0.9051737098505724  0.1873389068676516  1.0000
  N   N5        1.0  0.25087875842751123  0.7694525241061357  0.19487471863239142  1.0000
  N   N6        1.0  0.25042223996812407  0.3891918383838587  0.2060637342975865  1.0000
  N   N7        1.0  0.7436647168111964  0.1998718001148632  0.7942773457983988  1.0000
  N   N8        1.0  0.7463138625726984  0.603729886965503  0.7976882402148033  1.0000
  O   O1        1.0  0.25868189282715554  0.6047094484311798  0.543559596598861  1.0000
  O   O2        1.0  0.25377909342978455  0.9695263846451637  0.5519255742016397  1.0000
  O   O3        1.0  0.7397671189535373  0.40677429693023015  0.4453703010660347  1.0000
  O   O4        1.0  0.7366732986961964  0.04511198406150639  0.45118509076958435  1.0000
  O   O5        1.0  0.5621640442809908  0.732960579085841  0.4635709691786332  1.0000
  O   O6        1.0  0.41941495313650284  0.27459253967916913  0.5347273155836589  1.0000
  O   O7        1.0  0.9535995611072893  0.6468166940959108  0.29244188935042087  1.0000
  O   O8        1.0  0.05718566283804452  0.3637274967122793  0.7250819011663765  1.0000
