data_image0
_chemical_formula_structural       Al6H57C90O28F5
_chemical_formula_sum              "Al6 H57 C90 O28 F5"
_cell_length_a       12.64392333194032
_cell_length_b       12.117570076293752
_cell_length_c       28.053572512359217
_cell_angle_alpha    90.4067383158855
_cell_angle_beta     89.57700805544722
_cell_angle_gamma    122.37008604611812

_space_group_name_H-M_alt    "P 1"
_space_group_IT_number       1

loop_
  _space_group_symop_operation_xyz
  'x, y, z'

loop_
  _atom_site_type_symbol
  _atom_site_label
  _atom_site_symmetry_multiplicity
  _atom_site_fract_x
  _atom_site_fract_y
  _atom_site_fract_z
  _atom_site_occupancy
  Al  Al1       1.0  0.4026874381132616  0.8064824985803796  0.4952679434644764  1.0000
  Al  Al2       1.0  0.6663831687229659  0.0800797022033706  0.4973568631877684  1.0000
  Al  Al3       1.0  0.4309242291118098  0.08513142417124443  0.4986677823714204  1.0000
  Al  Al4       1.0  0.926763099268527  0.8601402165799001  0.98255147231734  1.0000
  Al  Al5       1.0  0.9168468937045874  0.591144211880767  0.9843337169739501  1.0000
  Al  Al6       1.0  0.672164810133772  0.5766397201960558  0.9813447773325166  1.0000
  H   H1        1.0  0.7623784173395477  0.21244828085730208  0.27772400741751824  1.0000
  H   H2        1.0  0.48185029471243734  0.8012608766823776  0.18626270824606192  1.0000
  H   H3        1.0  0.8247089157078733  0.8055059690240685  0.1996222018209934  1.0000
  H   H4        1.0  0.7775241653658611  0.21671973061175723  0.6274211152013438  1.0000
  H   H5        1.0  0.8718553132542367  0.4354445940255046  0.7655453849317766  1.0000
  H   H6        1.0  0.8970411122418227  0.4719775148325027  0.8529842522320906  1.0000
  H   H7        1.0  0.7889291404091878  0.2577638868573899  0.7147449213761377  1.0000
  H   H8        1.0  0.47256290676914864  0.2509872072527343  0.7824021371510953  1.0000
  H   H9        1.0  0.5008826714094282  0.30200451066017553  0.868595441216172  1.0000
  H   H10       1.0  0.5100865194294428  0.32986845765859135  0.6150335226000935  1.0000
  H   H11       1.0  0.15849603287372138  0.9816370184927766  0.6181665581668201  1.0000
  H   H12       1.0  0.10588588323441452  0.6215341040679835  0.8612496423657208  1.0000
  H   H13       1.0  0.10240492535983513  0.9475638942885072  0.704327834357791  1.0000
  H   H14       1.0  0.18415402538460063  0.020313009846574904  0.7790626183684922  1.0000
  H   H15       1.0  0.12527879664034472  0.9872228914065957  0.8652833890517259  1.0000
  H   H16       1.0  0.3207528851577664  0.7724453739069901  0.7214375222004747  1.0000
  H   H17       1.0  0.36414387054374975  0.7949834041868232  0.6347152639944653  1.0000
  H   H18       1.0  0.45896776559958136  0.6864595448304627  0.6150983726736285  1.0000
  H   H19       1.0  0.5924934363271674  0.45799024747903866  0.20382365911964231  1.0000
  H   H20       1.0  0.8427678061699595  0.7990121771531237  0.7502574338346477  1.0000
  H   H21       1.0  0.8714696988395687  0.7797817662048843  0.8368077057275871  1.0000
  H   H22       1.0  0.847954983021694  0.9908389631101999  0.7042756844181781  1.0000
  H   H23       1.0  0.8307242375217356  0.030850738227002208  0.6181298222779292  1.0000
  H   H24       1.0  0.5828368939048191  0.4294949921253704  0.29213366896016885  1.0000
  H   H25       1.0  0.10204553850168462  0.980896977895199  0.2910967007547144  1.0000
  H   H26       1.0  0.23756379070533742  0.720126410115455  0.2865883600409589  1.0000
  H   H27       1.0  0.4828476819168871  0.8375946830052144  0.2738816212959989  1.0000
  H   H28       1.0  0.3238870378408691  0.3711597266053772  0.7715661669437355  1.0000
  H   H29       1.0  0.2844627556636611  0.40812909276115045  0.7160806282235513  1.0000
  H   H30       1.0  0.18673705103534396  0.250426134452745  0.7412059943858865  1.0000
  H   H31       1.0  0.32215753714356776  0.24608254031308968  0.6748385070259603  1.0000
  H   H32       1.0  0.3527524239397195  0.2007950392347056  0.729508659419132  1.0000
  H   H33       1.0  0.5365659759415138  0.4423647773944098  0.7396814577014796  1.0000
  H   H34       1.0  0.5080452683791564  0.4665104319427871  0.6805095072263116  1.0000
  H   H35       1.0  0.827978869433572  0.040667576382041715  0.1396583792007817  1.0000
  H   H36       1.0  0.9747288918181808  0.189247739819983  0.1435293638200434  1.0000
  H   H37       1.0  0.9411665198507394  0.05799795759806162  0.18115908907849845  1.0000
  H   H38       1.0  0.9220423019780526  0.22739095369580298  0.2264464061966223  1.0000
  H   H39       1.0  0.7779362701866362  0.0761106956169115  0.22434257398537483  1.0000
  H   H40       1.0  0.711371448203188  0.15326993887391174  0.1546736421194197  1.0000
  H   H41       1.0  0.8540510919209369  0.30236295980549244  0.1551588414159824  1.0000
  H   H42       1.0  0.34608598162520127  0.6493213151127366  0.9573218393548544  1.0000
  H   H43       1.0  0.2802631168528792  0.7099545633113565  0.9177989364007645  1.0000
  H   H44       1.0  0.2103366641331165  0.5389520148724573  0.9241160942569666  1.0000
  H   H45       1.0  0.3342523902531626  0.6092420630170141  0.8481004370347307  1.0000
  H   H46       1.0  0.40834620932959365  0.5621262736190789  0.8892628606877935  1.0000
  H   H47       1.0  0.5485184419744442  0.8008030167388823  0.9136374963682601  1.0000
  H   H48       1.0  0.48109394131522276  0.8417451675203792  0.8676093943407538  1.0000
  H   H49       1.0  0.18352311116924377  0.5278007392662759  0.1098022387024358  1.0000
  H   H50       1.0  0.20176059744942187  0.44651736641554174  0.15862828761608944  1.0000
  H   H51       1.0  0.05480107411159456  0.3768054198465336  0.1298485873137167  1.0000
  H   H52       1.0  0.05546504172881581  0.48421162192263967  0.208277943446106  1.0000
  H   H53       1.0  0.032652275322377064  0.5587257575516205  0.15885025741521022  1.0000
  H   H54       1.0  0.2669050632752673  0.7256632307571921  0.15766206184186166  1.0000
  H   H55       1.0  0.27966675654973017  0.656474586922009  0.21125649210451064  1.0000
  H   H56       1.0  0.320304995334034  0.5895929955258766  0.5185799526997101  1.0000
  H   H57       1.0  0.011970852162818298  0.0722905052527452  0.0118800986472749  1.0000
  C   C1        1.0  0.6152673631533788  0.8978243875062832  0.4260876904604416  1.0000
  C   C2        1.0  0.6292418897362779  0.40422550540023405  0.2204096213574189  1.0000
  C   C3        1.0  0.6240826827340484  0.3887752483054924  0.2694492395999434  1.0000
  C   C4        1.0  0.6726182170447287  0.31935926993571684  0.290311620101413  1.0000
  C   C5        1.0  0.6825646214652394  0.351097287644464  0.19117571114578172  1.0000
  C   C6        1.0  0.6901385060063774  0.370803122007672  0.1413296264648523  1.0000
  C   C7        1.0  0.6653619458775213  0.3001934884867127  0.3402782148293255  1.0000
  C   C8        1.0  0.7009349677597783  0.38944425837850366  0.09837666310913563  1.0000
  C   C9        1.0  0.2200300072987958  0.8792219679794968  0.3865368866781439  1.0000
  C   C10       1.0  0.12570165160701674  0.9193055650001443  0.2713810650417159  1.0000
  C   C11       1.0  0.10970211905494429  0.9049710677007285  0.22263559432646932  1.0000
  C   C12       1.0  0.6296382818357671  0.23133981193259254  0.4309669529697686  1.0000
  C   C13       1.0  0.18599930671116757  0.7590465264496375  0.21872723170929484  1.0000
  C   C14       1.0  0.20164282633815847  0.7719731997094784  0.2678957735428895  1.0000
  C   C15       1.0  0.17260442019378527  0.8516696542198615  0.29461581457839253  1.0000
  C   C16       1.0  0.13793632583191617  0.8264648384090026  0.1949828974568177  1.0000
  C   C17       1.0  0.11616938701263992  0.8145886552178468  0.1454267221302175  1.0000
  C   C18       1.0  0.19497458857973288  0.8661072224365116  0.3442349631960654  1.0000
  C   C19       1.0  0.09347478907126576  0.8018255246267073  0.1028717894378559  1.0000
  C   C20       1.0  0.6450649517567513  0.879625672370551  0.3781859423004832  1.0000
  C   C21       1.0  0.5564773635678792  0.829459975299898  0.2571612950072435  1.0000
  C   C22       1.0  0.5557437260998839  0.8090010981931497  0.2084627242561083  1.0000
  C   C23       1.0  0.2745540685073564  0.9026511212449435  0.4331493388686809  1.0000
  C   C24       1.0  0.7483901237473987  0.8102048722099798  0.21546330853941242  1.0000
  C   C25       1.0  0.7474576502339261  0.831749365377007  0.263861247698074  1.0000
  C   C26       1.0  0.6529637627420897  0.8417077491864333  0.286326317167088  1.0000
  C   C27       1.0  0.6515660260523077  0.7990499314806246  0.18703141277804045  1.0000
  C   C28       1.0  0.6545672212946982  0.7823134447963441  0.1371904279071643  1.0000
  C   C29       1.0  0.6531632378748783  0.8632592902819666  0.33578506639183564  1.0000
  C   C30       1.0  0.6633373536394558  0.7719924007749414  0.09433237046477673  1.0000
  C   C31       1.0  0.6427521510809839  0.2710539263297846  0.6158914286049539  1.0000
  C   C32       1.0  0.7236216783029975  0.2529472414659181  0.6439786014007892  1.0000
  C   C33       1.0  0.7295776154333069  0.2764641511457596  0.6926443245379872  1.0000
  C   C34       1.0  0.6241041294243816  0.8906760550518983  0.5618254179293061  1.0000
  C   C35       1.0  0.6574568547990297  0.31971513164886295  0.7148237284096908  1.0000
  C   C36       1.0  0.5784696578427884  0.34196049818567087  0.6862300320493091  1.0000
  C   C37       1.0  0.572108861158121  0.31563127183692785  0.6373601770762536  1.0000
  C   C38       1.0  0.7895784575136489  0.40224459826764297  0.78810349852008  1.0000
  C   C39       1.0  0.8045077858585259  0.42386250538517334  0.8369935874578758  1.0000
  C   C40       1.0  0.5814002802403095  0.32862488063653933  0.845903302687276  1.0000
  C   C41       1.0  0.566452114187655  0.3028125407963813  0.7972581207016703  1.0000
  C   C42       1.0  0.6702198054720087  0.34187620409282  0.7670711284530044  1.0000
  C   C43       1.0  0.7009150661359345  0.3898193277216252  0.8662449136654898  1.0000
  C   C44       1.0  0.2629774601584743  0.8878827655126146  0.621119045583093  1.0000
  C   C45       1.0  0.6229931272271259  0.22993712548501577  0.565215817119828  1.0000
  C   C46       1.0  0.19191221632804917  0.93417520681421  0.6409862866957496  1.0000
  C   C47       1.0  0.16221572329345704  0.9163039093569482  0.6893764658441981  1.0000
  C   C48       1.0  0.20651595760010388  0.8565434191709259  0.7191646679292559  1.0000
  C   C49       1.0  0.2817264430534863  0.8148871680751596  0.6990264864027154  1.0000
  C   C50       1.0  0.30735610144469666  0.8284585512958245  0.650554153267713  1.0000
  C   C51       1.0  0.1535564736225724  0.7284780496163067  0.7956966238507592  1.0000
  C   C52       1.0  0.12369402978411878  0.709702403470935  0.8436805043460538  1.0000
  C   C53       1.0  0.1351455386970103  0.9157763570973145  0.8452940732611084  1.0000
  C   C54       1.0  0.16622697537509623  0.9324352050733536  0.7971358051677554  1.0000
  C   C55       1.0  0.17598059587224665  0.8390930293409581  0.7704704830515255  1.0000
  C   C56       1.0  0.29894501910104765  0.9029653929060687  0.5698579923194133  1.0000
  C   C57       1.0  0.113246922759345  0.8035868384163511  0.8688567600777759  1.0000
  C   C58       1.0  0.644024640831546  0.8616909990364263  0.6113031785231798  1.0000
  C   C59       1.0  0.5441739863945687  0.7537948748412405  0.6345541597509412  1.0000
  C   C60       1.0  0.5543452663847577  0.736940569397703  0.6826426282957101  1.0000
  C   C61       1.0  0.6623736765862703  0.8197939215070491  0.709111167068109  1.0000
  C   C62       1.0  0.7631021579888543  0.9242622815119932  0.6843560426587842  1.0000
  C   C63       1.0  0.7541053058588648  0.946584021866585  0.6364149173504715  1.0000
  C   C64       1.0  0.775733909992326  0.7939190529064465  0.7762645684180357  1.0000
  C   C65       1.0  0.7909194036624853  0.7815867612069453  0.8244749569745694  1.0000
  C   C66       1.0  0.5984230942433796  0.7752301520455801  0.8434047477060602  1.0000
  C   C67       1.0  0.6560114245077316  0.28050180723128904  0.38314194198028423  1.0000
  C   C68       1.0  0.5883585312619672  0.7896828442772373  0.7945710737654325  1.0000
  C   C69       1.0  0.67353259650708  0.7991050104294147  0.7601481239346128  1.0000
  C   C70       1.0  0.7026876814146236  0.7712731029031588  0.8576818027059829  1.0000
  C   C71       1.0  0.045917017582923  0.7800484871993376  0.05506881562732961  1.0000
  C   C72       1.0  0.7256404197529777  0.4376526163143879  0.050533329912099106  1.0000
  C   C73       1.0  0.6930719675083241  0.7548709780944736  0.0462941982724487  1.0000
  C   C74       1.0  0.06538327343257329  0.7777201802130022  0.918661259932108  1.0000
  C   C75       1.0  0.7217004396235752  0.43299045143677967  0.9166373161044918  1.0000
  C   C76       1.0  0.726173608861906  0.7571830415181894  0.9087630307347254  1.0000
  C   C77       1.0  0.7258472943429196  0.26608236687634695  0.2609084545443991  1.0000
  C   C78       1.0  0.7314282481124507  0.2801552758392631  0.2115589191435561  1.0000
  C   C79       1.0  0.5002506758587231  0.39253862833879066  0.7052946090518759  1.0000
  C   C80       1.0  0.3608703889916853  0.2843226503026984  0.7105105272588261  1.0000
  C   C81       1.0  0.28463495079763124  0.33083225233580993  0.7361736177882748  1.0000
  C   C82       1.0  0.7859937730254315  0.22368095732370105  0.17893696160539463  1.0000
  C   C83       1.0  0.8472010795335406  0.15820497182340182  0.20211757829382293  1.0000
  C   C84       1.0  0.9005953803158063  0.10872103485341  0.16468931087548816  1.0000
  C   C85       1.0  0.5050688680515947  0.7705020342533472  0.8782662663922667  1.0000
  C   C86       1.0  0.3837895778752198  0.6350366229266768  0.8824584999225351  1.0000
  C   C87       1.0  0.30037122114998743  0.6329689845864266  0.9225087631417708  1.0000
  C   C88       1.0  0.21670896367137976  0.674092056407467  0.1904759953981952  1.0000
  C   C89       1.0  0.10093537565882119  0.5420052567133168  0.1759293473015262  1.0000
  C   C90       1.0  0.13722355662376637  0.4690930323265903  0.1417794441149596  1.0000
  O   O1        1.0  0.2919363116326111  0.8172861578698092  0.44983934631119393  1.0000
  O   O2        1.0  0.6996336807552268  0.20506298003954984  0.5454985164669779  1.0000
  O   O3        1.0  0.525103818884844  0.21365918091726846  0.5446322070991557  1.0000
  O   O4        1.0  0.3117302253673131  0.0021449302744472017  0.5473805991912003  1.0000
  O   O5        1.0  0.5014553797069754  0.9927352358699155  0.4969938796632505  1.0000
  O   O6        1.0  0.7962115858953783  0.8439399053183653  0.0291511581032395  1.0000
  O   O7        1.0  0.014207236998878303  0.8563667955854016  0.0400864261475036  1.0000
  O   O8        1.0  0.03541244971611965  0.6817246964710224  0.03223487871026261  1.0000
  O   O9        1.0  0.8286464675321882  0.4625561611991317  0.031247071604966  1.0000
  O   O10       1.0  0.6464589271911549  0.45855467814229905  0.0316078917258409  1.0000
  O   O11       1.0  0.6134978503136567  0.6454548214194133  0.025780389531249205  1.0000
  O   O12       1.0  0.5040319417096628  0.8187790621823013  0.43941352307493997  1.0000
  O   O13       1.0  0.8316629671878887  0.8422628143172587  0.9253251147107875  1.0000
  O   O14       1.0  0.04715431196622436  0.8596150194261584  0.9387454764971255  1.0000
  O   O15       1.0  0.03886557618412219  0.6682653553515792  0.9373096609528773  1.0000
  O   O16       1.0  0.8253113978347245  0.46402397303563003  0.9360650223255577  1.0000
  O   O17       1.0  0.6372188349767143  0.4453061585134891  0.9372057334680194  1.0000
  O   O18       1.0  0.6396703636724226  0.6561952342435974  0.9314084329160934  1.0000
  O   O19       1.0  0.8372146713627585  0.6741577877886655  0.9833961516048717  1.0000
  O   O20       1.0  0.7020891569000157  0.9949178621916772  0.4501330511443129  1.0000
  O   O21       1.0  0.7066835954208699  0.20664617740788319  0.4499544221976494  1.0000
  O   O22       1.0  0.5280291246750508  0.2094476951773956  0.45001289002546235  1.0000
  O   O23       1.0  0.3066245327086534  0.0129939572974394  0.4528536975458764  1.0000
  O   O24       1.0  0.3198675152541882  0.8200724956195986  0.5523244344592585  1.0000
  O   O25       1.0  0.5239090504581441  0.8080393270629145  0.540941699603593  1.0000
  O   O26       1.0  0.7083001520532335  0.003049864070497703  0.5446911421118728  1.0000
  O   O27       1.0  0.31076326826991624  0.6356411984477432  0.4926928008891238  1.0000
  O   O28       1.0  0.005117400050238501  0.030669475029625904  0.9815556472326323  1.0000
  F   F1        1.0  0.8419081305661111  0.844540841120484  0.2909964839877901  1.0000
  F   F2        1.0  0.15514589799688858  0.6302227063525051  0.77210366661879  1.0000
  F   F3        1.0  0.4543375063148007  0.6336884561339532  0.7049352586895595  1.0000
  F   F4        1.0  0.4920212905971937  0.8018566461917728  0.7799470628865565  1.0000
  F   F5        1.0  0.06401280543202875  0.9695868327517163  0.1999260105990217  1.0000
