data_image0
_chemical_formula_structural       Zn3H72C90N6O12
_chemical_formula_sum              "Zn3 H72 C90 N6 O12"
_cell_length_a       7.56695175600655
_cell_length_b       22.139584107870512
_cell_length_c       22.139412836139204
_cell_angle_alpha    120.00031937213102
_cell_angle_beta     90.00001068470175
_cell_angle_gamma    90.00012473948101

_space_group_name_H-M_alt    "P 1"
_space_group_IT_number       1

loop_
  _space_group_symop_operation_xyz
  'x, y, z'

loop_
  _atom_site_type_symbol
  _atom_site_label
  _atom_site_symmetry_multiplicity
  _atom_site_fract_x
  _atom_site_fract_y
  _atom_site_fract_z
  _atom_site_occupancy
  Zn  Zn1       1.0  0.9999985730066073  4.1250108047996256e-07  0.499999939581464  1.0000
  Zn  Zn2       1.0  0.9999934345414944  0.4999996633453421  1.7906091892228276e-07  1.0000
  Zn  Zn3       1.0  0.9999962042187961  0.5000002006390004  0.5000009897309708  1.0000
  H   H1        1.0  0.46175687580323915  0.031245974342759542  0.6511392845470992  1.0000
  H   H2        1.0  0.32210396003551983  0.9864444415701994  0.6797419613350684  1.0000
  H   H3        1.0  0.3432800145594612  0.07899967343728775  0.7312365880655348  1.0000
  H   H4        1.0  0.09618993211335444  0.13176262810598866  0.7273045079265613  1.0000
  H   H5        1.0  0.9374642009888418  0.20146321341215387  0.7913995659788211  1.0000
  H   H6        1.0  0.7277565492900423  0.2914247918591498  0.8665921964656462  1.0000
  H   H7        1.0  0.39987398766557913  0.24242013087004455  0.688129538041771  1.0000
  H   H8        1.0  0.6149246075017204  0.15176956622700977  0.6122943352028399  1.0000
  H   H9        1.0  0.6088913093122628  0.38982250409528507  0.912113922811045  1.0000
  H   H10       1.0  0.3804349965122356  0.4706066930946021  0.9912734072768216  1.0000
  H   H11       1.0  0.9792252910821946  0.36880171926356536  0.8501793856093655  1.0000
  H   H12       1.0  0.1854192058931119  0.27820768790164147  0.7654671884436154  1.0000
  H   H13       1.0  0.4617509057704154  0.6198961065932449  0.9687594753985777  1.0000
  H   H14       1.0  0.32209228344297713  0.693296803281072  0.013560441867952001  1.0000
  H   H15       1.0  0.34327660603855753  0.6522384878631226  0.921004934103365  1.0000
  H   H16       1.0  0.09619012647450383  0.5955402730287741  0.8682374596166722  1.0000
  H   H17       1.0  0.937461478059298  0.5899374760408163  0.798540270674067  1.0000
  H   H18       1.0  0.7277613794842283  0.5751649932426515  0.708573802819579  1.0000
  H   H19       1.0  0.39988654786952094  0.445699818618898  0.757570852996487  1.0000
  H   H20       1.0  0.6149349034067059  0.46051760344403897  0.8482246589198539  1.0000
  H   H21       1.0  0.608903549439937  0.5222799926226002  0.6101696446742295  1.0000
  H   H22       1.0  0.38044561159482276  0.5206580976284625  0.5293873935515448  1.0000
  H   H23       1.0  0.9792388102769254  0.4813713890424152  0.6311941090878505  1.0000
  H   H24       1.0  0.1854330773894688  0.48725220027137767  0.7217875053842134  1.0000
  H   H25       1.0  0.4617406409171707  0.34886052023161074  0.3801014103071907  1.0000
  H   H26       1.0  0.32208455938805974  0.3202602836582926  0.30669928737771807  1.0000
  H   H27       1.0  0.3432633431515058  0.2687643256963525  0.3477575706766061  1.0000
  H   H28       1.0  0.09618369249167101  0.27269511819683595  0.40445647510423294  1.0000
  H   H29       1.0  0.9374522333984461  0.20860412676447027  0.4100637926013562  1.0000
  H   H30       1.0  0.7277506469672588  0.13341121294133265  0.4248355178322782  1.0000
  H   H31       1.0  0.399871532375002  0.3118731027013765  0.5542965305906478  1.0000
  H   H32       1.0  0.6149240205611478  0.38770847498988537  0.539480374999492  1.0000
  H   H33       1.0  0.608898164895564  0.08789570893146242  0.47772045293327636  1.0000
  H   H34       1.0  0.3804518942531274  0.008731444224388001  0.4793419244626733  1.0000
  H   H35       1.0  0.9792297943584672  0.14981837582959653  0.518624597602205  1.0000
  H   H36       1.0  0.18541635943245888  0.23453211842630126  0.5127418483508349  1.0000
  H   H37       1.0  0.5382542662137199  0.9687586031135211  0.34885770781847464  1.0000
  H   H38       1.0  0.6779124681282839  0.013560638738802313  0.32025814167101163  1.0000
  H   H39       1.0  0.6567364136050815  0.9210057375171273  0.2687622809158297  1.0000
  H   H40       1.0  0.9038238529859514  0.868244850352731  0.27269590701309443  1.0000
  H   H41       1.0  0.06254297641451252  0.7985392591325606  0.20860314482439424  1.0000
  H   H42       1.0  0.2722453419557881  0.7085733872306221  0.1334130011062982  1.0000
  H   H43       1.0  0.6001345112886299  0.7575867374626453  0.31187600389996817  1.0000
  H   H44       1.0  0.3850852129947598  0.8482393184444984  0.3877100937441325  1.0000
  H   H45       1.0  0.3910947234957476  0.610173760983237  0.08789770565980597  1.0000
  H   H46       1.0  0.6195431070782293  0.5293896605512032  0.008733615748049253  1.0000
  H   H47       1.0  0.020769992485171005  0.6311978709758462  0.14981627041812826  1.0000
  H   H48       1.0  0.814585328440245  0.7217957765779557  0.23453182028468678  1.0000
  H   H49       1.0  0.5382470208476492  0.3800963915293564  0.031240562735071406  1.0000
  H   H50       1.0  0.6779122508633507  0.30669816286550844  0.986438934957249  1.0000
  H   H51       1.0  0.6567318928714416  0.3477551232382154  0.07899308766871371  1.0000
  H   H52       1.0  0.9038144078309855  0.40445464195025943  0.1317592582543198  1.0000
  H   H53       1.0  0.0625390916565109  0.4100629289948045  0.20146089416815727  1.0000
  H   H54       1.0  0.27224447637131294  0.42483419648734605  0.291424060480459  1.0000
  H   H55       1.0  0.6001219510372168  0.5542933083343868  0.242420425937695  1.0000
  H   H56       1.0  0.3850696308956216  0.5394765479090678  0.1517692090921656  1.0000
  H   H57       1.0  0.3910996633224073  0.47771299458901223  0.3898235807478584  1.0000
  H   H58       1.0  0.6195496719570954  0.4793366264393057  0.4706086118519933  1.0000
  H   H59       1.0  0.020763080978916503  0.5186300403957629  0.3688096448337531  1.0000
  H   H60       1.0  0.8145767430744472  0.5127468497217436  0.2782123044064377  1.0000
  H   H61       1.0  0.5382506780566988  0.651143186315167  0.6199009698361876  1.0000
  H   H62       1.0  0.6779120457279151  0.6797427803023125  0.693301928617707  1.0000
  H   H63       1.0  0.656734583499784  0.7312385473584583  0.6522429328544561  1.0000
  H   H64       1.0  0.9038142341433402  0.7273028375187776  0.5955417188486719  1.0000
  H   H65       1.0  0.06253908556924871  0.7913976333136501  0.5899387272924413  1.0000
  H   H66       1.0  0.2722393504650641  0.866590877781526  0.5751657680364133  1.0000
  H   H67       1.0  0.6001197865965153  0.688129961256493  0.44570468540322133  1.0000
  H   H68       1.0  0.385073906090952  0.6122945191019367  0.46052181424104777  1.0000
  H   H69       1.0  0.3910984402312749  0.9121105866756236  0.5222829516107338  1.0000
  H   H70       1.0  0.6195526400740975  0.9912699340476152  0.5206591705055031  1.0000
  H   H71       1.0  0.020760203052027703  0.8501775310781596  0.4813684181903852  1.0000
  H   H72       1.0  0.8145683518436685  0.7654668292187239  0.4872526435240587  1.0000
  C   C1        1.0  0.3362413589832371  0.03491491015636683  0.6777494859559355  1.0000
  C   C2        1.0  0.1840797005605452  0.041143636070735415  0.636607838339458  1.0000
  C   C3        1.0  0.06620679799488731  0.0976334810815017  0.6724427682459008  1.0000
  C   C4        1.0  0.9110833739383539  0.11171738476582499  0.6462414704679418  1.0000
  C   C5        1.0  0.7914568007421395  0.16958171797670454  0.6955145159160167  1.0000
  C   C6        1.0  0.8212879830859664  0.21013456000596872  0.7676588063076933  1.0000
  C   C7        1.0  0.7018173282526591  0.26131775082387776  0.8107138177366906  1.0000
  C   C8        1.0  0.5464800410039674  0.2734791214177006  0.7834549437091097  1.0000
  C   C9        1.0  0.5173677759549022  0.23345380733500312  0.7111778923079015  1.0000
  C   C10       1.0  0.6379908119134825  0.1827764636148074  0.6682078336022812  1.0000
  C   C11       1.0  0.41779167627610286  0.3257549520419472  0.8304445682630613  1.0000
  C   C12       1.0  0.47113039019031094  0.3816889742537483  0.8951905771651383  1.0000
  C   C13       1.0  0.3451392607114344  0.4279000731876366  0.9398174517118179  1.0000
  C   C14       1.0  0.1201951107780133  0.37075968053819947  0.8613503378119418  1.0000
  C   C15       1.0  0.23681918067474336  0.32112173107056197  0.8140137384227727  1.0000
  C   C16       1.0  0.33623676432351607  0.6428354077009215  0.9650895922039523  1.0000
  C   C17       1.0  0.18407890827106854  0.5954624865717332  0.9588568991218548  1.0000
  C   C18       1.0  0.0662083791761958  0.5748058791007508  0.9023655756587486  1.0000
  C   C19       1.0  0.9110834631252305  0.5345208262870782  0.8882805551202253  1.0000
  C   C20       1.0  0.7914592937729593  0.5259301967321831  0.8304163057881765  1.0000
  C   C21       1.0  0.8212877759126089  0.557523162401871  0.7898650170860931  1.0000
  C   C22       1.0  0.701824837123496  0.5493919743019757  0.738679782092113  1.0000
  C   C23       1.0  0.546491353660656  0.5099673767961191  0.7265131642461355  1.0000
  C   C24       1.0  0.5173791418582142  0.47771568809385206  0.7665397665782763  1.0000
  C   C25       1.0  0.6379971017372841  0.48542602696695514  0.8172180929645733  1.0000
  C   C26       1.0  0.41780410160906467  0.5046788382336729  0.6742359674107732  1.0000
  C   C27       1.0  0.4711439561046262  0.5134903418379578  0.6183034701045357  1.0000
  C   C28       1.0  0.3451500080135902  0.5119080940360873  0.5720926292244783  1.0000
  C   C29       1.0  0.12020600672708072  0.49058313240504225  0.6292338145440013  1.0000
  C   C30       1.0  0.23683158847895674  0.49288225083305554  0.6788715434732993  1.0000
  C   C31       1.0  0.3362263364499044  0.32225137587804636  0.357160790837419  1.0000
  C   C32       1.0  0.18407406262351603  0.3633933882637945  0.4045351375118073  1.0000
  C   C33       1.0  0.06620350461626152  0.32755742973319707  0.42519306199271506  1.0000
  C   C34       1.0  0.9110774929969738  0.3537587970165744  0.46547850727775847  1.0000
  C   C35       1.0  0.7914492460207185  0.3044862114133337  0.47406830208796435  1.0000
  C   C36       1.0  0.8212800424148767  0.232343751568358  0.4424765419284995  1.0000
  C   C37       1.0  0.7018130425741733  0.18928935602644253  0.45060706099024367  1.0000
  C   C38       1.0  0.5464784634675655  0.21654813676078524  0.4900302976218923  1.0000
  C   C39       1.0  0.5173652617780393  0.28882509432243336  0.5222807210955905  1.0000
  C   C40       1.0  0.6379872840165748  0.3317947545622173  0.5145718981528801  1.0000
  C   C41       1.0  0.41778977136362283  0.16955941078518322  0.495318087417651  1.0000
  C   C42       1.0  0.4711386537808481  0.10481544391537771  0.4865076634835575  1.0000
  C   C43       1.0  0.34514986654618707  0.06018646693853206  0.48809054580237893  1.0000
  C   C44       1.0  0.12019956699800362  0.13864973492841398  0.5094134966293565  1.0000
  C   C45       1.0  0.23681867166546067  0.1859875131192793  0.50711280027771  1.0000
  C   C46       1.0  0.6637711045729731  0.9650905007960019  0.3222493830242711  1.0000
  C   C47       1.0  0.8159261553120845  0.9588605920354706  0.3633940202482079  1.0000
  C   C48       1.0  0.9337990578723065  0.9023691312014676  0.32755799606747626  1.0000
  C   C49       1.0  0.08892248193350841  0.888286582564433  0.3537606488997084  1.0000
  C   C50       1.0  0.20855301974191323  0.830423483365891  0.3044872727976085  1.0000
  C   C51       1.0  0.1787205158573784  0.7898690766802402  0.2323445470854465  1.0000
  C   C52       1.0  0.2981858845393219  0.7386836087455178  0.189290909430035  1.0000
  C   C53       1.0  0.4535231717895628  0.7265226898341267  0.21655023514237823  1.0000
  C   C54       1.0  0.4826407229946455  0.7665517059503982  0.2888262945795503  1.0000
  C   C55       1.0  0.3620203301167849  0.817231708599003  0.331796404440304  1.0000
  C   C56       1.0  0.5822062503644859  0.6742442002800998  0.16956055943251158  1.0000
  C   C57       1.0  0.5288569641560414  0.6183082827617098  0.10481734923195765  1.0000
  C   C58       1.0  0.6548467720972085  0.5720968718836446  0.060188076510677015  1.0000
  C   C59       1.0  0.8797988512517776  0.6292391785402245  0.13864875950932296  1.0000
  C   C60       1.0  0.7631800675041804  0.6788784131884211  0.18598768719905218  1.0000
  C   C61       1.0  0.6637651269043873  0.357157681845095  0.03490895112615526  1.0000
  C   C62       1.0  0.8159150537494286  0.4045335226731694  0.04114143458031087  1.0000
  C   C63       1.0  0.9337908689933699  0.4251916249331202  0.09763216660978453  1.0000
  C   C64       1.0  0.08891446350901333  0.46547686865258675  0.11171789961266393  1.0000
  C   C65       1.0  0.20854391900417826  0.47406704652779297  0.16958169726149921  1.0000
  C   C66       1.0  0.17871543686916883  0.4424755057748654  0.21013336777313188  1.0000
  C   C67       1.0  0.2981823402635086  0.4506057905119505  0.26131769939875943  1.0000
  C   C68       1.0  0.45351846679076163  0.4900281994764838  0.2734810855769822  1.0000
  C   C69       1.0  0.4826293570540089  0.5222789149437401  0.23345455311965668  1.0000
  C   C70       1.0  0.36200875410659716  0.5145697402100778  0.18277686932212586  1.0000
  C   C71       1.0  0.5822043973031584  0.4953157648039194  0.32575835228715977  1.0000
  C   C72       1.0  0.5288592566577393  0.4865025755041826  0.38169072856228325  1.0000
  C   C73       1.0  0.6548505616827783  0.48808663003441644  0.4279033761806089  1.0000
  C   C74       1.0  0.8797972060562814  0.5094159175846541  0.3707659952447172  1.0000
  C   C75       1.0  0.7631755889034223  0.5071140191946383  0.32112652945274783  1.0000
  C   C76       1.0  0.6637702686645072  0.6777512364001266  0.6428399734732436  1.0000
  C   C77       1.0  0.8159238640231338  0.6366080598742555  0.5954649842097054  1.0000
  C   C78       1.0  0.9337931004842164  0.6724409077947014  0.5748065568892925  1.0000
  C   C79       1.0  0.08891779056897782  0.646239922323602  0.5345225365333519  1.0000
  C   C80       1.0  0.2085433944768624  0.6955137419357482  0.525932411067174  1.0000
  C   C81       1.0  0.17871259808502774  0.7676569142391045  0.5575243621314173  1.0000
  C   C82       1.0  0.29817827639038097  0.810711570556286  0.5493935822892978  1.0000
  C   C83       1.0  0.45351285549928383  0.7834535721497955  0.5099695633176963  1.0000
  C   C84       1.0  0.482626057187261  0.7111761629057084  0.47771868815924273  1.0000
  C   C85       1.0  0.3620106426323987  0.668207406034213  0.48542841447340374  1.0000
  C   C86       1.0  0.5822002260694248  0.8304430804525608  0.5046809911815942  1.0000
  C   C87       1.0  0.5288566297997975  0.8951878109510288  0.5134942649762236  1.0000
  C   C88       1.0  0.6548507031726845  0.9398149812008894  0.5119095759199083  1.0000
  C   C89       1.0  0.8797943950278084  0.8613482394870714  0.4905810651234501  1.0000
  C   C90       1.0  0.7631700042197881  0.8140116254342827  0.4928824040630814  1.0000
  N   N1        1.0  0.1727408910673347  0.42314692619560623  0.9235770198863732  1.0000
  N   N2        1.0  0.1727503006680777  0.5004242143212067  0.5768500226946854  1.0000
  N   N3        1.0  0.17275024938107467  0.07642412920611005  0.49957433595606904  1.0000
  N   N4        1.0  0.8272464632850575  0.5768526965053268  0.07642492729193856  1.0000
  N   N5        1.0  0.8272489475023266  0.4995733408802038  0.42315037852804954  1.0000
  N   N6        1.0  0.8272476772547038  0.9235740872854522  0.5004235972168517  1.0000
  O   O1        1.0  0.8586883094952356  0.07845450255771867  0.5827959087728444  1.0000
  O   O2        1.0  0.1735712257324948  0.9935120616036809  0.5725667017295349  1.0000
  O   O3        1.0  0.8586884329988609  0.5043377817333404  0.9215427234273219  1.0000
  O   O4        1.0  0.17356975958888657  0.5790517758875352  0.006487577687529704  1.0000
  O   O5        1.0  0.8586893686030024  0.41720516394367013  0.4956613330428041  1.0000
  O   O6        1.0  0.173560129863489  0.42743209127622334  0.42094451931821186  1.0000
  O   O7        1.0  0.14131358176520342  0.9215484915361571  0.41720628046885383  1.0000
  O   O8        1.0  0.8264293439871652  0.006489577442216848  0.427434132457492  1.0000
  O   O9        1.0  0.14130420750099407  0.49566302381305855  0.0784562341431324  1.0000
  O   O10       1.0  0.826418916295687  0.4209468224121976  0.9935117804121701  1.0000
  O   O11       1.0  0.14131252264812133  0.5827950501861493  0.5043391193350643  1.0000
  O   O12       1.0  0.8264285460226406  0.5725669587059412  0.5790552904662504  1.0000
