data_image0
_chemical_formula_structural       Al4H42C60N2O24
_chemical_formula_sum              "Al4 H42 C60 N2 O24"
_cell_length_a       6.680879106142335
_cell_length_b       22.239272734286182
_cell_length_c       24.708198797829102
_cell_angle_alpha    83.70395932322681
_cell_angle_beta     90.00172994492262
_cell_angle_gamma    89.999111592991

_space_group_name_H-M_alt    "P 1"
_space_group_IT_number       1

loop_
  _space_group_symop_operation_xyz
  'x, y, z'

loop_
  _atom_site_type_symbol
  _atom_site_label
  _atom_site_symmetry_multiplicity
  _atom_site_fract_x
  _atom_site_fract_y
  _atom_site_fract_z
  _atom_site_occupancy
  Al  Al1       1.0  0.8607680236157761  0.5002400639392803  0.49993407667206197  1.0000
  Al  Al2       1.0  0.36076797704408387  0.49976110136849167  0.5000660249246351  1.0000
  Al  Al3       1.0  0.3448872856041659  0.9997566010788789  0.0002491420115972995  1.0000
  Al  Al4       1.0  0.8448879248345803  0.00024370008659249962  0.999751219379341  1.0000
  H   H1        1.0  0.7743498181898616  0.1908932752999205  0.18524931556194696  1.0000
  H   H2        1.0  0.2743376724165216  0.8091041549063359  0.8147512048958843  1.0000
  H   H3        1.0  0.7741940382234916  0.11864598295725409  0.11417495747571847  1.0000
  H   H4        1.0  0.2741896000974009  0.881351996295237  0.8858247469005531  1.0000
  H   H5        1.0  0.41548871030639123  0.11146649271381649  0.11913314436045397  1.0000
  H   H6        1.0  0.9154804933145326  0.8885368762191206  0.8808654297398703  1.0000
  H   H7        1.0  0.41884619275881363  0.18331570106566628  0.190531876785677  1.0000
  H   H8        1.0  0.9188332055466829  0.8166890976336205  0.8094659133045139  1.0000
  H   H9        1.0  0.7836388118846286  0.31764843593632003  0.3093320479688088  1.0000
  H   H10       1.0  0.2836450337184573  0.6823486921842769  0.690666930730991  1.0000
  H   H11       1.0  0.7886503043038431  0.3889698453818793  0.38113870081717477  1.0000
  H   H12       1.0  0.28865617436223795  0.6110269049220561  0.618859510532502  1.0000
  H   H13       1.0  0.43003174674027633  0.38166254870585437  0.3851613532062785  1.0000
  H   H14       1.0  0.9300354237066629  0.6183441862797635  0.6148349112619725  1.0000
  H   H15       1.0  0.42821747113892167  0.3098465878931549  0.31371822639638214  1.0000
  H   H16       1.0  0.9282214342552138  0.6901610561315505  0.686278020552585  1.0000
  H   H17       1.0  0.35736401076503194  0.24829510704771  0.6766023784075229  1.0000
  H   H18       1.0  0.8574153942592916  0.7516883286787746  0.32339200374319427  1.0000
  H   H19       1.0  0.32273065116204686  0.16501667627110087  0.743128387559217  1.0000
  H   H20       1.0  0.8228976741911465  0.834958275818849  0.2568518352953432  1.0000
  H   H21       1.0  0.7911530027800423  0.20296734514853643  0.773071908380814  1.0000
  H   H22       1.0  0.2911992183618111  0.7970856837098097  0.22694420258233802  1.0000
  H   H23       1.0  0.9410896894877039  0.15129845080544158  0.7413092653837124  1.0000
  H   H24       1.0  0.44126496746292787  0.8487249932162159  0.2587045988069221  1.0000
  H   H25       1.0  0.9982543787068606  0.22203415091252052  0.6652186736448227  1.0000
  H   H26       1.0  0.4983517095476414  0.7779763852329253  0.33478840288193357  1.0000
  H   H27       1.0  0.803326506467556  0.26486382863535596  0.6901552129714402  1.0000
  H   H28       1.0  0.3033503579334393  0.735170734914618  0.3098532880908279  1.0000
  H   H29       1.0  0.20603508055111766  0.28002254059991577  0.8385253134780013  1.0000
  H   H30       1.0  0.7058784933490756  0.7199699925964537  0.16146602315762237  1.0000
  H   H31       1.0  0.9419982532471848  0.2710359345274255  0.8364225863610101  1.0000
  H   H32       1.0  0.44185470953944866  0.7289874562345061  0.16359169199111528  1.0000
  H   H33       1.0  0.17772904655055294  0.3569496388449878  0.7671025173363188  1.0000
  H   H34       1.0  0.677618618358103  0.6430512503513909  0.23289506446691624  1.0000
  H   H35       1.0  0.43177579445810466  0.21035136497543752  0.7896897993679842  1.0000
  H   H36       1.0  0.9317879228382395  0.7895924281251679  0.21029145983690256  1.0000
  H   H37       1.0  0.4251841157922982  0.2962422654186837  0.7260668073084059  1.0000
  H   H38       1.0  0.9251582880037716  0.7037237830223049  0.273935139613286  1.0000
  H   H39       1.0  0.6118040720189055  0.4226154999965388  0.5208487580552726  1.0000
  H   H40       1.0  0.11179296752269607  0.5773839902896043  0.4791478038657217  1.0000
  H   H41       1.0  0.593663295916798  0.07776266320308876  0.980416450109068  1.0000
  H   H42       1.0  0.09367504243110149  0.9222366279301468  0.019582385933198092  1.0000
  C   C1        1.0  0.610151115835464  0.5762708257040644  0.42199895931799597  1.0000
  C   C2        1.0  0.11017090575425209  0.4237300286106844  0.5780012507349497  1.0000
  C   C3        1.0  0.6106019374203484  0.569552753565155  0.5690260579575364  1.0000
  C   C4        1.0  0.11059272363360147  0.4304501928327653  0.4309717118584827  1.0000
  C   C5        1.0  0.9142608032989372  0.17318033182450424  0.17076355287985479  1.0000
  C   C6        1.0  0.4142521369053255  0.82681889786943  0.8292358268901764  1.0000
  C   C7        1.0  0.9139380940235426  0.13323579819760306  0.13135212848351327  1.0000
  C   C8        1.0  0.4139312183183107  0.8667638336284181  0.8686476551608775  1.0000
  C   C9        1.0  0.0948479462726652  0.1110523020285896  0.11256955070081177  1.0000
  C   C10       1.0  0.5948403821485186  0.8889492313122387  0.887429294760828  1.0000
  C   C11       1.0  0.276607555539556  0.12921969497003966  0.13414084583161667  1.0000
  C   C12       1.0  0.7765973043901295  0.8707829161932846  0.8658576564091758  1.0000
  C   C13       1.0  0.2782055554762124  0.1689934918736427  0.17364033600215117  1.0000
  C   C14       1.0  0.7781934948341557  0.8310096097549431  0.8263577736368858  1.0000
  C   C15       1.0  0.0967761650592891  0.19182849759207696  0.19255949665215158  1.0000
  C   C16       1.0  0.5967634529372104  0.8081713252773708  0.8074385536209688  1.0000
  C   C17       1.0  0.09883966633227458  0.23268716412069776  0.23253583274923523  1.0000
  C   C18       1.0  0.5988281509468363  0.7673176006149304  0.7674658977034594  1.0000
  C   C19       1.0  0.1028279376044168  0.268035785598954  0.26701986342026623  1.0000
  C   C20       1.0  0.6028253554363304  0.7319632472328621  0.7329733580615849  1.0000
  C   C21       1.0  0.924623726369802  0.3316384271051618  0.32625638826557685  1.0000
  C   C22       1.0  0.42462899926501757  0.66836189314877  0.6737410516359574  1.0000
  C   C23       1.0  0.9271572506635903  0.37114842312531227  0.3659738856293301  1.0000
  C   C24       1.0  0.4271636702257026  0.6288523826071921  0.6340231704028837  1.0000
  C   C25       1.0  0.10944809658328579  0.38902867490444487  0.3874531843707415  1.0000
  C   C26       1.0  0.6094534529828549  0.6109753247980335  0.6125433526082986  1.0000
  C   C27       1.0  0.28991050911884025  0.36704054064475844  0.3682390758723598  1.0000
  C   C28       1.0  0.7899165955560008  0.6329649934669276  0.6317571055062741  1.0000
  C   C29       1.0  0.28865377397725916  0.32734050855786734  0.3286316433249964  1.0000
  C   C30       1.0  0.7886571947831911  0.6726649829764426  0.6713649335087624  1.0000
  C   C31       1.0  0.10558895785325009  0.3088155277411957  0.30706872852822187  1.0000
  C   C32       1.0  0.6055920508894272  0.6911884432327182  0.692928179654629  1.0000
  C   C33       1.0  0.30799873941460726  0.20808055152461682  0.7607198753446552  1.0000
  C   C34       1.0  0.808058627662099  0.7918922925396001  0.23926713269018043  1.0000
  C   C35       1.0  0.933729105673521  0.19788662021211678  0.7519862669982017  1.0000
  C   C36       1.0  0.4338071418499466  0.802140854960484  0.24802426825457496  1.0000
  C   C37       1.0  0.9488923182137369  0.24396289436084118  0.700676530173844  1.0000
  C   C38       1.0  0.44894682768198624  0.7560567506265767  0.2993313015369736  1.0000
  C   C39       1.0  0.10915227059405198  0.3784433684455166  0.6245505697638051  1.0000
  C   C40       1.0  0.6091191226529629  0.6215562407949092  0.3754488172928418  1.0000
  C   C41       1.0  0.10669000778826639  0.20804068392342148  0.7917866613669702  1.0000
  C   C42       1.0  0.6067047817248435  0.7919610389361366  0.20821392297401076  1.0000
  C   C43       1.0  0.3148592633137284  0.2625453636466233  0.7161898861631923  1.0000
  C   C44       1.0  0.8148714542950157  0.7374340047993044  0.28380613833490287  1.0000
  C   C45       1.0  0.10584212829316898  0.2932975740846828  0.7093018594551379  1.0000
  C   C46       1.0  0.6058268404535667  0.7067058043176572  0.290699937158294  1.0000
  C   C47       1.0  0.0686394816273292  0.32073902925652215  0.7639932688399823  1.0000
  C   C48       1.0  0.5685572518842008  0.679266697230247  0.23600899357855099  1.0000
  C   C49       1.0  0.07955811300072918  0.2709620856350199  0.8122333219359136  1.0000
  C   C50       1.0  0.5794561086516977  0.7290433857048199  0.18777067086598717  1.0000
  C   C51       1.0  0.10751636238824598  0.34016737541873715  0.6635596506532692  1.0000
  C   C52       1.0  0.607484503231582  0.6598342446215567  0.33644175553111216  1.0000
  C   C53       1.0  0.1033872514581233  0.1616897169579801  0.8379307697245365  1.0000
  C   C54       1.0  0.6034111008355438  0.8383127257478618  0.16207141198508876  1.0000
  C   C55       1.0  0.09827125723753478  0.12286387439655748  0.8765379483815818  1.0000
  C   C56       1.0  0.5982964054839996  0.8771365441631146  0.12346255846750859  1.0000
  C   C57       1.0  0.5946977295962768  0.930714551979605  0.9306743870610032  1.0000
  C   C58       1.0  0.09470620516199797  0.0692860334608767  0.06932486486757478  1.0000
  C   C59       1.0  0.5957810846775544  0.9228941680829621  0.07736890601118768  1.0000
  C   C60       1.0  0.0957617902282593  0.07710581415539507  0.9226315777297598  1.0000
  N   N1        1.0  0.867859614994245  0.35346458190007  0.7619682915897953  1.0000
  N   N2        1.0  0.36776285528449637  0.6465545030500479  0.23804326351225305  1.0000
  O   O1        1.0  0.4407990088496661  0.5535043541230777  0.5519303550651172  1.0000
  O   O2        1.0  0.9407997595093177  0.4464955844221379  0.44806967863986097  1.0000
  O   O3        1.0  0.7807917831440604  0.5588448006620297  0.4404756992975932  1.0000
  O   O4        1.0  0.2808131690443076  0.44115414133868575  0.5595232517150562  1.0000
  O   O5        1.0  0.7808664903392426  0.5543201756200345  0.5515999665802908  1.0000
  O   O6        1.0  0.28086718719325177  0.44568390974308153  0.448397352944994  1.0000
  O   O7        1.0  0.9401635037810293  0.4415471086366124  0.5593745969794738  1.0000
  O   O8        1.0  0.4401435184228574  0.5584574350504993  0.44062827759613293  1.0000
  O   O9        1.0  0.6110610454192411  0.46340882401299416  0.5024725276243273  1.0000
  O   O10       1.0  0.1110571469184691  0.5365925737598757  0.49752687613268864  1.0000
  O   O11       1.0  0.7654803254358811  0.9410498844431884  0.058656702524174896  1.0000
  O   O12       1.0  0.2654654880386573  0.05895054372746959  0.9413453618370436  1.0000
  O   O13       1.0  0.4247385219798474  0.9461425057068593  0.9481357685424141  1.0000
  O   O14       1.0  0.9247417186300453  0.05385906447266109  0.05186248586013419  1.0000
  O   O15       1.0  0.4248260974367851  0.9406329533352746  0.059257976019331686  1.0000
  O   O16       1.0  0.9248068177555594  0.05936636797711966  0.9407402806256754  1.0000
  O   O17       1.0  0.264834610365611  0.0530737014228819  0.05255983110091479  1.0000
  O   O18       1.0  0.7648314313908102  0.9469259293143962  0.9474414135498178  1.0000
  O   O19       1.0  0.5946158381160271  0.036549385944731186  0.9978300667515612  1.0000
  O   O20       1.0  0.09462045410086967  0.9634510521235666  0.0021704059350468995  1.0000
  O   O21       1.0  0.7146596659334534  0.3228236000242788  0.7731344760335616  1.0000
  O   O22       1.0  0.8703824587616038  0.40840350436761236  0.7481559173631352  1.0000
  O   O23       1.0  0.21457198859064872  0.6772079616612031  0.22688704351097036  1.0000
  O   O24       1.0  0.37025581824546083  0.5916161092359075  0.25185118213433805  1.0000
