data_image0
_chemical_formula_structural       Cu4H28C32S4N8O8
_chemical_formula_sum              "Cu4 H28 C32 S4 N8 O8"
_cell_length_a       5.780333424522128
_cell_length_b       12.396152119153346
_cell_length_c       12.856933907958265
_cell_angle_alpha    90.00017756639329
_cell_angle_beta     94.01212992169506
_cell_angle_gamma    89.99948722096336

_space_group_name_H-M_alt    "P 1"
_space_group_IT_number       1

loop_
  _space_group_symop_operation_xyz
  'x, y, z'

loop_
  _atom_site_type_symbol
  _atom_site_label
  _atom_site_symmetry_multiplicity
  _atom_site_fract_x
  _atom_site_fract_y
  _atom_site_fract_z
  _atom_site_occupancy
  Cu  Cu1       1.0  0.10628502863225006  0.09517530768201962  0.0061719378464105  1.0000
  Cu  Cu2       1.0  0.6062410851440345  0.4048333471157476  0.5061791244493463  1.0000
  Cu  Cu3       1.0  0.8937738275462831  0.9048314847935899  0.9938262355104899  1.0000
  Cu  Cu4       1.0  0.3937294417622467  0.595175058944534  0.49382582543183423  1.0000
  H   H1        1.0  0.7051383855563883  0.11426175159314061  0.1416964888747358  1.0000
  H   H2        1.0  0.2051256002583273  0.3857413167453744  0.6416975999438891  1.0000
  H   H3        1.0  0.29488750104202666  0.8857329404126089  0.8582991743989012  1.0000
  H   H4        1.0  0.7948865578831171  0.6142582155167416  0.358309332940145  1.0000
  H   H5        1.0  0.5107043704226442  0.2626333148400946  0.23280475248566293  1.0000
  H   H6        1.0  0.010677281118532302  0.23736676359006734  0.7328065742792093  1.0000
  H   H7        1.0  0.4893145502674939  0.7373533101554984  0.7671883757073701  1.0000
  H   H8        1.0  0.989324520138133  0.7626319619958438  0.2672039477874435  1.0000
  H   H9        1.0  0.6794529191967482  0.45007098459947054  0.2272342501699498  1.0000
  H   H10       1.0  0.17943997142543106  0.049927620298532795  0.7272297147313579  1.0000
  H   H11       1.0  0.3205348822872409  0.5499212873807052  0.772765755164251  1.0000
  H   H12       1.0  0.8205634671598929  0.95006707176195  0.2727730767039773  1.0000
  H   H13       1.0  0.22443422608024113  0.3186049742491974  0.0533098211917107  1.0000
  H   H14       1.0  0.7244225278521483  0.18139611920923926  0.5533134035609635  1.0000
  H   H15       1.0  0.7755795692667602  0.6814026250166377  0.9466893810750108  1.0000
  H   H16       1.0  0.2755739446607634  0.8186066398799454  0.44668685281243375  1.0000
  H   H17       1.0  0.44376560881011773  0.6342680374217408  0.18113162518031342  1.0000
  H   H18       1.0  0.9437847765897658  0.8657389110032767  0.681131191703223  1.0000
  H   H19       1.0  0.556187614592531  0.36574117537798384  0.8188759349804968  1.0000
  H   H20       1.0  0.05622730393442769  0.134267074864411  0.3188695165226251  1.0000
  H   H21       1.0  0.5440947481086409  0.6025077853385454  0.055767103613028696  1.0000
  H   H22       1.0  0.044106041480603195  0.8975083590025006  0.5557720571087756  1.0000
  H   H23       1.0  0.45586174968870796  0.3975191748725066  0.9442249953150113  1.0000
  H   H24       1.0  0.9559061068437841  0.1025032737875122  0.4442340977060582  1.0000
  H   H25       1.0  0.27719993720246794  0.6768200845275629  0.0659931389352479  1.0000
  H   H26       1.0  0.7772390085378047  0.8231822896771631  0.5659900468990529  1.0000
  H   H27       1.0  0.7227255966806891  0.3231939685433218  0.9340182864437949  1.0000
  H   H28       1.0  0.22279902730338105  0.17681643581678938  0.43400674590035493  1.0000
  C   C1        1.0  0.4227640334860395  0.9104173246647701  0.0854267827200417  1.0000
  C   C2        1.0  0.9226901338817581  0.5895813265766137  0.5854360758319004  1.0000
  C   C3        1.0  0.577313715194549  0.08957091360670687  0.9145571592940129  1.0000
  C   C4        1.0  0.07727695370957828  0.41042143258030717  0.4145711078815353  1.0000
  C   C5        1.0  0.7750761743560729  0.195852259506907  0.14238657845999822  1.0000
  C   C6        1.0  0.27506858550579233  0.30414570201424596  0.6423930476871291  1.0000
  C   C7        1.0  0.22492888214538448  0.8041408191314902  0.8576069261804095  1.0000
  C   C8        1.0  0.7249366939401013  0.6958489900566962  0.3576183528688901  1.0000
  C   C9        1.0  0.6651331790339723  0.2793784704316947  0.1918751136837713  1.0000
  C   C10       1.0  0.16511848280382674  0.22061926787790034  0.6918702454094117  1.0000
  C   C11       1.0  0.33487718679050715  0.720613801508712  0.8081271004872124  1.0000
  C   C12       1.0  0.8348884726972868  0.7793762308842531  0.3081365368537163  1.0000
  C   C13       1.0  0.7598272461621605  0.38226182433768935  0.1899747053159615  1.0000
  C   C14       1.0  0.2598337973298682  0.11773312364544349  0.6899763758549896  1.0000
  C   C15       1.0  0.24015698992808854  0.6177304476365392  0.8100174187753453  1.0000
  C   C16       1.0  0.7401818196293204  0.8822607616953132  0.3100298793501253  1.0000
  C   C17       1.0  0.964763346407089  0.398358279859707  0.1400434602419622  1.0000
  C   C18       1.0  0.4647493174019245  0.10163813815831453  0.6400367102327635  1.0000
  C   C19       1.0  0.0352453143049516  0.6016307652799143  0.8599610379694909  1.0000
  C   C20       1.0  0.5352383289296226  0.8983589740135897  0.3599508457757281  1.0000
  C   C21       1.0  0.06520428644602559  0.31016240215572566  0.09293066551834532  1.0000
  C   C22       1.0  0.5651924358540583  0.18983620538151766  0.5929358235902457  1.0000
  C   C23       1.0  0.9348076874775442  0.6898403568904854  0.907061483788496  1.0000
  C   C24       1.0  0.43480408513681806  0.8101657470119505  0.4070683231982528  1.0000
  C   C25       1.0  0.06714696612016978  0.5083409060499093  0.1389561029199484  1.0000
  C   C26       1.0  0.5671653156845123  0.9916617061305714  0.6389567891665066  1.0000
  C   C27       1.0  0.9327991362545943  0.4916618531236026  0.8610364728308184  1.0000
  C   C28       1.0  0.4328467067416283  0.008337826114100699  0.3610392505526364  1.0000
  C   C29       1.0  0.39135466991356777  0.6136946865421606  0.09993621739851481  1.0000
  C   C30       1.0  0.8913751145241946  0.8863146195263312  0.5999327694107635  1.0000
  C   C31       1.0  0.6085985630517214  0.3863274334899031  0.9000721208604432  1.0000
  C   C32       1.0  0.10863518331132839  0.1136905596364386  0.40006399819270655  1.0000
  S   S1        1.0  0.17176455560780818  0.945781268295434  0.1273417003147514  1.0000
  S   S2        1.0  0.6716913076436838  0.5542209041531336  0.6273454650035291  1.0000
  S   S3        1.0  0.8283219999154878  0.054207776679170615  0.8726533858921925  1.0000
  S   S4        1.0  0.3282618770488241  0.4457818550260626  0.3726589828169864  1.0000
  N   N1        1.0  0.6039048724648026  0.8860916363644834  0.05481636139052881  1.0000
  N   N2        1.0  0.10382826836450218  0.6139016874768258  0.5548163912875168  1.0000
  N   N3        1.0  0.3961781855880488  0.11389095499734479  0.9451762901484957  1.0000
  N   N4        1.0  0.8961180182363505  0.38609703821064306  0.4451909680395048  1.0000
  N   N5        1.0  0.9716947177683434  0.21062493406447658  0.09303201091062621  1.0000
  N   N6        1.0  0.4716872938094097  0.2893696910839481  0.5930275527798017  1.0000
  N   N7        1.0  0.028324377355453095  0.7893673378671411  0.9069751227866618  1.0000
  N   N8        1.0  0.5283021933745073  0.710628227800356  0.4069686123503118  1.0000
  O   O1        1.0  0.9732604441261042  0.5886907653899556  0.1721212954096885  1.0000
  O   O2        1.0  0.4732627951460699  0.9113039398786213  0.6721268079142462  1.0000
  O   O3        1.0  0.02670647876656319  0.4113023133224728  0.827872660878036  1.0000
  O   O4        1.0  0.5267406239939019  0.0886963990929672  0.3278744273612091  1.0000
  O   O5        1.0  0.27432003720830517  0.510141803736822  0.09615982215809282  1.0000
  O   O6        1.0  0.7743227668364765  0.9898671332805336  0.5961561619793088  1.0000
  O   O7        1.0  0.7256486488291998  0.4898674090149413  0.9038365186033346  1.0000
  O   O8        1.0  0.22567876291572725  0.010138852587978402  0.40383257376596765  1.0000
