data_image0
_chemical_formula_structural       Ag4H36C24Br4N8
_chemical_formula_sum              "Ag4 H36 C24 Br4 N8"
_cell_length_a       4.575213251012171
_cell_length_b       9.494364288153985
_cell_length_c       17.878469707617693
_cell_angle_alpha    93.9375591233155
_cell_angle_beta     90.00014499547241
_cell_angle_gamma    89.99978258710892

_space_group_name_H-M_alt    "P 1"
_space_group_IT_number       1

loop_
  _space_group_symop_operation_xyz
  'x, y, z'

loop_
  _atom_site_type_symbol
  _atom_site_label
  _atom_site_symmetry_multiplicity
  _atom_site_fract_x
  _atom_site_fract_y
  _atom_site_fract_z
  _atom_site_occupancy
  Ag  Ag1       1.0  0.9163859772677154  0.3034740641678511  0.30897951831307324  1.0000
  Ag  Ag2       1.0  0.41635668613155025  0.19653138474669876  0.1910135058860263  1.0000
  Ag  Ag3       1.0  0.0836272542067107  0.6965350088662491  0.6910193029019852  1.0000
  Ag  Ag4       1.0  0.5836259456495226  0.8034714844960291  0.8089744401635741  1.0000
  H   H1        1.0  0.39919363655582885  0.5423497227387556  0.2573827251935584  1.0000
  H   H2        1.0  0.8991883545818027  0.9576610859215434  0.24261259149225373  1.0000
  H   H3        1.0  0.6007999237125999  0.4576499174818239  0.7426101260691028  1.0000
  H   H4        1.0  0.1007986485474461  0.04235441767914951  0.7573786555737314  1.0000
  H   H5        1.0  0.6385430958412142  0.4817767118655852  0.43498595594712713  1.0000
  H   H6        1.0  0.13852055103948396  0.018213362830565006  0.0650096176111532  1.0000
  H   H7        1.0  0.3614679500016678  0.5182196581043927  0.5650151549482487  1.0000
  H   H8        1.0  0.8614489666794186  0.9817715178566856  0.9349809664903574  1.0000
  H   H9        1.0  0.5234527433756924  0.6609311319074537  0.4449978418646198  1.0000
  H   H10       1.0  0.023442964842118396  0.8390591805004278  0.05500142974268132  1.0000
  H   H11       1.0  0.4765648595424139  0.3390641823304179  0.5550032268938736  1.0000
  H   H12       1.0  0.9765484098203032  0.1609214154286107  0.944994017436379  1.0000
  H   H13       1.0  0.8090158759193785  0.6027473345039311  0.5023541871763373  1.0000
  H   H14       1.0  0.308998826680181  0.897242846316729  0.9976446548168527  1.0000
  H   H15       1.0  0.19099954130082608  0.3972521820293338  0.497648727345954  1.0000
  H   H16       1.0  0.6909794338289572  0.102737777105844  0.0023485560797241014  1.0000
  H   H17       1.0  0.34805849691550617  0.8313876901432168  0.2980440246285526  1.0000
  H   H18       1.0  0.8480506657967054  0.6686220660336917  0.20195848598714156  1.0000
  H   H19       1.0  0.6519438061001352  0.1686224454973555  0.7019542796524265  1.0000
  H   H20       1.0  0.15193852307009342  0.3313933138974933  0.7980428243323558  1.0000
  H   H21       1.0  0.2955521154603317  0.9310470046710434  0.4793556800356598  1.0000
  H   H22       1.0  0.7955280631842357  0.5689448648615072  0.020648876872471116  1.0000
  H   H23       1.0  0.7044720445320108  0.06895039353155852  0.5206477092811214  1.0000
  H   H24       1.0  0.2044480116575969  0.43104510894935544  0.9793570128049255  1.0000
  H   H25       1.0  0.005758498832776101  0.8481443728167831  0.5247709927565369  1.0000
  H   H26       1.0  0.5057380268688191  0.6518504836294029  0.9752356559666141  1.0000
  H   H27       1.0  0.9942765896288108  0.15185193529767102  0.4752351497727362  1.0000
  H   H28       1.0  0.4942446050420059  0.3481415878870209  0.024771436129853407  1.0000
  H   H29       1.0  0.6822968174999957  0.879852226044278  0.41303427868289333  1.0000
  H   H30       1.0  0.18227807206974228  0.6201450721459452  0.08697489096888943  1.0000
  H   H31       1.0  0.31772952818343475  0.1201514446795855  0.5869743950944866  1.0000
  H   H32       1.0  0.8177089312043292  0.3798533199826863  0.9130335721016607  1.0000
  H   H33       1.0  0.9674130426965277  0.9690193115752239  0.36977860752288905  1.0000
  H   H34       1.0  0.4674041190534481  0.5309785468758721  0.13022910456699321  1.0000
  H   H35       1.0  0.032604560220789794  0.030981233200556298  0.630226585417411  1.0000
  H   H36       1.0  0.5325938126601031  0.46902197043603877  0.869778324645587  1.0000
  C   C1        1.0  0.930583374669574  0.6217413470894897  0.3872923971886309  1.0000
  C   C2        1.0  0.4305650897641442  0.878256660477746  0.11270858313405804  1.0000
  C   C3        1.0  0.06943422824633669  0.37825815570096216  0.6127116354735449  1.0000
  C   C4        1.0  0.5694175420676261  0.12174293853021109  0.8872876225428075  1.0000
  C   C5        1.0  0.2601662166307434  0.5979937109162209  0.2986492415578184  1.0000
  C   C6        1.0  0.760158790023631  0.9020162661813629  0.2013481827124579  1.0000
  C   C7        1.0  0.7398273435896313  0.4020227865709388  0.7013470792755427  1.0000
  C   C8        1.0  0.23983477020699698  0.09799811298304213  0.798648612912672  1.0000
  C   C9        1.0  0.7141632492813058  0.5908452643613842  0.44565943897691085  1.0000
  C   C10       1.0  0.21414418866434903  0.9091468349275974  0.054338358427244826  1.0000
  C   C11       1.0  0.2858565393286838  0.4091510918598403  0.5543427900603817  1.0000
  C   C12       1.0  0.7858384432104445  0.09083801139569662  0.9456550210263616  1.0000
  C   C13       1.0  0.23951317854135107  0.7399990029001985  0.3183641245694417  1.0000
  C   C14       1.0  0.7395132067027035  0.7600078306538264  0.18163427856763556  1.0000
  C   C15       1.0  0.7604694532928277  0.25999849839625716  0.6816308786903919  1.0000
  C   C16       1.0  0.260486910637745  0.2399980820840568  0.8183638571569888  1.0000
  C   C17       1.0  0.0560529334652884  0.9279762862247483  0.4848057728403462  1.0000
  C   C18       1.0  0.5560288073441979  0.5720191427635086  0.015202115797016807  1.0000
  C   C19       1.0  0.9439777836229981  0.07201791044133189  0.5152002854097263  1.0000
  C   C20       1.0  0.44395163886349565  0.42797714478914634  0.9848057039240532  1.0000
  C   C21       1.0  0.9211774375494671  0.8871956311676427  0.4086010155841606  1.0000
  C   C22       1.0  0.42116097473247294  0.6128023109779052  0.09140666771845221  1.0000
  C   C23       1.0  0.0788467224459026  0.1128059418467018  0.5914064557755057  1.0000
  C   C24       1.0  0.5788260285299386  0.3871971574881456  0.9086001602822052  1.0000
  Br  Br1       1.0  0.9440472430266881  0.3290129707384751  0.1501429115272543  1.0000
  Br  Br2       1.0  0.44405895995893735  0.17099769296136466  0.34985145873949364  1.0000
  Br  Br3       1.0  0.05594631723733559  0.6709950465872582  0.8498558675427716  1.0000
  Br  Br4       1.0  0.5559477144406415  0.8290030235847681  0.6501397574573602  1.0000
  N   N1        1.0  0.02921061877201229  0.7536756771631518  0.3740405569798854  1.0000
  N   N2        1.0  0.5291993068144123  0.7463261965895428  0.12596253615733133  1.0000
  N   N3        1.0  0.9708047984150099  0.24633229204987117  0.6259621355841534  1.0000
  N   N4        1.0  0.4707833250382834  0.2536733474550629  0.8740381420763443  1.0000
  N   N5        1.0  0.06668936840392797  0.5258265440794931  0.3413232883480078  1.0000
  N   N6        1.0  0.5666678833531833  0.9741774557422717  0.15867320356181844  1.0000
  N   N7        1.0  0.9333238630674714  0.47417835414285764  0.6586714508241727  1.0000
  N   N8        1.0  0.43331474845666657  0.02582533792585911  0.8413208922533997  1.0000
