data_image0
_chemical_formula_structural       Co2H16C8O14
_chemical_formula_sum              "Co2 H16 C8 O14"
_cell_length_a       5.763834029972393
_cell_length_b       8.685169320250047
_cell_length_c       8.765810806115777
_cell_angle_alpha    89.99992767548314
_cell_angle_beta     90.00056976518998
_cell_angle_gamma    117.37014080223487

_space_group_name_H-M_alt    "P 1"
_space_group_IT_number       1

loop_
  _space_group_symop_operation_xyz
  'x, y, z'

loop_
  _atom_site_type_symbol
  _atom_site_label
  _atom_site_symmetry_multiplicity
  _atom_site_fract_x
  _atom_site_fract_y
  _atom_site_fract_z
  _atom_site_occupancy
  Co  Co1       1.0  0.9325769017713557  0.6443802008457952  0.10882706453627122  1.0000
  Co  Co2       1.0  0.06741588866480439  0.3556170262803916  0.6088281679364302  1.0000
  H   H1        1.0  0.9433489833379269  0.8706347798385464  0.4917854445254834  1.0000
  H   H2        1.0  0.0566564404188554  0.12936501037889056  0.9917841053958157  1.0000
  H   H3        1.0  0.2624267717242291  0.9115528617895806  0.5441070003059991  1.0000
  H   H4        1.0  0.7375781313578216  0.08844281324500969  0.04410555712239271  1.0000
  H   H5        1.0  0.31036866764919324  0.0863247853556359  0.32298996334272095  1.0000
  H   H6        1.0  0.6896298282887443  0.9136767750523944  0.8229850313587905  1.0000
  H   H7        1.0  0.06323591615204553  0.6272685244053379  0.8352602012260989  1.0000
  H   H8        1.0  0.9367737363971855  0.37273393738801275  0.3352555923903466  1.0000
  H   H9        1.0  0.15447595458606858  0.8289203947933429  0.8592263735633382  1.0000
  H   H10       1.0  0.8455380195102362  0.17108613009447277  0.35921995488071456  1.0000
  H   H11       1.0  0.4830741717334701  0.5372894264441965  0.9608232222885391  1.0000
  H   H12       1.0  0.516902658245975  0.4627068213765639  0.4608227916557368  1.0000
  H   H13       1.0  0.47699125666425596  0.6529231835218425  0.0985664232690908  1.0000
  H   H14       1.0  0.5229988382757327  0.3470725870949707  0.5985647522669171  1.0000
  H   H15       1.0  0.8675175109639285  0.9149545076245219  0.2341456082283885  1.0000
  H   H16       1.0  0.1324820084409879  0.08504829255927149  0.734147020923686  1.0000
  C   C1        1.0  0.03183061121363554  0.6587700239411306  0.4528322770512149  1.0000
  C   C2        1.0  0.96816503070405  0.3412289522983443  0.952833469629191  1.0000
  C   C3        1.0  0.11189528761776285  0.8515962607669251  0.45692574909227107  1.0000
  C   C4        1.0  0.8881098153585326  0.14840717238183027  0.9569252073608328  1.0000
  C   C5        1.0  0.41932924651938186  0.892210717142589  0.24558748340927392  1.0000
  C   C6        1.0  0.5806748131667092  0.10779368788244881  0.7455826643853103  1.0000
  C   C7        1.0  0.2167549605619642  0.945081507091672  0.30402638759557027  1.0000
  C   C8        1.0  0.7832493876743598  0.05492173743047603  0.8040239921228862  1.0000
  O   O1        1.0  0.01657364134224076  0.8972559131298468  0.19098998339568857  1.0000
  O   O2        1.0  0.9834287997911272  0.10274708418769755  0.6909877552502695  1.0000
  O   O3        1.0  0.5502671292398702  0.5738012421389058  0.06408038660842412  1.0000
  O   O4        1.0  0.4497244761835901  0.4261983179884723  0.5640828390903749  1.0000
  O   O5        1.0  0.6454535038556202  0.9607219260207884  0.30341858578814407  1.0000
  O   O6        1.0  0.3545558788889238  0.03928418531152289  0.803421409621585  1.0000
  O   O7        1.0  0.009570131317111779  0.7114807555803677  0.8788030797614186  1.0000
  O   O8        1.0  0.9904427782415438  0.28852323550744063  0.37879992312631583  1.0000
  O   O9        1.0  0.3407670928915394  0.7721344304450141  0.14495418781956462  1.0000
  O   O10       1.0  0.6592310843311182  0.22786202464285307  0.6449430784096963  1.0000
  O   O11       1.0  0.11206220503908061  0.5997614348327714  0.5614214515407101  1.0000
  O   O12       1.0  0.8879356904767376  0.40023369503884254  0.0614245250339707  1.0000
  O   O13       1.0  0.8886318235641112  0.5650676708599816  0.34190175259861644  1.0000
  O   O14       1.0  0.11136124935295288  0.4349297744719961  0.8419031710368758  1.0000
