data_image0
_chemical_formula_structural       Li4H20C20N8O12
_chemical_formula_sum              "Li4 H20 C20 N8 O12"
_cell_length_a       8.065130824681503
_cell_length_b       8.085975965588887
_cell_length_c       9.532052126053577
_cell_angle_alpha    90.00005960608755
_cell_angle_beta     90.0003673498015
_cell_angle_gamma    97.09940254153105

_space_group_name_H-M_alt    "P 1"
_space_group_IT_number       1

loop_
  _space_group_symop_operation_xyz
  'x, y, z'

loop_
  _atom_site_type_symbol
  _atom_site_label
  _atom_site_symmetry_multiplicity
  _atom_site_fract_x
  _atom_site_fract_y
  _atom_site_fract_z
  _atom_site_occupancy
  Li  Li1       1.0  0.9384987637153446  0.8878616935806817  0.3987460112198704  1.0000
  Li  Li2       1.0  0.5615050795927631  0.1121372108597285  0.8987471750962044  1.0000
  Li  Li3       1.0  0.061501660388394414  0.1121344351068885  0.601253744865744  1.0000
  Li  Li4       1.0  0.43849705030445574  0.8878626557079484  0.1012536300876405  1.0000
  H   H1        1.0  0.679472530869731  0.3648280228755851  0.6204486611931017  1.0000
  H   H2        1.0  0.8205388848765552  0.6351789733015422  0.12044874389546581  1.0000
  H   H3        1.0  0.3205247951911759  0.6351730936029585  0.3795521439782803  1.0000
  H   H4        1.0  0.17946324501239994  0.36482089326377587  0.879549963104303  1.0000
  H   H5        1.0  0.4401951968084818  0.27460120388500553  0.1571133299126188  1.0000
  H   H6        1.0  0.05980085608691612  0.725401000310555  0.6571097580767359  1.0000
  H   H7        1.0  0.5598042981761325  0.725397418243908  0.8428885243556152  1.0000
  H   H8        1.0  0.9402006553352894  0.2746038522197338  0.3428878998314247  1.0000
  H   H9        1.0  0.42768954274600196  0.1455920977711713  0.5979039489651541  1.0000
  H   H10       1.0  0.07231673849783249  0.8544161973252072  0.0979039242528614  1.0000
  H   H11       1.0  0.5723077833190404  0.8544090187085446  0.40209790529826966  1.0000
  H   H12       1.0  0.9276853913993862  0.14558366924246258  0.9020968809309764  1.0000
  H   H13       1.0  0.03607296135107419  0.5940187118607979  0.339998489555633  1.0000
  H   H14       1.0  0.46392623591095383  0.4059776703971352  0.8399989305470967  1.0000
  H   H15       1.0  0.9639263782928824  0.405978664002177  0.6600012665275727  1.0000
  H   H16       1.0  0.5360732590653897  0.5940209517294195  0.160000825537054  1.0000
  H   H17       1.0  0.8566745837998085  0.5765555151357874  0.4090351530290235  1.0000
  H   H18       1.0  0.643329495926011  0.42344465869958725  0.9090338754476478  1.0000
  H   H19       1.0  0.14332847522067033  0.42344185799171896  0.5909646030642293  1.0000
  H   H20       1.0  0.3566727892953311  0.5765564541293101  0.090964831553066  1.0000
  C   C1        1.0  0.41465158036543676  0.1853384512936316  0.3732838831741745  1.0000
  C   C2        1.0  0.08534819278044378  0.8146704693537002  0.8732868195414909  1.0000
  C   C3        1.0  0.585344505895023  0.814662666094371  0.6267148238097846  1.0000
  C   C4        1.0  0.9146528526528571  0.18533064438819477  0.1267129365479107  1.0000
  C   C5        1.0  0.27358285970490215  0.04931278181607009  0.3427789950549425  1.0000
  C   C6        1.0  0.22641543317106994  0.950696071141472  0.8427691710285714  1.0000
  C   C7        1.0  0.726416324614931  0.9506833477856774  0.6572228592113945  1.0000
  C   C8        1.0  0.7735868520544074  0.04930504168860491  0.1572305850641769  1.0000
  C   C9        1.0  0.6166297496752335  0.3391601073612875  0.5200556177852464  1.0000
  C   C10       1.0  0.8833785505664267  0.660847911180696  0.0200571110576107  1.0000
  C   C11       1.0  0.3833675763856733  0.660841009117249  0.47994518738613584  1.0000
  C   C12       1.0  0.1166249744470917  0.33915320073638355  0.9799415959464498  1.0000
  C   C13       1.0  0.48480522579731666  0.28919725293224025  0.26494752917946585  1.0000
  C   C14       1.0  0.015194001263772332  0.7108039456328258  0.7649458019960633  1.0000
  C   C15       1.0  0.5151930293868504  0.7108013701061324  0.7350522269013383  1.0000
  C   C16       1.0  0.9848058043732167  0.2891971690197153  0.2350529049979428  1.0000
  C   C17       1.0  0.4803397791372036  0.21519214083662067  0.506718089810974  1.0000
  C   C18       1.0  0.019663459166615372  0.7848171973252814  0.0067187706287370015  1.0000
  C   C19       1.0  0.5196572362506587  0.7848064831123979  0.49328061717444177  1.0000
  C   C20       1.0  0.9803354173471208  0.21518641076742281  0.9932809854558543  1.0000
  N   N1        1.0  0.6063349319673819  0.41443492508042107  0.2857388167260808  1.0000
  N   N2        1.0  0.8936638381481362  0.5855699602373008  0.7857379807129092  1.0000
  N   N3        1.0  0.39366347855331446  0.5855649442227175  0.7142619884477028  1.0000
  N   N4        1.0  0.1063348830208071  0.4144324015882858  0.214258628094619  1.0000
  N   N5        1.0  0.6755709580197262  0.4363041952794688  0.41343239793853565  1.0000
  N   N6        1.0  0.8244350174936343  0.5637009725876113  0.913433267291758  1.0000
  N   N7        1.0  0.32442621270465827  0.5636956749343084  0.5865673581398667  1.0000
  N   N8        1.0  0.1755672677235722  0.436300140240114  0.086564390616914  1.0000
  O   O1        1.0  0.1492043038063002  0.036518050347631  0.4253642278050833  1.0000
  O   O2        1.0  0.35080362638154844  0.9634835034371463  0.9253708234743243  1.0000
  O   O3        1.0  0.8507947251811461  0.963476832990537  0.5746376264603086  1.0000
  O   O4        1.0  0.6491988141804513  0.0365188556576896  0.0746299817114107  1.0000
  O   O5        1.0  0.2889526610273522  0.9587433724225392  0.23721768224247336  1.0000
  O   O6        1.0  0.21106060655243652  0.04126273882778971  0.7372237910716564  1.0000
  O   O7        1.0  0.7110477630846576  0.0412527562673901  0.7627841720272102  1.0000
  O   O8        1.0  0.7889409048863031  0.9587421137072168  0.2627780632046637  1.0000
  O   O9        1.0  0.9608392508677854  0.6568677656438381  0.3938404195056435  1.0000
  O   O10       1.0  0.5391634693210392  0.34313237494349386  0.8938427071519329  1.0000
  O   O11       1.0  0.0391614838965992  0.34313085556971146  0.6061582874898194  1.0000
  O   O12       1.0  0.4608386605720511  0.6568674916230035  0.10615704893987041  1.0000
