data_image0
_chemical_formula_structural       Cu4H16C20Br4N4Cl4
_chemical_formula_sum              "Cu4 H16 C20 Br4 N4 Cl4"
_cell_length_a       3.821227477015411
_cell_length_b       8.64078116937638
_cell_length_c       20.83542693663149
_cell_angle_alpha    101.89153252312737
_cell_angle_beta     89.99990480945436
_cell_angle_gamma    90.00032263807614

_space_group_name_H-M_alt    "P 1"
_space_group_IT_number       1

loop_
  _space_group_symop_operation_xyz
  'x, y, z'

loop_
  _atom_site_type_symbol
  _atom_site_label
  _atom_site_symmetry_multiplicity
  _atom_site_fract_x
  _atom_site_fract_y
  _atom_site_fract_z
  _atom_site_occupancy
  Cu  Cu1       1.0  0.6138136588927807  0.8149488470096456  0.7917381070716869  1.0000
  Cu  Cu2       1.0  0.11382216591600522  0.685053845494778  0.7082643536540585  1.0000
  Cu  Cu3       1.0  0.38618735151850814  0.18505199434568448  0.20826228406799163  1.0000
  Cu  Cu4       1.0  0.8861945462408517  0.3149458445341437  0.2917373831282361  1.0000
  H   H1        1.0  0.32698451093060754  0.9623744563078702  0.9224225524416453  1.0000
  H   H2        1.0  0.8269855244889472  0.5376263966394602  0.5775792351950881  1.0000
  H   H3        1.0  0.673006031634742  0.037623988466975795  0.07757620256300868  1.0000
  H   H4        1.0  0.1730495063542392  0.4623697976518172  0.42242461521712454  1.0000
  H   H5        1.0  0.6727186949186291  0.4135436927719737  0.825853575150802  1.0000
  H   H6        1.0  0.172734215062306  0.0864601786554147  0.6741448712169171  1.0000
  H   H7        1.0  0.32725352894510007  0.5864570963943762  0.17414441186650004  1.0000
  H   H8        1.0  0.8272484766279933  0.9135406626768798  0.3258555199226975  1.0000
  H   H9        1.0  0.39465589620165537  0.46845340049248557  0.9369667163416577  1.0000
  H   H10       1.0  0.894680559109162  0.031551039584250894  0.5630322123050958  1.0000
  H   H11       1.0  0.6053189446469674  0.5315521296589976  0.06303213882333837  1.0000
  H   H12       1.0  0.10532306827604294  0.96845216705001  0.4369683724962099  1.0000
  H   H13       1.0  0.7551698258699917  0.1310603968744957  0.7670384070810028  1.0000
  H   H14       1.0  0.2551829765403327  0.3689377374468136  0.7329581131996645  1.0000
  H   H15       1.0  0.24480501495819604  0.868939167935096  0.23295755980766578  1.0000
  H   H16       1.0  0.7448101829505024  0.6310572115706421  0.26704275543485767  1.0000
  C   C1        1.0  0.4015361592696678  0.06475175490566437  0.902445576096518  1.0000
  C   C2        1.0  0.9015471876453917  0.43524915454540997  0.5975530621028609  1.0000
  C   C3        1.0  0.5984805529121644  0.9352502586766815  0.09755443104956638  1.0000
  C   C4        1.0  0.09847475841796444  0.564748170214443  0.4024484810178348  1.0000
  C   C5        1.0  0.5904564212822908  0.31621403435723033  0.8483760870455722  1.0000
  C   C6        1.0  0.09046558758552693  0.1837885622577886  0.6516275510212137  1.0000
  C   C7        1.0  0.40956290781101506  0.6837845356205035  0.15162843785266486  1.0000
  C   C8        1.0  0.9095537415506105  0.8162158896173892  0.3483760155576973  1.0000
  C   C9        1.0  0.3460756836365278  0.21851877067279446  0.9376436072845419  1.0000
  C   C10       1.0  0.8461061263876036  0.2814832132402927  0.5623565698555949  1.0000
  C   C11       1.0  0.6538913063166092  0.7814831906942385  0.06235399573908746  1.0000
  C   C12       1.0  0.1539184366703311  0.7185200247119711  0.4376454574191511  1.0000
  C   C13       1.0  0.4385076912868301  0.34747485993359817  0.9105417324766872  1.0000
  C   C14       1.0  0.9385047796204451  0.15252377721357385  0.5894567123033312  1.0000
  C   C15       1.0  0.5614828513228717  0.6525282528092048  0.08945452490446117  1.0000
  C   C16       1.0  0.06149884774432482  0.8474734640787956  0.41054098422164015  1.0000
  C   C17       1.0  0.639636163458846  0.1603950376031662  0.8158898690960326  1.0000
  C   C18       1.0  0.13964167539863587  0.3396027748313627  0.6841052079540473  1.0000
  C   C19       1.0  0.3603439112827403  0.8396033445751809  0.18410600096184734  1.0000
  C   C20       1.0  0.8603671858782465  0.6603920803308297  0.31589133326040997  1.0000
  Br  Br1       1.0  0.10349742764727675  0.6652428362323021  0.8266094594851264  1.0000
  Br  Br2       1.0  0.6035010494655993  0.8347538545465624  0.6733896320722008  1.0000
  Br  Br3       1.0  0.8964983488518998  0.3347603912532051  0.17339208696507305  1.0000
  Br  Br4       1.0  0.39650257788260046  0.1652410319007203  0.3266083516156114  1.0000
  N   N1        1.0  0.5458145839107192  0.0360007018030757  0.8421283628098094  1.0000
  N   N2        1.0  0.045827212763597906  0.4640005581749378  0.6578732548357704  1.0000
  N   N3        1.0  0.45415502296381066  0.9639965707381819  0.15787077618842454  1.0000
  N   N4        1.0  0.9541921163516492  0.5360027632152011  0.3421326190346149  1.0000
  Cl  Cl1       1.0  0.1685965064052653  0.24703631527170697  0.015583335655875894  1.0000
  Cl  Cl2       1.0  0.6686163233553658  0.25297403751730485  0.48441979937551577  1.0000
  Cl  Cl3       1.0  0.8313914192262007  0.752965656552206  0.9844147481922785  1.0000
  Cl  Cl4       1.0  0.33142394143867193  0.7470244594728541  0.5155813597515929  1.0000
