data_image0
_chemical_formula_structural       Cu8H176C128S16I8
_chemical_formula_sum              "Cu8 H176 C128 S16 I8"
_cell_length_a       13.52110395602297
_cell_length_b       14.084564398551601
_cell_length_c       21.9489375762255
_cell_angle_alpha    108.41725972511959
_cell_angle_beta     89.99988652160208
_cell_angle_gamma    89.99986794435422

_space_group_name_H-M_alt    "P 1"
_space_group_IT_number       1

loop_
  _space_group_symop_operation_xyz
  'x, y, z'

loop_
  _atom_site_type_symbol
  _atom_site_label
  _atom_site_symmetry_multiplicity
  _atom_site_fract_x
  _atom_site_fract_y
  _atom_site_fract_z
  _atom_site_occupancy
  Cu  Cu1       1.0  0.9098436912938012  0.8838851210855481  0.673102755856341  1.0000
  Cu  Cu2       1.0  0.4098446468879472  0.6161144533114038  0.8268940581388617  1.0000
  Cu  Cu3       1.0  0.0901591327391031  0.11611589571911907  0.3268945464918005  1.0000
  Cu  Cu4       1.0  0.590155218812704  0.3838805931074063  0.17310387583216874  1.0000
  Cu  Cu5       1.0  0.9166590457145388  0.06288820225081079  0.7675342037650381  1.0000
  Cu  Cu6       1.0  0.4166580648294768  0.4371126727851901  0.7324661067357708  1.0000
  Cu  Cu7       1.0  0.08334081996621018  0.9371180850184967  0.23246779467616102  1.0000
  Cu  Cu8       1.0  0.5833410612835976  0.5628838742964603  0.267532582158374  1.0000
  H   H1        1.0  0.8997742838857333  0.217477651600781  0.6822191527452475  1.0000
  H   H2        1.0  0.39977709263048666  0.28252028336758866  0.8177805920481587  1.0000
  H   H3        1.0  0.10021966512666579  0.7825226531912574  0.31778210808037943  1.0000
  H   H4        1.0  0.6002264709878844  0.7174747912695594  0.18222053681558487  1.0000
  H   H5        1.0  0.8174280342846243  0.26612606160470154  0.747345397831637  1.0000
  H   H6        1.0  0.3174282102860103  0.23387438985096048  0.7526563166830441  1.0000
  H   H7        1.0  0.18256961264810204  0.7338735150268076  0.2526579958048884  1.0000
  H   H8        1.0  0.6825701762324242  0.766124438464551  0.2473469276984516  1.0000
  H   H9        1.0  0.9990447639444893  0.3806271547484883  0.723533121980381  1.0000
  H   H10       1.0  0.4990458745110472  0.11937045939391307  0.7764655258858465  1.0000
  H   H11       1.0  0.0009514038224267998  0.6193716614744459  0.2764687531619572  1.0000
  H   H12       1.0  0.500953991188119  0.880624595088939  0.22353332091265088  1.0000
  H   H13       1.0  0.9319286890303714  0.442675513911304  0.8349525426541575  1.0000
  H   H14       1.0  0.431928087608668  0.057322323787815294  0.6650475989244455  1.0000
  H   H15       1.0  0.06806599956847488  0.5573240385327194  0.16504811250270274  1.0000
  H   H16       1.0  0.5680695593337574  0.9426742313602146  0.3349520027985448  1.0000
  H   H17       1.0  0.8133518673352498  0.45535998212252327  0.8042057737087375  1.0000
  H   H18       1.0  0.31335193640938286  0.04463524800402751  0.6957953599987547  1.0000
  H   H19       1.0  0.1866435608466617  0.5446410629179609  0.19579472354240574  1.0000
  H   H20       1.0  0.6866457105349539  0.9553590702635614  0.30420470678865996  1.0000
  H   H21       1.0  0.901651361262246  0.6195354902217217  0.8376122627081201  1.0000
  H   H22       1.0  0.4016559180358498  0.880461913420369  0.6623895956785331  1.0000
  H   H23       1.0  0.0983485044275341  0.38046481052897696  0.16238854169829145  1.0000
  H   H24       1.0  0.5983446872445483  0.11953390147222359  0.33761076961483377  1.0000
  H   H25       1.0  0.0023366248941556  0.5661450730899061  0.7870164963365835  1.0000
  H   H26       1.0  0.5023413386937392  0.9338550691466165  0.7129845754496527  1.0000
  H   H27       1.0  0.9976617616313701  0.4338514901210075  0.21298401821319146  1.0000
  H   H28       1.0  0.49766000617081824  0.06614297456119539  0.28701441195114086  1.0000
  H   H29       1.0  0.7899469174558859  0.5846147527592221  0.7439693612714109  1.0000
  H   H30       1.0  0.28995256837197286  0.9153874886774956  0.756033143387171  1.0000
  H   H31       1.0  0.2100522086462888  0.415388533187901  0.2560311273256133  1.0000
  H   H32       1.0  0.7100502556580396  0.0846105751881083  0.2439681260809152  1.0000
  H   H33       1.0  0.9735793388448568  0.5047584097959186  0.6624657057739397  1.0000
  H   H34       1.0  0.4735845372407112  0.9952439973664294  0.8375361511716335  1.0000
  H   H35       1.0  0.0264197872584759  0.495242643302788  0.3375357043012385  1.0000
  H   H36       1.0  0.5264182867885268  0.004755555064775799  0.162464503977688  1.0000
  H   H37       1.0  0.8549892024593149  0.51823098599327  0.632482999983651  1.0000
  H   H38       1.0  0.35499359651699786  0.981770302206392  0.8675192347980951  1.0000
  H   H39       1.0  0.14501214239736976  0.48177081138474875  0.3675181029300845  1.0000
  H   H40       1.0  0.6450099671005984  0.018226260996357296  0.13248127974687657  1.0000
  H   H41       1.0  0.7859076349618376  0.3938303354373429  0.6807114274912464  1.0000
  H   H42       1.0  0.2859101178701167  0.10617096767066408  0.8192909511452766  1.0000
  H   H43       1.0  0.21409075155836624  0.606172194132071  0.31928799902464516  1.0000
  H   H44       1.0  0.7140904874091519  0.8938255955367536  0.1807095634024377  1.0000
  H   H45       1.0  0.8871709603041464  0.34143602300983383  0.6299109658901756  1.0000
  H   H46       1.0  0.38717463411312275  0.15856494089286594  0.8700889428794767  1.0000
  H   H47       1.0  0.11282816580067129  0.6585650220248308  0.37008953135752864  1.0000
  H   H48       1.0  0.6128267107518183  0.8414323585321384  0.1299103516806994  1.0000
  H   H49       1.0  0.9814651967796875  0.6940221514971443  0.7292993919840924  1.0000
  H   H50       1.0  0.4814681017380664  0.8059772496601594  0.7707032225627584  1.0000
  H   H51       1.0  0.018537627249195093  0.305976660683278  0.2707020267383484  1.0000
  H   H52       1.0  0.5185347222945537  0.1940200578265632  0.22929698482351304  1.0000
  H   H53       1.0  0.8823570193151581  0.746206915039991  0.7812399080348837  1.0000
  H   H54       1.0  0.3823609553129471  0.7537935305556469  0.718761213910703  1.0000
  H   H55       1.0  0.11764802346630178  0.2537941299853514  0.21876058920734207  1.0000
  H   H56       1.0  0.6176418687208095  0.24620302861625015  0.2812388442212209  1.0000
  H   H57       1.0  0.6987508965325517  0.6854180420707293  0.7101158278735227  1.0000
  H   H58       1.0  0.19875519833583868  0.8145904409554844  0.789884388638086  1.0000
  H   H59       1.0  0.3012556254297181  0.31457626005478545  0.2898824132507229  1.0000
  H   H60       1.0  0.8012483652723288  0.18541285304869604  0.2101170127822911  1.0000
  H   H61       1.0  0.6970208618201781  0.8118731664316882  0.7078162537370216  1.0000
  H   H62       1.0  0.19701953970262306  0.6881360663368951  0.7921836588288399  1.0000
  H   H63       1.0  0.3029812226357365  0.18812038738599307  0.2921818381369903  1.0000
  H   H64       1.0  0.8029803259789077  0.3118687323668112  0.20781895393113098  1.0000
  H   H65       1.0  0.6559252261383006  0.8459730845865251  0.6076400687950851  1.0000
  H   H66       1.0  0.15592144302557637  0.654030983010962  0.892352485413916  1.0000
  H   H67       1.0  0.3440849937457385  0.15402196584799546  0.39235832158008316  1.0000
  H   H68       1.0  0.8440791622483345  0.34597303108854044  0.10764587036740639  1.0000
  H   H69       1.0  0.5887763737057341  0.7857891601550336  0.4966964782810095  1.0000
  H   H70       1.0  0.0887796196469921  0.7142067753510374  0.003300412366819184  1.0000
  H   H71       1.0  0.41123014825617327  0.214204401719705  0.5033025264163554  1.0000
  H   H72       1.0  0.9112224647980228  0.28579351733211666  0.9966994792100649  1.0000
  H   H73       1.0  0.5959196312267636  0.48344872346089546  0.5024012769971619  1.0000
  H   H74       1.0  0.09592101198669667  0.016552450076098093  0.9976035867954492  1.0000
  H   H75       1.0  0.40408171364012446  0.5165448545500907  0.49759955335994016  1.0000
  H   H76       1.0  0.9040818120327996  0.9834516083721636  0.002399789534898392  1.0000
  H   H77       1.0  0.6676650049073201  0.5430392208878984  0.6118728874155862  1.0000
  H   H78       1.0  0.16766421425330683  0.956972369473895  0.8881298094231693  1.0000
  H   H79       1.0  0.3323422566387819  0.4569550852684755  0.38812581012170705  1.0000
  H   H80       1.0  0.8323386097616419  0.04303616676725848  0.11187309319206658  1.0000
  H   H81       1.0  0.5131733755595959  0.6530449039798893  0.4108537807771667  1.0000
  H   H82       1.0  0.013178248183962198  0.846951301976901  0.08914690138796291  1.0000
  H   H83       1.0  0.4868264901294807  0.34695391626924277  0.5891485507754834  1.0000
  H   H84       1.0  0.9868223570907587  0.15304973902340172  0.91085313944464  1.0000
  H   H85       1.0  0.507319710568261  0.5275395478027817  0.41209077958783513  1.0000
  H   H86       1.0  0.007322810091629598  0.9724574289463914  0.08791051910289124  1.0000
  H   H87       1.0  0.4926794155429448  0.4724577516257185  0.5879085149743942  1.0000
  H   H88       1.0  0.9926792743515094  0.02754361608360509  0.9120899781420774  1.0000
  H   H89       1.0  0.6018240805372557  0.3965064719036775  0.35213166100035653  1.0000
  H   H90       1.0  0.10182194577772917  0.10349148889383024  0.14786840743872176  1.0000
  H   H91       1.0  0.3981750455712998  0.6034930684372808  0.6478676249111857  1.0000
  H   H92       1.0  0.8981779199128324  0.8965073232912529  0.8521330112864547  1.0000
  H   H93       1.0  0.7022198049879477  0.4014656252546941  0.3013971945417068  1.0000
  H   H94       1.0  0.20221825789359826  0.09853426820858147  0.19860359188551507  1.0000
  H   H95       1.0  0.2977771023717394  0.5985316620812354  0.6986007307813791  1.0000
  H   H96       1.0  0.7977830869664827  0.9014652842249544  0.8013970632651705  1.0000
  H   H97       1.0  0.722126922892457  0.44012798508855866  0.4466793850825396  1.0000
  H   H98       1.0  0.22212741547505027  0.05987259396636089  0.05332151367855428  1.0000
  H   H99       1.0  0.2778722032138035  0.5598745364156342  0.5533191286051958  1.0000
  H   H100      1.0  0.7778724502185097  0.9401247175570472  0.946679150124197  1.0000
  H   H101      1.0  0.6783097963058039  0.2638604964591734  0.38948023144408234  1.0000
  H   H102      1.0  0.1783096859271893  0.23614020452017564  0.11051892292333318  1.0000
  H   H103      1.0  0.32168711104297637  0.7361435297422286  0.6105194935818756  1.0000
  H   H104      1.0  0.8216894401821406  0.7638578472551811  0.8894809773069807  1.0000
  H   H105      1.0  0.774116423044795  0.25574077718149363  0.3331118876949262  1.0000
  H   H106      1.0  0.27411389277094855  0.24426112261207314  0.16688784391975278  1.0000
  H   H107      1.0  0.22588196347766848  0.7442602557582629  0.6668872403122705  1.0000
  H   H108      1.0  0.7258852333379976  0.7557376734460771  0.8331117491511789  1.0000
  H   H109      1.0  0.8303107592746741  0.18005227519919487  0.4134688685489323  1.0000
  H   H110      1.0  0.3303105273539159  0.3199464502518409  0.08652970541772476  1.0000
  H   H111      1.0  0.16968614807862537  0.8199487577428921  0.5865302594596286  1.0000
  H   H112      1.0  0.6696878591715817  0.680051597492657  0.9134697383995414  1.0000
  H   H113      1.0  0.8020347279118667  0.2901380555799946  0.47732651584504987  1.0000
  H   H114      1.0  0.30203570292305654  0.20985852610805003  0.022673032037737087  1.0000
  H   H115      1.0  0.19796217944181646  0.7098622330792849  0.5226729193229005  1.0000
  H   H116      1.0  0.6979641627712423  0.7901387813833337  0.9773271753512772  1.0000
  H   H117      1.0  0.9527681738878397  0.27331742843414014  0.37083697576088065  1.0000
  H   H118      1.0  0.4527680258082896  0.22668093135883535  0.12916365317195036  1.0000
  H   H119      1.0  0.047229473050073495  0.7266821199731978  0.6291632229795068  1.0000
  H   H120      1.0  0.5472318398811068  0.7733201136746641  0.8708368440750717  1.0000
  H   H121      1.0  0.9006277991155115  0.4532088148071978  0.48731893760263023  1.0000
  H   H122      1.0  0.4006277142862372  0.046788960945903596  0.012681638772313899  1.0000
  H   H123      1.0  0.0993705874080817  0.5467914698177336  0.5126800411502187  1.0000
  H   H124      1.0  0.5993721514043244  0.9532098512391867  0.9873197799528696  1.0000
  H   H125      1.0  0.9980666825470195  0.4482570438197086  0.43263491067200727  1.0000
  H   H126      1.0  0.4980664095315959  0.05174117728662958  0.0673660906666882  1.0000
  H   H127      1.0  0.0019324435607969994  0.5517425005532741  0.5673648316532719  1.0000
  H   H128      1.0  0.5019341957397998  0.9482591395909948  0.9326365393939751  1.0000
  H   H129      1.0  0.8774391396968326  0.41801661522457306  0.34241542688791776  1.0000
  H   H130      1.0  0.37743850381059457  0.08198646776005346  0.15758578085858224  1.0000
  H   H131      1.0  0.12256072599327437  0.5819859103104787  0.6575835432128655  1.0000
  H   H132      1.0  0.6225598827059073  0.9180160819694761  0.8424159277259802  1.0000
  H   H133      1.0  0.8478607016362075  0.5294926198412638  0.40416615602205036  1.0000
  H   H134      1.0  0.34786082188333006  0.9705085262296435  0.09583601231803127  1.0000
  H   H135      1.0  0.15213916405428304  0.4705091614109874  0.5958331212381223  1.0000
  H   H136      1.0  0.652139783387689  0.029492534930781696  0.9041663105832425  1.0000
  H   H137      1.0  0.9831419198820868  0.29360306601630265  0.5128383844747332  1.0000
  H   H138      1.0  0.4831443628447047  0.20639610695371155  0.9871619606326546  1.0000
  H   H139      1.0  0.016855727055435896  0.7063972266738358  0.48716150710626477  1.0000
  H   H140      1.0  0.5168547632635025  0.7936026931364705  0.012838088852006949  1.0000
  H   H141      1.0  0.07696079186828089  0.31573838855569386  0.46147273143458983  1.0000
  H   H142      1.0  0.5769622234949949  0.18426265189458488  0.03852889295605878  1.0000
  H   H143      1.0  0.9230368550647299  0.6842648973937597  0.5385277571637984  1.0000
  H   H144      1.0  0.42303690261133653  0.8157369005424466  0.9614717621966874  1.0000
  H   H145      1.0  0.16912222523675524  0.057073365739086085  0.4536672682118733  1.0000
  H   H146      1.0  0.6691230176723407  0.4429273682175037  0.04633235960718448  1.0000
  H   H147      1.0  0.830876900868418  0.9429284195463622  0.5463324654627185  1.0000
  H   H148      1.0  0.33088054594225  0.557070695646935  0.9536689098602195  1.0000
  H   H149      1.0  0.19930671883704318  0.18452520991746005  0.46645032637970724  1.0000
  H   H150      1.0  0.6993078550578247  0.3154754249063814  0.03354878904688259  1.0000
  H   H151      1.0  0.800694626026349  0.8154750666387611  0.533547739542925  1.0000
  H   H152      1.0  0.3006905314736343  0.6845211060483366  0.9664480741930175  1.0000
  H   H153      1.0  0.057761405931216786  0.015956788461984697  0.5395967686767945  1.0000
  H   H154      1.0  0.5577629835771916  0.4840451971636596  0.9604019253437315  1.0000
  H   H155      1.0  0.9422325430818147  0.9840479658987816  0.46040082353758993  1.0000
  H   H156      1.0  0.4422361425189861  0.5159610901068135  0.03960007309814977  1.0000
  H   H157      1.0  0.0349020923793972  0.053929000062055386  0.6562994520507672  1.0000
  H   H158      1.0  0.5349026575213286  0.44607081667397347  0.84369929301495  1.0000
  H   H159      1.0  0.9650881587066065  0.9460780032810446  0.34369904434382187  1.0000
  H   H160      1.0  0.46509498940829264  0.553934714219956  0.15630164334649513  1.0000
  H   H161      1.0  0.1748532902760829  0.3404726712501329  0.6886678418579564  1.0000
  H   H162      1.0  0.6748524212845409  0.15952597236693575  0.8113323200642952  1.0000
  H   H163      1.0  0.8251473149985953  0.659529854283761  0.3113311282421378  1.0000
  H   H164      1.0  0.3251489235649458  0.84048254371644  0.18866830048364128  1.0000
  H   H165      1.0  0.19681622729952863  0.30290800383505717  0.5716755791729325  1.0000
  H   H166      1.0  0.6968134125090798  0.1970913148707822  0.9283242348605468  1.0000
  H   H167      1.0  0.803185117561611  0.6970937693508219  0.42832278525839484  1.0000
  H   H168      1.0  0.30318497400660493  0.8029142079579398  0.07167578867274216  1.0000
  H   H169      1.0  0.12747319336642696  0.29563229836391963  0.7773969414573612  1.0000
  H   H170      1.0  0.627472504208768  0.20436573815116071  0.7226022462512914  1.0000
  H   H171      1.0  0.8725266723266712  0.7043687265094646  0.22260127372099697  1.0000
  H   H172      1.0  0.3725244031374685  0.7956360753619407  0.2774006823214989  1.0000
  H   H173      1.0  0.13066615044880342  0.1649249302508125  0.7679046469420854  1.0000
  H   H174      1.0  0.6306665995654086  0.33507309620264875  0.7320945348440375  1.0000
  H   H175      1.0  0.8693337152469167  0.8350753382436904  0.23209250615445132  1.0000
  H   H176      1.0  0.369331786956657  0.6649286810199154  0.2679042860037767  1.0000
  C   C1        1.0  0.8935756833800852  0.27107660356324453  0.7308924790555692  1.0000
  C   C2        1.0  0.3935772972217251  0.22892359588098532  0.7691077249975534  1.0000
  C   C3        1.0  0.10642048438604948  0.7289237012252983  0.2691087817680042  1.0000
  C   C4        1.0  0.6064225684703572  0.7710737237064715  0.23089385163266463  1.0000
  C   C5        1.0  0.9187828177818174  0.37702021559363885  0.7315865144449275  1.0000
  C   C6        1.0  0.41878320617802695  0.12297991249820936  0.7684145556891052  1.0000
  C   C7        1.0  0.08121334998654818  0.6229800770988375  0.26841337713744196  1.0000
  C   C8        1.0  0.5812159199335624  0.8770166426474899  0.23158504603251362  1.0000
  C   C9        1.0  0.8934222644538038  0.4579147816871155  0.7948422309458109  1.0000
  C   C10       1.0  0.393423788550045  0.04208243304535839  0.7051582892019893  1.0000
  C   C11       1.0  0.10657390331307677  0.5420855190694026  0.20515857346402555  1.0000
  C   C12       1.0  0.6065760771476432  0.9579126295015425  0.29484147042398223  1.0000
  C   C13       1.0  0.9212482755586393  0.5619528846961471  0.7921633044168102  1.0000
  C   C14       1.0  0.4212525490084359  0.9380466900521611  0.7078375961486499  1.0000
  C   C15       1.0  0.07875159013230608  0.4380451832061353  0.20783842146775558  1.0000
  C   C16       1.0  0.5787487958550273  0.061950617436892196  0.29216261123899295  1.0000
  C   C17       1.0  0.8705860559201283  0.585064091556127  0.7356570388677922  1.0000
  C   C18       1.0  0.37058946233258877  0.9149364032223769  0.7643454741492377  1.0000
  C   C19       1.0  0.1294152889361726  0.4149384501046993  0.26434375688656075  1.0000
  C   C20       1.0  0.6294133617000311  0.08506090426434545  0.235654733237034  1.0000
  C   C21       1.0  0.8937559610760387  0.5029175281652201  0.6724819248127643  1.0000
  C   C22       1.0  0.39375970825058454  0.9970836338637169  0.8275197816612659  1.0000
  C   C23       1.0  0.10624538378139188  0.49708426518077414  0.327518721687241  1.0000
  C   C24       1.0  0.6062431157801739  0.0029144259698554997  0.17248103139309018  1.0000
  C   C25       1.0  0.8667982219290875  0.3989643962719071  0.675309014179163  1.0000
  C   C26       1.0  0.3668006995959415  0.10103738819852025  0.8246919944555203  1.0000
  C   C27       1.0  0.1332009041757303  0.6010366487627579  0.3246914830685483  1.0000
  C   C28       1.0  0.6331999056829429  0.8989599192916982  0.175308212932812  1.0000
  C   C29       1.0  0.9008778373721851  0.6895980000713848  0.7354926429284558  1.0000
  C   C30       1.0  0.4008814913920702  0.8104046361489593  0.7645093488465377  1.0000
  C   C31       1.0  0.09912646582169769  0.31040454561680514  0.26450860923688413  1.0000
  C   C32       1.0  0.5991213326409408  0.18959192705496258  0.23549116569911627  1.0000
  C   C33       1.0  0.717572572685732  0.7342676598846153  0.68151542306407  1.0000
  C   C34       1.0  0.21757246067201655  0.7657370101781992  0.8184826430330856  1.0000
  C   C35       1.0  0.2824332096893372  0.265727398620939  0.31848388014267204  1.0000
  C   C36       1.0  0.7824296237684791  0.23426627576425568  0.1815178455611886  1.0000
  C   C37       1.0  0.668974616655525  0.6986086098360359  0.6167707867992219  1.0000
  C   C38       1.0  0.16897273193764303  0.8013962052797223  0.8832264565990682  1.0000
  C   C39       1.0  0.33103634282025485  0.30138120642555316  0.3832270152085541  1.0000
  C   C40       1.0  0.8310300920866567  0.1986085692271757  0.11677341767575199  1.0000
  C   C41       1.0  0.6438427655660063  0.7661057094827652  0.5841279588857091  1.0000
  C   C42       1.0  0.1438364982470262  0.7338962076898524  0.9158705597622613  1.0000
  C   C43       1.0  0.3561667147401906  0.2338863355975391  0.4158684652315472  1.0000
  C   C44       1.0  0.8561626278514112  0.26610858295097006  0.08413114017092477  1.0000
  C   C45       1.0  0.6058105088791379  0.7321126826210431  0.5218624431609341  1.0000
  C   C46       1.0  0.10580987666190818  0.7678863409488484  0.978133266928168  1.0000
  C   C47       1.0  0.39419749225832124  0.26787713364520016  0.4781353588495847  1.0000
  C   C48       1.0  0.8941914681984855  0.23211543626904776  0.021865553916896388  1.0000
  C   C49       1.0  0.5903481855663769  0.6298907868143216  0.4907497545257371  1.0000
  C   C50       1.0  0.09034882349017437  0.8701081692591612  0.009251381536785157  1.0000
  C   C51       1.0  0.4096538988857572  0.3701057562306431  0.5092484779519282  1.0000
  C   C52       1.0  0.9096510421958682  0.12989363618523697  0.9907506342057953  1.0000
  C   C53       1.0  0.611347974832867  0.5628904380652456  0.5247445901123128  1.0000
  C   C54       1.0  0.11134695020822247  0.9371093728219148  0.9752576487543152  1.0000
  C   C55       1.0  0.38865780754488805  0.43710089499426613  0.47525579247762545  1.0000
  C   C56       1.0  0.8886543946451154  0.06289318496700248  0.02474497265497179  1.0000
  C   C57       1.0  0.651100506828321  0.5963746748932265  0.5864088209444134  1.0000
  C   C58       1.0  0.1510960627034095  0.9036325019661077  0.9135957495735951  1.0000
  C   C59       1.0  0.3489074943042354  0.40361887891513243  0.41358927092411335  1.0000
  C   C60       1.0  0.8489052821461485  0.0963730450500933  0.0864070124393521  1.0000
  C   C61       1.0  0.5546685591664583  0.5940482370104119  0.4225701190968038  1.0000
  C   C62       1.0  0.05467332954807349  0.905948578461341  0.07742972254074221  1.0000
  C   C63       1.0  0.4453313065271018  0.40594907451299617  0.5774305447059475  1.0000
  C   C64       1.0  0.9453280153104868  0.09405246656982767  0.9225707747049084  1.0000
  C   C65       1.0  0.674991144456392  0.4303147945931371  0.351216479062181  1.0000
  C   C66       1.0  0.17499130574969254  0.06968517255882029  0.1487829886189544  1.0000
  C   C67       1.0  0.3250072420709315  0.5696839853380878  0.648781288354499  1.0000
  C   C68       1.0  0.8250092995258027  0.930314379875881  0.8512176665324204  1.0000
  C   C69       1.0  0.7481545041922999  0.40587511977632557  0.3970375170463143  1.0000
  C   C70       1.0  0.24815475530576234  0.09412462492883829  0.10296272777767257  1.0000
  C   C71       1.0  0.25184388233089544  0.5941259091314065  0.6029611545471381  1.0000
  C   C72       1.0  0.751845110387407  0.9058734308773776  0.8970376288656893  1.0000
  C   C73       1.0  0.7524804909233322  0.2921925274044454  0.3836538617764944  1.0000
  C   C74       1.0  0.25247894982920366  0.20780869627158435  0.11634621712139648  1.0000
  C   C75       1.0  0.24751863518184075  0.7078092578809958  0.6163458718980905  1.0000
  C   C76       1.0  0.7475194366951641  0.7921900997877386  0.8836533759502173  1.0000
  C   C77       1.0  0.8267813426746571  0.26217681296996176  0.4268018176782674  1.0000
  C   C78       1.0  0.326780609129571  0.23782193166579896  0.07319767566177397  1.0000
  C   C79       1.0  0.1732163042624819  0.7378242240029846  0.5731977667433412  1.0000
  C   C80       1.0  0.673217037810211  0.7621768643946892  0.9268019174105289  1.0000
  C   C81       1.0  0.9293062128899761  0.3050192938465344  0.42149313787862036  1.0000
  C   C82       1.0  0.42930778266981656  0.1949791277676311  0.07850616532260797  1.0000
  C   C83       1.0  0.0706914340494151  0.6949802464967619  0.578506148034293  1.0000
  C   C84       1.0  0.5706920830207095  0.8050211689510363  0.9214941826700738  1.0000
  C   C85       1.0  0.9240483461787573  0.41875086188615995  0.436953662553158  1.0000
  C   C86       1.0  0.4240480170550213  0.08124908099028967  0.0630468617369289  1.0000
  C   C87       1.0  0.07595077992753829  0.581250175084456  0.5630459218670791  1.0000
  C   C88       1.0  0.575950369464863  0.918751223794757  0.9369543990845841  1.0000
  C   C89       1.0  0.8513176357659942  0.4476362455821316  0.39260798601780766  1.0000
  C   C90       1.0  0.35131723213076066  0.052365427103694594  0.10739342807693932  1.0000
  C   C91       1.0  0.14868222992562607  0.5523647873552946  0.6073911419880175  1.0000
  C   C92       1.0  0.6486818939725792  0.9476356259950122  0.892607981998239  1.0000
  C   C93       1.0  0.0073023240081582005  0.27593188928556595  0.46258070466616624  1.0000
  C   C94       1.0  0.5073029251367842  0.22406786594039824  0.03741983757364409  1.0000
  C   C95       1.0  0.99269606251282  0.7240691517182324  0.5374193361684972  1.0000
  C   C96       1.0  0.49269620097102507  0.7759316784325846  0.962579904751635  1.0000
  C   C97       1.0  0.1439148355253792  0.13440528226466597  0.47639440510952363  1.0000
  C   C98       1.0  0.6439144056858835  0.3655955311130084  0.023605269458826687  1.0000
  C   C99       1.0  0.8560850301665964  0.8655964909235364  0.5236039593231752  1.0000
  C   C100      1.0  0.35608546000464264  0.6344047656056587  0.9763950785338478  1.0000
  C   C101      1.0  0.1273428224169848  0.15758458823486166  0.5469985361169377  1.0000
  C   C102      1.0  0.627343280967743  0.3424156896016228  0.9530006431817382  1.0000
  C   C103      1.0  0.8726570432753816  0.8424164406705398  0.45300013547515033  1.0000
  C   C104      1.0  0.3726558451347799  0.6575883365962838  0.04699908184216639  1.0000
  C   C105      1.0  0.08196787135206308  0.08824210844350226  0.5719002098523163  1.0000
  C   C106      1.0  0.5819682456412352  0.411758312352802  0.9280990535961919  1.0000
  C   C107      1.0  0.918027556830168  0.9117611613813492  0.42809845309319877  1.0000
  C   C108      1.0  0.4180294012872991  0.5882464823223755  0.07190310275210265  1.0000
  C   C109      1.0  0.06950647978326428  0.10913289280213687  0.6377164038499002  1.0000
  C   C110      1.0  0.5695063764246839  0.39086756725616567  0.8622828827092235  1.0000
  C   C111      1.0  0.9304882088136139  0.8908718655894884  0.3622816447775249  1.0000
  C   C112      1.0  0.4304905309195775  0.6091394522045446  0.13771743933413208  1.0000
  C   C113      1.0  0.10262268111340227  0.20013269053413296  0.6807579682378062  1.0000
  C   C114      1.0  0.6026229326377005  0.29986616855704534  0.8192409583969036  1.0000
  C   C115      1.0  0.8973742262379856  0.799870579288388  0.31924069470633737  1.0000
  C   C116      1.0  0.3973747142900521  0.7001401146837409  0.18076058363261888  1.0000
  C   C117      1.0  0.147302422209421  0.26978940316783445  0.6559121357675295  1.0000
  C   C118      1.0  0.6473005401650341  0.23021007153623427  0.8440877700905176  1.0000
  C   C119      1.0  0.8526989226505888  0.7302131183328698  0.34408637791815266  1.0000
  C   C120      1.0  0.35269858593559184  0.7697961915420987  0.1559114898689628  1.0000
  C   C121      1.0  0.1594125118089096  0.24867583434853907  0.5898218795407572  1.0000
  C   C122      1.0  0.6594111060018191  0.25132284582148395  0.9101769417763633  1.0000
  C   C123      1.0  0.8405873538841888  0.7513251905248381  0.4101763356376011  1.0000
  C   C124      1.0  0.3405865409296779  0.7486819327255957  0.08982338891699017  1.0000
  C   C125      1.0  0.0938140867093082  0.22285012109689714  0.7520982697386527  1.0000
  C   C126      1.0  0.5938131431593803  0.2771487697808082  0.7479011296468057  1.0000
  C   C127      1.0  0.906185039396952  0.7771524004073028  0.24790024394908272  1.0000
  C   C128      1.0  0.4061822850195326  0.722853775921358  0.2521001225267625  1.0000
  S   S1        1.0  0.9676975617722687  0.22278950367898884  0.7836962884881871  1.0000
  S   S2        1.0  0.4676962730190083  0.27720971392434984  0.7163036288511364  1.0000
  S   S3        1.0  0.032303783084771005  0.7772130339498131  0.2163040508524289  1.0000
  S   S4        1.0  0.532302113505004  0.7227883418841898  0.28369672779359684  1.0000
  S   S5        1.0  0.8523286064057843  0.7290056819600605  0.6697703844191593  1.0000
  S   S6        1.0  0.35232770442138417  0.770994866315675  0.8302317060473354  1.0000
  S   S7        1.0  0.14767791554449158  0.27099462281216796  0.33023087639481463  1.0000
  S   S8        1.0  0.6476736404398196  0.22900393780302855  0.16976879984900248  1.0000
  S   S9        1.0  0.654485246976833  0.5624132207565252  0.362752178758157  1.0000
  S   S10       1.0  0.15448827009972627  0.9375847728301279  0.13724731986172148  1.0000
  S   S11       1.0  0.3455123999651731  0.43758556320788944  0.637246045072942  1.0000
  S   S12       1.0  0.8455115955915741  0.062414035322930786  0.8627536424497251  1.0000
  S   S13       1.0  0.032815982895279185  0.14226835853416017  0.430988996572779  1.0000
  S   S14       1.0  0.532816164812651  0.3577313082443112  0.0690105855237988  1.0000
  S   S15       1.0  0.9671846223805358  0.8577334186849014  0.5690098242729673  1.0000
  S   S16       1.0  0.46718370087974387  0.6422682361275063  0.9309891568007982  1.0000
  I   I1        1.0  0.0663798338381625  0.9375628354559917  0.7482158353114199  1.0000
  I   I2        1.0  0.5663816061949162  0.5624363405657603  0.7517831427974286  1.0000
  I   I3        1.0  0.9336178130892349  0.062442707534010794  0.2517864702912219  1.0000
  I   I4        1.0  0.4336182595049606  0.43756019441865135  0.2482141768548303  1.0000
  I   I5        1.0  0.7638373875097455  0.014162102327894395  0.6900205304719974  1.0000
  I   I6        1.0  0.26383678045520753  0.4858400025069044  0.8099802126970062  1.0000
  I   I7        1.0  0.23616099900946344  0.9858352374220086  0.309983328228263  1.0000
  I   I8        1.0  0.7361586477318554  0.5141624988430065  0.1900160189254833  1.0000
