data_image0
_chemical_formula_structural       Cd2H12C16Br8N8
_chemical_formula_sum              "Cd2 H12 C16 Br8 N8"
_cell_length_a       3.914558351144995
_cell_length_b       10.45473499551753
_cell_length_c       16.608590131339724
_cell_angle_alpha    89.99947110011574
_cell_angle_beta     90.00051941524036
_cell_angle_gamma    92.11273128750963

_space_group_name_H-M_alt    "P 1"
_space_group_IT_number       1

loop_
  _space_group_symop_operation_xyz
  'x, y, z'

loop_
  _atom_site_type_symbol
  _atom_site_label
  _atom_site_symmetry_multiplicity
  _atom_site_fract_x
  _atom_site_fract_y
  _atom_site_fract_z
  _atom_site_occupancy
  Cd  Cd1       1.0  0.500006774921502  0.999999348347842  0.5000015216613534  1.0000
  Cd  Cd2       1.0  0.5000097831020583  0.5000075650553696  2.6812212397000002e-06  1.0000
  H   H1        1.0  0.7201549999972131  0.30574417206094034  0.5193094479803476  1.0000
  H   H2        1.0  0.27986045055246933  0.19426136622655574  0.0193072067713658  1.0000
  H   H3        1.0  0.27986724873232294  0.6942562756059087  0.4806892835415155  1.0000
  H   H4        1.0  0.7201340115546203  0.8057649773851879  0.9806867078613307  1.0000
  H   H5        1.0  0.26893656344969946  0.23726845631805554  0.7899648982092271  1.0000
  H   H6        1.0  0.7310756872238146  0.26272754390384984  0.289969227170225  1.0000
  H   H7        1.0  0.7310600383779403  0.7627310783067569  0.2100428647593446  1.0000
  H   H8        1.0  0.2689366725730977  0.7372528169922034  0.7100264939094387  1.0000
  H   H9        1.0  0.3190544563756604  0.052627791971111997  0.6917560690208617  1.0000
  H   H10       1.0  0.6809510064856072  0.44736481205576684  0.19175921681692634  1.0000
  H   H11       1.0  0.680946617455014  0.947365990968244  0.308249285576899  1.0000
  H   H12       1.0  0.3190910390331537  0.55262985736627  0.8082455357232375  1.0000
  C   C1        1.0  0.6207321176294373  0.2903456860115056  0.5799822084139024  1.0000
  C   C2        1.0  0.37927795872917613  0.2096590097829392  0.07998490318274068  1.0000
  C   C3        1.0  0.3792820446793854  0.7096509463258655  0.4200165231105828  1.0000
  C   C4        1.0  0.6207043785686467  0.7903501228540295  0.9200138282718909  1.0000
  C   C5        1.0  0.6003282826107323  0.3892199231271432  0.6364129380744572  1.0000
  C   C6        1.0  0.3997219152489323  0.11078103911980722  0.1364132413958785  1.0000
  C   C7        1.0  0.3997014164015908  0.610778596991544  0.3635869976569879  1.0000
  C   C8        1.0  0.6002108337267417  0.8892186060104519  0.8635818774458954  1.0000
  C   C9        1.0  0.3720365932037383  0.2519387568338871  0.7294932445146926  1.0000
  C   C10       1.0  0.6279734830485139  0.24805905340564738  0.22949744230182736  1.0000
  C   C11       1.0  0.6279603266360994  0.7480636492509661  0.27051090585744925  1.0000
  C   C12       1.0  0.37202493046919466  0.751933776873436  0.7704982787268548  1.0000
  C   C13       1.0  0.39539732491559215  0.15060767296878907  0.6753492935739303  1.0000
  C   C14       1.0  0.6045953848870483  0.3493909273989785  0.17535345391988946  1.0000
  C   C15       1.0  0.6045918265384316  0.8493937892381493  0.3246524484005349  1.0000
  C   C16       1.0  0.39543431412527497  0.6506075927197088  0.8246464818115484  1.0000
  Br  Br1       1.0  0.9836840393921805  0.8718156859670925  0.585563548984716  1.0000
  Br  Br2       1.0  0.01633595721177977  0.6281919350257041  0.08555933270259428  1.0000
  Br  Br3       1.0  0.016327780933757193  0.12818286505117266  0.4144387951201124  1.0000
  Br  Br4       1.0  0.9836691551209642  0.3718152435164938  0.9144472260565166  1.0000
  Br  Br5       1.0  0.7589300266548519  0.5580779945179585  0.607824394484062  1.0000
  Br  Br6       1.0  0.24109453939919945  0.9419168607575444  0.10782604763218018  1.0000
  Br  Br7       1.0  0.24108658382255743  0.4419176762239443  0.3921791538303267  1.0000
  Br  Br8       1.0  0.7587831854121136  0.058093410191901305  0.8921606417478996  1.0000
  N   N1        1.0  0.5159849686210479  0.17135846006872407  0.6005031513060429  1.0000
  N   N2        1.0  0.4840254574410849  0.3286421177461492  0.10050296449441017  1.0000
  N   N3        1.0  0.484021531510379  0.8286381854676532  0.3995028053871508  1.0000
  N   N4        1.0  0.5159923192400128  0.6713640816231318  0.8994957670060018  1.0000
  N   N5        1.0  0.47383901509365955  0.37187786757445446  0.7096737400025643  1.0000
  N   N6        1.0  0.5261908526178375  0.12812114400092867  0.2096784227417672  1.0000
  N   N7        1.0  0.5261931319510254  0.6281196909997107  0.29032378734198966  1.0000
  N   N8        1.0  0.47377233354743714  0.8718765338440447  0.790316094039646  1.0000
