data_image0
_chemical_formula_structural       Al4H28C56S8N8O44
_chemical_formula_sum              "Al4 H28 C56 S8 N8 O44"
_cell_length_a       6.632182556392956
_cell_length_b       22.707978005260323
_cell_length_c       26.420403935392883
_cell_angle_alpha    100.66804629008216
_cell_angle_beta     89.99970110757877
_cell_angle_gamma    90.00126044503313

_space_group_name_H-M_alt    "P 1"
_space_group_IT_number       1

loop_
  _space_group_symop_operation_xyz
  'x, y, z'

loop_
  _atom_site_type_symbol
  _atom_site_label
  _atom_site_symmetry_multiplicity
  _atom_site_fract_x
  _atom_site_fract_y
  _atom_site_fract_z
  _atom_site_occupancy
  Al  Al1       1.0  0.7603445895299569  0.7503639698503335  0.25078846592485604  1.0000
  Al  Al2       1.0  0.20912816560547037  0.2505754842916303  0.7504765892721467  1.0000
  Al  Al3       1.0  0.2603447694629821  0.7496371837289573  0.24921128262775485  1.0000
  Al  Al4       1.0  0.7091279378334221  0.24941869176527826  0.7495211554865123  1.0000
  H   H1        1.0  0.6828674439140839  0.9505532601296308  0.4610964638790663  1.0000
  H   H2        1.0  0.3087503553908276  0.049925259744398404  0.5387024572388911  1.0000
  H   H3        1.0  0.18286840009130145  0.5494507295511397  0.038900253304582605  1.0000
  H   H4        1.0  0.8087523745056584  0.45007147122355934  0.9613002554214635  1.0000
  H   H5        1.0  0.6636628503851367  0.028646615631871007  0.5411854045885321  1.0000
  H   H6        1.0  0.3282414224405556  0.9716310478647256  0.45868463537964743  1.0000
  H   H7        1.0  0.16365637166791197  0.4713543729281469  0.9588146982148589  1.0000
  H   H8        1.0  0.8282343071631643  0.5283652484465263  0.04131929487215301  1.0000
  H   H9        1.0  0.5316254539167742  0.23298621699961328  0.9833119672026813  1.0000
  H   H10       1.0  0.486407621194722  0.7874757875671816  0.08202897883067099  1.0000
  H   H11       1.0  0.031652483464306186  0.2670041978450683  0.5166816096425323  1.0000
  H   H12       1.0  0.9864255043599142  0.7125329646373898  0.4179791645000464  1.0000
  H   H13       1.0  0.6276999714429294  0.048223777038032295  0.022302797131345604  1.0000
  H   H14       1.0  0.6376825352066503  0.9430517617511144  0.9799468854502252  1.0000
  H   H15       1.0  0.12770068663981957  0.45177191762529384  0.47769852176175936  1.0000
  H   H16       1.0  0.1376844217651438  0.5569518508469429  0.5200513224885128  1.0000
  H   H17       1.0  0.22924630375413804  0.03595174927968261  0.8857352822518509  1.0000
  H   H18       1.0  0.22828368426627313  0.974024532106412  0.11833948641405101  1.0000
  H   H19       1.0  0.729258993805601  0.4640551364898328  0.6142636609646958  1.0000
  H   H20       1.0  0.7282729409458636  0.525983069170671  0.3816583796559883  1.0000
  H   H21       1.0  0.20670794860799893  0.10521019681092271  0.8224318544934662  1.0000
  H   H22       1.0  0.2230333200881276  0.9055091896763868  0.18239948703833161  1.0000
  H   H23       1.0  0.7067156587440662  0.3947996778054375  0.6775694203395162  1.0000
  H   H24       1.0  0.723012436428277  0.5944984596132414  0.31759876643256046  1.0000
  H   H25       1.0  0.5075584872026581  0.8226035887591647  0.28035826384910933  1.0000
  H   H26       1.0  0.45651478336145584  0.1768142599632939  0.7206252867108774  1.0000
  H   H27       1.0  0.007550699425216598  0.6773975426019304  0.21963852111448293  1.0000
  H   H28       1.0  0.9565166029491149  0.3231800141772324  0.7793696522684287  1.0000
  C   C1        1.0  0.5098736341508782  0.6916762734531473  0.3182578832677977  1.0000
  C   C2        1.0  0.4594920237728031  0.30766531585495466  0.681162250637371  1.0000
  C   C3        1.0  0.009920284816843197  0.8083255558440358  0.18174005797946083  1.0000
  C   C4        1.0  0.9594846150810665  0.19233026261606062  0.8188346164954227  1.0000
  C   C5        1.0  0.5114588223593727  0.6692628873324367  0.17640872723082174  1.0000
  C   C6        1.0  0.46049121525266656  0.33055061563545246  0.8236714050865858  1.0000
  C   C7        1.0  0.011487904588619799  0.8307318630173839  0.32359110772579674  1.0000
  C   C8        1.0  0.96051341338984  0.1694403710476848  0.6763308297045543  1.0000
  C   C9        1.0  0.8080463820655764  0.01592167160305281  0.5227474646160958  1.0000
  C   C10       1.0  0.18370560877527  0.9844792848013311  0.4770134205779329  1.0000
  C   C11       1.0  0.308037508601238  0.4840721312613283  0.9772560057335796  1.0000
  C   C12       1.0  0.6836948450400868  0.515511179251007  0.022990166201879  1.0000
  C   C13       1.0  0.9850719245699363  0.04403905220492279  0.5450066355282176  1.0000
  C   C14       1.0  0.006553415940111098  0.9564792028182579  0.4547193380442849  1.0000
  C   C15       1.0  0.48505077286262815  0.45594860608680676  0.9549978830222018  1.0000
  C   C16       1.0  0.5065473816664435  0.543513239867643  0.045284337590658204  1.0000
  C   C17       1.0  0.17307186272542904  0.027727875648949414  0.5214567195766692  1.0000
  C   C18       1.0  0.818577600526254  0.9727474237429661  0.47831217291414424  1.0000
  C   C19       1.0  0.6730556468153849  0.47225907491648655  0.9785475531132877  1.0000
  C   C20       1.0  0.3185696502183646  0.527246923975589  0.0216890599128661  1.0000
  C   C21       1.0  0.9743888912300774  0.0876747903264743  0.5906140705336399  1.0000
  C   C22       1.0  0.014389728180986997  0.9129259297022045  0.40903066913255515  1.0000
  C   C23       1.0  0.4743652751438104  0.4123150703566977  0.9093823810918736  1.0000
  C   C24       1.0  0.5143846427629413  0.5870652396452058  0.09097299760967563  1.0000
  C   C25       1.0  0.014746031002623297  0.8756751259555176  0.3694272003335329  1.0000
  C   C26       1.0  0.9657261227005519  0.12491994865452945  0.6301467126436439  1.0000
  C   C27       1.0  0.5147370055640862  0.6243150832280193  0.13057607742025823  1.0000
  C   C28       1.0  0.4657049378672794  0.37507260666087916  0.869862837721364  1.0000
  C   C29       1.0  0.8334639118530162  0.16504764174154476  0.9046819316625092  1.0000
  C   C30       1.0  0.8887036283701516  0.8324517431775931  0.09508511686733813  1.0000
  C   C31       1.0  0.33348106406825195  0.3349550910126524  0.5953192556294342  1.0000
  C   C32       1.0  0.3887006184263128  0.6675525778252975  0.40491535617547203  1.0000
  C   C33       1.0  0.8397510559733162  0.12413485172767483  0.938955035597438  1.0000
  C   C34       1.0  0.8766913878577256  0.8740101439913771  0.061571636108766405  1.0000
  C   C35       1.0  0.3397644423118037  0.3758639090921463  0.5610438233581904  1.0000
  C   C36       1.0  0.37669210877248815  0.625993058754723  0.4384280680985598  1.0000
  C   C37       1.0  0.9870960414546983  0.07846707323338363  0.9325915636659092  1.0000
  C   C38       1.0  0.005418965736687699  0.9242777086030785  0.06922593085759131  1.0000
  C   C39       1.0  0.4871082690925306  0.42153200565144994  0.5674064599827062  1.0000
  C   C40       1.0  0.5054080710717271  0.5757260539781726  0.4307708660900077  1.0000
  C   C41       1.0  0.11693315767561067  0.07147425552290798  0.8901626463384674  1.0000
  C   C42       1.0  0.12986818771704378  0.9349963692781672  0.11296587719859022  1.0000
  C   C43       1.0  0.6169462359944758  0.4285269993087297  0.6098359395912711  1.0000
  C   C44       1.0  0.6298542897929094  0.5650077300138108  0.38703086455353747  1.0000
  C   C45       1.0  0.1043493478953295  0.10968895795833332  0.8551475005740771  1.0000
  C   C46       1.0  0.12805854626505206  0.8968437152105788  0.14816984254748183  1.0000
  C   C47       1.0  0.6043603526639102  0.3903143046964601  0.6448526387195558  1.0000
  C   C48       1.0  0.6280391817868247  0.6031601745289733  0.3518280535807606  1.0000
  C   C49       1.0  0.9639413972532082  0.15635363404759767  0.8617469551013814  1.0000
  C   C50       1.0  0.0087686228672865  0.8451128923280037  0.13953454280675004  1.0000
  C   C51       1.0  0.46394784328592914  0.34364834898594404  0.6382530152802134  1.0000
  C   C52       1.0  0.5087560582008237  0.6548891724170217  0.36046455437041663  1.0000
  C   C53       1.0  0.030935847870182394  0.9649861529953369  0.0324137608982795  1.0000
  C   C54       1.0  0.0232274342481134  0.03793438549454464  0.9691957308881102  1.0000
  C   C55       1.0  0.530930194180172  0.5350191356215603  0.46758533968472454  1.0000
  C   C56       1.0  0.5232415572935877  0.46206744452894805  0.5308021304507308  1.0000
  S   S1        1.0  0.6907774195848332  0.2351369334082705  0.914277633326826  1.0000
  S   S2        1.0  0.7863922414675101  0.7575647927936514  0.07669342911894012  1.0000
  S   S3        1.0  0.1907984513722383  0.2648649001684404  0.5857193821969774  1.0000
  S   S4        1.0  0.2864126915441858  0.7424406964713697  0.42330940420008295  1.0000
  S   S5        1.0  0.6488029441885813  0.12549152791262938  0.9878692787828527  1.0000
  S   S6        1.0  0.6684448927612789  0.8675232499971841  0.0159896318324613  1.0000
  S   S7        1.0  0.14880961652129085  0.3745053644190293  0.5121327376838353  1.0000
  S   S8        1.0  0.1684482589491054  0.6324783283728052  0.4840086210588695  1.0000
  N   N1        1.0  0.04889009846566238  0.9792236528183055  0.9494956296851458  1.0000
  N   N2        1.0  0.06587917181260389  0.0234432234458239  0.05145206890814791  1.0000
  N   N3        1.0  0.5488927841364485  0.5207790451382552  0.5505029996224807  1.0000
  N   N4        1.0  0.5658940091378071  0.4765623765838498  0.44854585626303134  1.0000
  N   N5        1.0  0.056425837384068686  0.9414345566762207  0.9818935437895963  1.0000
  N   N6        1.0  0.06589599931722029  0.06121674231133059  0.019002908235364702  1.0000
  N   N7        1.0  0.5564154365555749  0.5585694297711042  0.5181047026754656  1.0000
  N   N8        1.0  0.565914876598647  0.4387883362246043  0.48099462993554465  1.0000
  O   O1        1.0  0.33883142598574506  0.6877503373863831  0.19365825154375227  1.0000
  O   O2        1.0  0.6299296609066686  0.3126184132360946  0.8039417985520246  1.0000
  O   O3        1.0  0.8388334069244079  0.8122490949406397  0.3063372212017229  1.0000
  O   O4        1.0  0.12995474639402  0.18737459257907577  0.6960590558034314  1.0000
  O   O5        1.0  0.6827947008245088  0.7039421930540894  0.30273054036974406  1.0000
  O   O6        1.0  0.28770791033537785  0.2978618671576426  0.6989421824890272  1.0000
  O   O7        1.0  0.18280996459074567  0.7960609589913189  0.1972684821959518  1.0000
  O   O8        1.0  0.7877046029311426  0.20213083074848023  0.8010524418672135  1.0000
  O   O9        1.0  0.6803961483878209  0.6868927465542567  0.19666495036685924  1.0000
  O   O10       1.0  0.28806332027865267  0.31311522666905495  0.8056340386762245  1.0000
  O   O11       1.0  0.18040014494030024  0.8131052264304729  0.3033367452877514  1.0000
  O   O12       1.0  0.7880789678775598  0.1868796851145476  0.6943648276827831  1.0000
  O   O13       1.0  0.8394023350990734  0.798624398469542  0.2001705182728557  1.0000
  O   O14       1.0  0.13061932656323447  0.20436239315364446  0.8022044286321092  1.0000
  O   O15       1.0  0.3393843003782351  0.7013733994493805  0.2998276410452122  1.0000
  O   O16       1.0  0.6306115454057775  0.295627523737501  0.6977921795868341  1.0000
  O   O17       1.0  0.51000754603497  0.7867671220707704  0.2537488043386134  1.0000
  O   O18       1.0  0.45854241000411367  0.2132522077124719  0.746550377027873  1.0000
  O   O19       1.0  0.010005003724607798  0.7132322250038641  0.24624989609132805  1.0000
  O   O20       1.0  0.9585389250346946  0.2867400004005773  0.7534472460520195  1.0000
  O   O21       1.0  0.8335451534716893  0.27861971095941834  0.9036502513295092  1.0000
  O   O22       1.0  0.4973643571471626  0.22614319193340288  0.8898565872043351  1.0000
  O   O23       1.0  0.6595418947429578  0.2515236663162099  0.9754370327409208  1.0000
  O   O24       1.0  0.7735338173191906  0.7461247252549723  0.021431549971623595  1.0000
  O   O25       1.0  0.9015471824335605  0.7189467534904779  0.10266922697902461  1.0000
  O   O26       1.0  0.5667028059251322  0.761902503131843  0.10115473185425118  1.0000
  O   O27       1.0  0.33356266474430635  0.22138108978076332  0.5963459253170174  1.0000
  O   O28       1.0  0.9973716558902834  0.2738501247471277  0.6101325570439898  1.0000
  O   O29       1.0  0.1595884696962457  0.24848153486630767  0.52455808702819  1.0000
  O   O30       1.0  0.2735691695768664  0.7538859729173454  0.4785713109888832  1.0000
  O   O31       1.0  0.4015755963886746  0.7810553631739053  0.39733084618138287  1.0000
  O   O32       1.0  0.06672338935958069  0.7381045450812564  0.39885167119851433  1.0000
  O   O33       1.0  0.7181415553783665  0.1514210382647434  0.03855527239256421  1.0000
  O   O34       1.0  0.4629178618121798  0.1450483898781201  0.9680214844262596  1.0000
  O   O35       1.0  0.6211848758583894  0.053702845125407433  0.986309409059132  1.0000
  O   O36       1.0  0.7171367935716473  0.8409113307776863  0.9641047678423081  1.0000
  O   O37       1.0  0.4967885221318367  0.8489713940122173  0.0428587148269699  1.0000
  O   O38       1.0  0.6256230871231521  0.938539697931148  0.016087088442994002  1.0000
  O   O39       1.0  0.21812113277005804  0.348577219191732  0.46144293761595634  1.0000
  O   O40       1.0  0.9629252950947486  0.3549544395248461  0.5319846469148574  1.0000
  O   O41       1.0  0.12121358360130327  0.4462974817073757  0.5136930191454355  1.0000
  O   O42       1.0  0.21715672968053204  0.6590946221702793  0.5358937985555202  1.0000
  O   O43       1.0  0.9968009680212899  0.6510319566104597  0.45714016575182376  1.0000
  O   O44       1.0  0.1256059571246411  0.5614653815138766  0.4839123530088828  1.0000
