data_image0
_chemical_formula_structural       Cu4H32C48S4N12O4
_chemical_formula_sum              "Cu4 H32 C48 S4 N12 O4"
_cell_length_a       8.070582579001417
_cell_length_b       10.939824469001136
_cell_length_c       13.350757745001763
_cell_angle_alpha    90.00002830220022
_cell_angle_beta     90.00005155867088
_cell_angle_gamma    89.99995587259609

_space_group_name_H-M_alt    "P 1"
_space_group_IT_number       1

loop_
  _space_group_symop_operation_xyz
  'x, y, z'

loop_
  _atom_site_type_symbol
  _atom_site_label
  _atom_site_symmetry_multiplicity
  _atom_site_fract_x
  _atom_site_fract_y
  _atom_site_fract_z
  _atom_site_occupancy
  Cu  Cu1       1.0  0.7323008187658786  0.06578535174184451  0.7500003390417689  1.0000
  Cu  Cu2       1.0  0.767699117862705  0.5657813296597779  0.250000364956783  1.0000
  Cu  Cu3       1.0  0.2323020259206316  0.43422010774889935  0.7500002773294626  1.0000
  Cu  Cu4       1.0  0.2677102375640885  0.9342087729321875  0.24999955422453723  1.0000
  H   H1        1.0  0.7902757286800225  0.060859360752537804  0.9625628206178334  1.0000
  H   H2        1.0  0.7097254521403826  0.5608579852861837  0.0374371323753948  1.0000
  H   H3        1.0  0.2902728969747841  0.4391460656916166  0.5374363292361224  1.0000
  H   H4        1.0  0.20973192697189796  0.9391394630845863  0.4625605082172087  1.0000
  H   H5        1.0  0.2097291323090644  0.9391393343809539  0.0374385706900213  1.0000
  H   H6        1.0  0.2902744525747138  0.4391461943976438  0.9625650079533727  1.0000
  H   H7        1.0  0.7097294858755135  0.5608571998996014  0.4625643130508266  1.0000
  H   H8        1.0  0.7902729340144036  0.06085923204777541  0.5374371379848668  1.0000
  H   H9        1.0  0.5562891366563959  0.7416589343165043  0.08810316514301059  1.0000
  H   H10       1.0  0.9437118560317118  0.24165562118525227  0.9118983587494968  1.0000
  H   H11       1.0  0.056284572563122  0.7583486565275874  0.41189888613853043  1.0000
  H   H12       1.0  0.44370928790805664  0.25834149097347137  0.5881023725820995  1.0000
  H   H13       1.0  0.443704572719149  0.2583397608192612  0.9118952300771852  1.0000
  H   H14       1.0  0.05628309241065921  0.7583494725912058  0.0881030325569512  1.0000
  H   H15       1.0  0.9437116149478727  0.2416518667905905  0.5881002581038643  1.0000
  H   H16       1.0  0.5562906168081413  0.7416562900693081  0.4118967716607571  1.0000
  H   H17       1.0  0.44728029699678024  0.6960881005053565  0.9145858032423178  1.0000
  H   H18       1.0  0.0527198235965756  0.19608725209364053  0.08541468137077861  1.0000
  H   H19       1.0  0.9472736406937373  0.8039140856619369  0.5854158805375107  1.0000
  H   H20       1.0  0.5527161355998587  0.30391435065138944  0.41458491941867953  1.0000
  H   H21       1.0  0.5527183686493445  0.3039105946285403  0.08541109393691221  1.0000
  H   H22       1.0  0.947275124846975  0.8039123571334414  0.9145844628710975  1.0000
  H   H23       1.0  0.05272130775092881  0.19608552356560693  0.4145847617466742  1.0000
  H   H24       1.0  0.44728129097961766  0.6960861726666606  0.5854149738452108  1.0000
  H   H25       1.0  0.732078099766767  0.9304407134644492  0.1107281840150733  1.0000
  H   H26       1.0  0.7679214574118803  0.43043840093006475  0.8892726669301254  1.0000
  H   H27       1.0  0.23207741562504938  0.5695667771733568  0.3892717157962053  1.0000
  H   H28       1.0  0.26792283662489075  0.06955698324927079  0.61072572174578  1.0000
  H   H29       1.0  0.26791932681508973  0.0695552393963581  0.8892717092479003  1.0000
  H   H30       1.0  0.23207844730274016  0.569566692845207  0.1107294733988269  1.0000
  H   H31       1.0  0.7679237281566103  0.4304346602346385  0.6107266794265698  1.0000
  H   H32       1.0  0.7320795462270696  0.9304398837011262  0.38927267347641253  1.0000
  C   C1        1.0  0.4894146142267958  0.8209730406056153  0.7500004251625755  1.0000
  C   C2        1.0  0.0105853764151078  0.3209723158671594  0.2500001097758258  1.0000
  C   C3        1.0  0.9894132892334115  0.6790282074509975  0.7500012815307144  1.0000
  C   C4        1.0  0.5105865295555035  0.1790293108942791  0.2499994681026934  1.0000
  C   C5        1.0  0.5624217923767033  0.8541353736710919  0.849745351979287  1.0000
  C   C6        1.0  0.9375790832710323  0.3541316028653014  0.15025471919580008  1.0000
  C   C7        1.0  0.06241943384706871  0.6458661177833632  0.6502561225196146  1.0000
  C   C8        1.0  0.4375757827338873  0.14586338185852551  0.3497428438113417  1.0000
  C   C9        1.0  0.4375781123378957  0.14586332146267716  0.1502522942214384  1.0000
  C   C10       1.0  0.062419582377792424  0.6458661781780535  0.8497451740678771  1.0000
  C   C11       1.0  0.9375804708707138  0.3541307491684194  0.34974451976537324  1.0000
  C   C12       1.0  0.5624228829138218  0.8541343991843746  0.6502555514100195  1.0000
  C   C13       1.0  0.7150117819514962  0.9786382738535551  0.9553169544107973  1.0000
  C   C14       1.0  0.7849889641446172  0.4786345261062124  0.044686163020237805  1.0000
  C   C15       1.0  0.21501063483610494  0.5213658728951316  0.5446868501292528  1.0000
  C   C16       1.0  0.2849909066364376  0.0213614596883289  0.4553120660327963  1.0000
  C   C17       1.0  0.28498564463147597  0.021357679007714105  0.04468443689448521  1.0000
  C   C18       1.0  0.2150121796407802  0.5213650831200098  0.9553159773079472  1.0000
  C   C19       1.0  0.7849917480171342  0.4786328222390706  0.4553145411779269  1.0000
  C   C20       1.0  0.7150114762135402  0.9786381495361881  0.544685580168789  1.0000
  C   C21       1.0  0.5847021252436307  0.8009231120514354  0.0247914225749355  1.0000
  C   C22       1.0  0.9153000448427947  0.3009198534504804  0.9752086271574784  1.0000
  C   C23       1.0  0.08469523896334152  0.6990826344146938  0.4752121421986004  1.0000
  C   C24       1.0  0.4152962050450029  0.1990736185380868  0.5247913397018422  1.0000
  C   C25       1.0  0.4152953013355187  0.19907375489991347  0.975205474603598  1.0000
  C   C26       1.0  0.0846961426665302  0.6990806698670227  0.0247882700214461  1.0000
  C   C27       1.0  0.9153009485494081  0.3009188029958453  0.5247899981286039  1.0000
  C   C28       1.0  0.5847012215369319  0.8009232484143993  0.4752093025824707  1.0000
  C   C29       1.0  0.5240826529649925  0.7757155033816189  0.9296396673621742  1.0000
  C   C30       1.0  0.9759195433516795  0.2757144046203379  0.070361870255006  1.0000
  C   C31       1.0  0.0240800938613432  0.7242860099267929  0.5703602882459577  1.0000
  C   C32       1.0  0.47591628018368237  0.224286042797516  0.42963721164468893  1.0000
  C   C33       1.0  0.47591725175089294  0.22428501993596228  0.0703609749235525  1.0000
  C   C34       1.0  0.024081600434279003  0.7242852046061117  0.9296410190943334  1.0000
  C   C35       1.0  0.9759185717859823  0.2757135992992303  0.42963885599693447  1.0000
  C   C36       1.0  0.5240848635979773  0.7757153946104722  0.5703611835780863  1.0000
  C   C37       1.0  0.6816194954843483  0.9054850951575946  0.0379255559650389  1.0000
  C   C38       1.0  0.8183788485949678  0.4054827979425609  0.9620760339445412  1.0000
  C   C39       1.0  0.18161517658258222  0.5945224242442534  0.4620750654275625  1.0000
  C   C40       1.0  0.318382571563717  0.09451529974904818  0.5379246292342117  1.0000
  C   C41       1.0  0.318379170164647  0.09451451406911099  0.9620758353413166  1.0000
  C   C42       1.0  0.18161609984946378  0.5945204676514564  0.0379268554038532  1.0000
  C   C43       1.0  0.8183822499965033  0.40547992725692683  0.5379255768578517  1.0000
  C   C44       1.0  0.6816210503557727  0.9054833953841168  0.46207451500983865  1.0000
  C   C45       1.0  0.09791409381968211  0.17311906457628373  0.749999439160554  1.0000
  C   C46       1.0  0.40209720229364626  0.6731021686068244  0.2500002871752898  1.0000
  C   C47       1.0  0.5979138540387015  0.3268873856099646  0.7499996060900997  1.0000
  C   C48       1.0  0.9020796155569785  0.8268796305599366  0.2500004541019578  1.0000
  S   S1        1.0  0.017809663193624203  0.0355391834269554  0.7499978916177596  1.0000
  S   S2        1.0  0.4821968198077898  0.5355231558890592  0.2500002812336035  1.0000
  S   S3        1.0  0.5178055630471833  0.4644700546959939  0.7499996120301589  1.0000
  S   S4        1.0  0.982197675928049  0.9644604257961475  0.2499997545851755  1.0000
  N   N1        1.0  0.6585350093979798  0.9542439032826308  0.862269781032431  1.0000
  N   N2        1.0  0.8414657620783146  0.4542410937715787  0.1377288324415815  1.0000
  N   N3        1.0  0.1585314973176111  0.5457611897505713  0.6377309967110705  1.0000
  N   N4        1.0  0.34146754063427665  0.045758516195491  0.3622694273236249  1.0000
  N   N5        1.0  0.3414673734527939  0.04575844821714269  0.1377308612543331  1.0000
  N   N6        1.0  0.15853166450068562  0.5457603436379229  0.8622710608224934  1.0000
  N   N7        1.0  0.8414696464663578  0.45424116175000506  0.36227114361766166  1.0000
  N   N8        1.0  0.6585348422158576  0.9542429212123761  0.6377297169206456  1.0000
  N   N9        1.0  0.15835329766758832  0.2717952192634172  0.7500002244967447  1.0000
  N   N10       1.0  0.3416603738998489  0.7717829282020645  0.24999954160453802  1.0000
  N   N11       1.0  0.6583494433597394  0.22821485283788687  0.7499996026410116  1.0000
  N   N12       1.0  0.8416466070449644  0.7282117026943025  0.2500004177902682  1.0000
  O   O1        1.0  0.3645413829337798  0.7554957916175054  0.7500011270385656  1.0000
  O   O2        1.0  0.13546363211581544  0.2554904252387757  0.2499993815146695  1.0000
  O   O3        1.0  0.8645350335335706  0.7445073558048064  0.750001260770162  1.0000
  O   O4        1.0  0.6354597608474819  0.24450747397361278  0.24999801720572631  1.0000
