data_image0
_chemical_formula_structural       Cu3H72C120N24
_chemical_formula_sum              "Cu3 H72 C120 N24"
_cell_length_a       9.308154767026542
_cell_length_b       19.561741805761265
_cell_length_c       19.56009146923914
_cell_angle_alpha    117.54048052138381
_cell_angle_beta     99.1231689204229
_cell_angle_gamma    99.12699178902788

_space_group_name_H-M_alt    "P 1"
_space_group_IT_number       1

loop_
  _space_group_symop_operation_xyz
  'x, y, z'

loop_
  _atom_site_type_symbol
  _atom_site_label
  _atom_site_symmetry_multiplicity
  _atom_site_fract_x
  _atom_site_fract_y
  _atom_site_fract_z
  _atom_site_occupancy
  Cu  Cu1       1.0  0.500002370933238  0.5000044379168783  0.49999953984841733  1.0000
  Cu  Cu2       1.0  3.528551140173916e-06  0.5000010644335973  2.858956349952488e-06  1.0000
  Cu  Cu3       1.0  0.9999995470586782  0.9999973147823268  0.4999974318563503  1.0000
  H   H1        1.0  0.06717678117730934  0.4985347150903578  0.6445295609582614  1.0000
  H   H2        1.0  0.42252643115681815  0.3554865597546524  0.8540022273199525  1.0000
  H   H3        1.0  0.5686737389969352  0.1460037563946983  0.5015437672223939  1.0000
  H   H4        1.0  0.9328174498145287  0.5014639963066614  0.35546197432645943  1.0000
  H   H5        1.0  0.5774787513321298  0.6445211211436683  0.14600502567034804  1.0000
  H   H6        1.0  0.4313262624402583  0.853991368538246  0.49845575733925074  1.0000
  H   H7        1.0  0.09675135323616499  0.3476234586657442  0.5770967601690487  1.0000
  H   H8        1.0  0.5194493954223561  0.4230380317968495  0.7706010341755841  1.0000
  H   H9        1.0  0.7487631969867083  0.229271190650465  0.6525339452690062  1.0000
  H   H10       1.0  0.9032433446217779  0.6523740573428328  0.4228983489911968  1.0000
  H   H11       1.0  0.4805530217447825  0.5769684531569227  0.2294039207326577  1.0000
  H   H12       1.0  0.25123890291155954  0.7707281194535439  0.3474666501236214  1.0000
  H   H13       1.0  0.44144046904519035  0.1949102515484498  0.4041856906222279  1.0000
  H   H14       1.0  0.037208775517711845  0.5958817232460659  0.7907956522552694  1.0000
  H   H15       1.0  0.2465160906397443  0.2092401110787065  0.8051253386287555  1.0000
  H   H16       1.0  0.5585617531331407  0.805091449886916  0.595813462012451  1.0000
  H   H17       1.0  0.962797790264027  0.40411997834354435  0.20920536744772272  1.0000
  H   H18       1.0  0.7534798457293518  0.790755611948292  0.19487619517877164  1.0000
  H   H19       1.0  0.6692595666830314  0.23493839401918853  0.34955206718179704  1.0000
  H   H20       1.0  0.3195381553931326  0.6506150316370237  0.8855809282491476  1.0000
  H   H21       1.0  0.4342148744961847  0.11452772732440049  0.7650765148644608  1.0000
  H   H22       1.0  0.33074198863455706  0.7650662966426935  0.6504458582017988  1.0000
  H   H23       1.0  0.6804678162366213  0.34939205136615203  0.11442610923428018  1.0000
  H   H24       1.0  0.5657737142194819  0.8854620168403996  0.23492271721570995  1.0000
  H   H25       1.0  0.9438557176249844  0.094357025688474  0.4014354137290254  1.0000
  H   H26       1.0  0.5426845208911145  0.5987306473534701  0.6929702142301223  1.0000
  H   H27       1.0  0.8493127286944073  0.307044050677561  0.9056836263087219  1.0000
  H   H28       1.0  0.05614713078087861  0.9056392937796574  0.5985520996143805  1.0000
  H   H29       1.0  0.4573183739798665  0.40126806475471705  0.30702914356275807  1.0000
  H   H30       1.0  0.15069744010492764  0.6929540642953498  0.09432368256737782  1.0000
  H   H31       1.0  0.04386125246984556  0.22174747118243227  0.40195434463449686  1.0000
  H   H32       1.0  0.6421672597852391  0.5982516161024094  0.8198948737615338  1.0000
  H   H33       1.0  0.8219418807496552  0.18009344056752496  0.7783188791459635  1.0000
  H   H34       1.0  0.956141973423712  0.7782518382680337  0.5980396906366678  1.0000
  H   H35       1.0  0.35783574861793  0.4017494874881392  0.18010457441270225  1.0000
  H   H36       1.0  0.17806829679755498  0.8199046742543885  0.22168689659081758  1.0000
  H   H37       1.0  0.44469118956408954  0.26576094243792875  0.5772586803246966  1.0000
  H   H38       1.0  0.8672589708851601  0.42270054703349297  0.6885047171510833  1.0000
  H   H39       1.0  0.1787748414580505  0.3113017141879836  0.7342418932840004  1.0000
  H   H40       1.0  0.5553106405467503  0.7342377692667696  0.4227365056144166  1.0000
  H   H41       1.0  0.13275363906165427  0.5773023502514291  0.31149629584852784  1.0000
  H   H42       1.0  0.8212207415771147  0.6886975957098114  0.2657561570293722  1.0000
  H   H43       1.0  0.3272448867170255  0.136641707067902  0.5696053533747687  1.0000
  H   H44       1.0  0.757596347810022  0.43037792702764927  0.5670632432961256  1.0000
  H   H45       1.0  0.19041349192283252  0.43281438805807676  0.863323943355219  1.0000
  H   H46       1.0  0.6727566561106214  0.863356406539502  0.43038748938946003  1.0000
  H   H47       1.0  0.24241596027381007  0.5696243724116457  0.4329379817608086  1.0000
  H   H48       1.0  0.8095856543228237  0.5671855197381177  0.13667465639402104  1.0000
  H   H49       1.0  0.18594979019082558  0.7927779659263053  0.845516858617735  1.0000
  H   H50       1.0  0.3407841302977205  0.1543111212559651  0.9471121785461774  1.0000
  H   H51       1.0  0.393702059625042  0.052906960930599184  0.20715349684758877  1.0000
  H   H52       1.0  0.8140505897503874  0.2072243327993917  0.1544762934842865  1.0000
  H   H53       1.0  0.6592269594964434  0.8456953642579703  0.05289906573089802  1.0000
  H   H54       1.0  0.6062903164495167  0.947088164147665  0.7928469764776265  1.0000
  H   H55       1.0  0.3543221708389622  0.7212383060956497  0.7670498500516202  1.0000
  H   H56       1.0  0.5876253947506385  0.2327492817344279  0.954036148611806  1.0000
  H   H57       1.0  0.6335837450054669  0.04595975663414009  0.2786837542810616  1.0000
  H   H58       1.0  0.6456739198857379  0.2787598077090365  0.232944619487121  1.0000
  H   H59       1.0  0.4123825647239627  0.7672595949071025  0.04597135827480508  1.0000
  H   H60       1.0  0.36640982977313996  0.9540377599776377  0.7213174039542095  1.0000
  H   H61       1.0  0.9603818415455835  0.578867949805499  0.5669091765213848  1.0000
  H   H62       1.0  0.3938700483384636  0.4328750507387297  0.011833383714815637  1.0000
  H   H63       1.0  0.38191234227069504  0.9882737339019698  0.4210600396755241  1.0000
  H   H64       1.0  0.039614482075407284  0.4211349468632547  0.43308445168720056  1.0000
  H   H65       1.0  0.6061315592761645  0.5671320324625313  0.9881753640253662  1.0000
  H   H66       1.0  0.6180800454677069  0.011721390974955202  0.5789383894639355  1.0000
  H   H67       1.0  0.8102393873058843  0.6580818077662512  0.6522756453277976  1.0000
  H   H68       1.0  0.15840280805637258  0.34755961176247036  0.00573203171778395  1.0000
  H   H69       1.0  0.1525727341911604  0.994373524287191  0.34180778765856695  1.0000
  H   H70       1.0  0.18976012286399419  0.3419252740743701  0.3477191371940194  1.0000
  H   H71       1.0  0.8416041264651781  0.6524450799604792  0.9942770430522855  1.0000
  H   H72       1.0  0.8474215249439399  0.0056210027960688  0.6581915315491429  1.0000
  C   C1        1.0  0.24353191675241692  0.5177089577958467  0.5838548276470518  1.0000
  C   C2        1.0  0.6596192662078054  0.4161292320503946  0.9338294624639331  1.0000
  C   C3        1.0  0.7258326582023854  0.06616262055760562  0.4823057969356341  1.0000
  C   C4        1.0  0.7564672469889897  0.48229094969834546  0.41614070582355805  1.0000
  C   C5        1.0  0.34038690833254037  0.5838760570643727  0.06617471734861624  1.0000
  C   C6        1.0  0.2741688525497138  0.9338354936034747  0.517692667339432  1.0000
  C   C7        1.0  0.13978285137458354  0.473670504984355  0.6065097692367941  1.0000
  C   C8        1.0  0.533123641783483  0.39350795612187983  0.8671671392489272  1.0000
  C   C9        1.0  0.6660463181083429  0.13280938808641451  0.5264235932667134  1.0000
  C   C10       1.0  0.8602099867504904  0.5263276086165619  0.3934824056694309  1.0000
  C   C11       1.0  0.4668824221406425  0.606494941460177  0.1328364391358221  1.0000
  C   C12       1.0  0.3339568582139094  0.8671899222197369  0.4735791297939257  1.0000
  C   C13       1.0  0.15523794584630926  0.39752194100005067  0.5727774835931356  1.0000
  C   C14       1.0  0.5822599863900635  0.42731052536939274  0.8247934915004719  1.0000
  C   C15       1.0  0.7574514147391936  0.1751029113070217  0.6026032537326315  1.0000
  C   C16       1.0  0.8447614935144472  0.6024785647927684  0.42722243723811437  1.0000
  C   C17       1.0  0.417739061729307  0.5726935679485763  0.17520958944032822  1.0000
  C   C18       1.0  0.24254850606746442  0.8248963988456949  0.39739768574193574  1.0000
  C   C19       1.0  0.2688803022146685  0.39493532288082633  0.5296305320609206  1.0000
  C   C20       1.0  0.7390533531024559  0.4704347192397406  0.8653351919817069  1.0000
  C   C21       1.0  0.8736886014852344  0.1345310094502565  0.6051428057377777  1.0000
  C   C22       1.0  0.7311166591074638  0.6050645850647455  0.4703694338631407  1.0000
  C   C23       1.0  0.2609508365090036  0.5295687761863234  0.13466800738122225  1.0000
  C   C24       1.0  0.12631102912228426  0.8654677026554934  0.39485630160834956  1.0000
  C   C25       1.0  0.32178125862085943  0.32764035678997055  0.49000164399128465  1.0000
  C   C26       1.0  0.8315902194546965  0.5100694549491606  0.837688115047321  1.0000
  C   C27       1.0  0.9939413212122548  0.1621834509480209  0.67240572447745  1.0000
  C   C28       1.0  0.678217591593736  0.6723589530599272  0.5099961457223968  1.0000
  C   C29       1.0  0.1684149563762389  0.4899316487940127  0.16231303323073837  1.0000
  C   C30       1.0  0.006061074717074085  0.837816457102278  0.32759568095074326  1.0000
  C   C31       1.0  0.43729638268594334  0.32384707944933666  0.4514269344374923  1.0000
  C   C32       1.0  0.985671363274129  0.5486654443618377  0.8724979966889775  1.0000
  C   C33       1.0  0.11333464225474188  0.12747099516184335  0.6762034795440783  1.0000
  C   C34       1.0  0.5627055434613197  0.6761540240397323  0.5485714081616209  1.0000
  C   C35       1.0  0.014335800401646259  0.451337453019697  0.12750362099226453  1.0000
  C   C36       1.0  0.8866646748259583  0.8725271192996188  0.32379788404512055  1.0000
  C   C37       1.0  0.4883502170063422  0.2527914499182059  0.41095732336948726  1.0000
  C   C38       1.0  0.07722038595943556  0.5891748149697733  0.8419528509846258  1.0000
  C   C39       1.0  0.235452309905547  0.15808743157440824  0.7472566088878665  1.0000
  C   C40       1.0  0.5116541842635911  0.7472102514684451  0.5890414851832517  1.0000
  C   C41       1.0  0.9227864787693248  0.41082748451579926  0.15804846770749487  1.0000
  C   C42       1.0  0.764541743403008  0.8419088894475877  0.25274607903716617  1.0000
  C   C43       1.0  0.6029369294224693  0.27287804462989834  0.38249333427261684  1.0000
  C   C44       1.0  0.22020662575916106  0.6176784227018005  0.8905528728527159  1.0000
  C   C45       1.0  0.3299075152627182  0.1095073912889433  0.7271576354466233  1.0000
  C   C46       1.0  0.39706232743940717  0.7271242546989924  0.6175058669044303  1.0000
  C   C47       1.0  0.7798018026714005  0.38232268124514945  0.1094505700578594  1.0000
  C   C48       1.0  0.6700845618648259  0.8904871358933661  0.2728425388894635  1.0000
  C   C49       1.0  0.6217651404274704  0.3561530692049928  0.40510387614421717  1.0000
  C   C50       1.0  0.21637916659322087  0.595000088585799  0.9511779645288101  1.0000
  C   C51       1.0  0.2654171124027798  0.048814776625626194  0.6438782372877583  1.0000
  C   C52       1.0  0.37823501619143224  0.6438510237614564  0.5948957109537644  1.0000
  C   C53       1.0  0.7836258034111623  0.4050028090961177  0.04882655246657212  1.0000
  C   C54       1.0  0.7345777562902072  0.9511809460482183  0.35611963571243876  1.0000
  C   C55       1.0  0.26729610447517854  0.5997975997764015  0.6107324029516404  1.0000
  C   C56       1.0  0.6567939143555819  0.3891486862369291  0.9889637924870127  1.0000
  C   C57       1.0  0.6677481767602345  0.011091235477898899  0.4001740859000051  1.0000
  C   C58       1.0  0.73270395319134  0.40020410145601193  0.3892645385327781  1.0000
  C   C59       1.0  0.3432057141620745  0.6108566031749731  0.011042952710681734  1.0000
  C   C60       1.0  0.3322480702197197  0.9889050852437153  0.5998257027108879  1.0000
  C   C61       1.0  0.054424563667623695  0.13438042294497174  0.4399568879425573  1.0000
  C   C62       1.0  0.614656469945963  0.5601845244080933  0.6944824365876912  1.0000
  C   C63       1.0  0.9198423389302092  0.305488757734949  0.8656473084434496  1.0000
  C   C64       1.0  0.9455754037943863  0.8656188864023945  0.5600358747889799  1.0000
  C   C65       1.0  0.3853465238774092  0.43981657943412955  0.30551956681874504  1.0000
  C   C66       1.0  0.08016350084550784  0.6945093568320431  0.1343555781321299  1.0000
  C   C67       1.0  0.10946232085571239  0.20513844044846508  0.44046719710956234  1.0000
  C   C68       1.0  0.6691220127239176  0.5596792955157284  0.7647433263740451  1.0000
  C   C69       1.0  0.9040897259729236  0.23521440693744466  0.7948913504323798  1.0000
  C   C70       1.0  0.890536555602516  0.7948608689484259  0.5595259931861633  1.0000
  C   C71       1.0  0.3308831660229784  0.44032180817711003  0.23525731085757684  1.0000
  C   C72       1.0  0.09591521112980658  0.7647819140423309  0.20511166126870956  1.0000
  C   C73       1.0  0.2529421667592686  0.25364261714680236  0.48983285928985504  1.0000
  C   C74       1.0  0.7630217968359573  0.5102210875157097  0.7638516819121008  1.0000
  C   C75       1.0  0.9991285874863609  0.2360346417019272  0.7463946495166098  1.0000
  C   C76       1.0  0.7470577832069836  0.7463566925025731  0.5101629697203193  1.0000
  C   C77       1.0  0.2369852620555192  0.4897794182324587  0.2361483122484599  1.0000
  C   C78       1.0  0.0008737967791318044  0.763965266549711  0.2536088000973393  1.0000
  C   C79       1.0  0.3329178646692696  0.2292196644936411  0.5376485981680617  1.0000
  C   C80       1.0  0.7951494531642495  0.4623442140652898  0.6916072892615189  1.0000
  C   C81       1.0  0.10351165144096798  0.3082548996313506  0.7707697594518592  1.0000
  C   C82       1.0  0.6670861387012506  0.770779047263012  0.462347265781993  1.0000
  C   C83       1.0  0.20486146205281838  0.5376574875779029  0.3083945754169121  1.0000
  C   C84       1.0  0.896487979166551  0.6917438124743995  0.2292293478942682  1.0000
  C   C85       1.0  0.26808870597370316  0.15758604791103178  0.533215919938435  1.0000
  C   C86       1.0  0.7348191801409597  0.4667861506413828  0.624405248106811  1.0000
  C   C87       1.0  0.11027973337975536  0.37549222392080145  0.8423850932820754  1.0000
  C   C88       1.0  0.7319139191098502  0.8424120657978449  0.46677802840092397  1.0000
  C   C89       1.0  0.26519035387318723  0.533214953004368  0.37559521200736873  1.0000
  C   C90       1.0  0.8897175298053597  0.6245082818703978  0.1576146605846701  1.0000
  C   C91       1.0  0.13946889887930053  0.7453599615433288  0.783068223166559  1.0000
  C   C92       1.0  0.3567688852116007  0.21675508102139668  0.962148975634811  1.0000
  C   C93       1.0  0.39461604067801664  0.0379152879546751  0.2545906567563918  1.0000
  C   C94       1.0  0.8605294728053536  0.2546405438963433  0.21692803685736098  1.0000
  C   C95       1.0  0.6432386559518761  0.7832508063424725  0.037859163974189855  1.0000
  C   C96       1.0  0.6053772322376074  0.9620816308114752  0.7454107135361878  1.0000
  C   C97       1.0  0.23359940419328484  0.7051591366923302  0.7395457270905438  1.0000
  C   C98       1.0  0.49441247674774763  0.2602589728477441  0.9654530220240218  1.0000
  C   C99       1.0  0.5289296303668395  0.0345905947052074  0.2947885089545039  1.0000
  C   C100      1.0  0.7663983695973258  0.2948401729554249  0.2604499349551331  1.0000
  C   C101      1.0  0.5055898239712491  0.7397451206739944  0.03455235354929435  1.0000
  C   C102      1.0  0.4710637473330903  0.9654087156943091  0.7052144848587643  1.0000
  C   C103      1.0  0.17115964333912348  0.6434923392301143  0.6598915592615454  1.0000
  C   C104      1.0  0.5116404768164529  0.33990987653078975  0.9834883691791418  1.0000
  C   C105      1.0  0.5280731436174833  0.0166068057956537  0.3564445312327037  1.0000
  C   C106      1.0  0.8288387312614844  0.3565081661592302  0.34010418971593737  1.0000
  C   C107      1.0  0.488363330301496  0.6600972062694197  0.01651645715403295  1.0000
  C   C108      1.0  0.47192122321788327  0.983390112870637  0.6435559004492503  1.0000
  C   C109      1.0  0.01537668014451289  0.6258753032531743  0.6284531991887758  1.0000
  C   C110      1.0  0.3872982377422076  0.3713378483242379  0.9973029822253208  1.0000
  C   C111      1.0  0.38989861160246875  0.002810674102590799  0.3740563148903745  1.0000
  C   C112      1.0  0.9846198230593973  0.3741257999298355  0.3715416597204495  1.0000
  C   C113      1.0  0.612706050821636  0.628668038835869  0.0027028627511712236  1.0000
  C   C114      1.0  0.6101009956773709  0.997188038405831  0.6259468808272642  1.0000
  C   C115      1.0  0.9312958738654232  0.6705304050453619  0.6766112190392946  1.0000
  C   C116      1.0  0.25512112433058576  0.32321417256812174  0.9938328999524799  1.0000
  C   C117      1.0  0.2612018167240606  0.0062783755362972  0.32936872811814055  1.0000
  C   C118      1.0  0.06870154075934207  0.3294724915738669  0.32338198160510245  1.0000
  C   C119      1.0  0.7448825459275027  0.6767905191523981  0.006175924370843649  1.0000
  C   C120      1.0  0.738795016486094  0.9937191411785805  0.6706337026567581  1.0000
  N   N1        1.0  0.5187818721310151  0.3856602619828777  0.44643978619561137  1.0000
  N   N2        1.0  0.0721211849486494  0.5536052734797963  0.9392763183821058  1.0000
  N   N3        1.0  0.1329978391502351  0.060672094424766995  0.6143767430085063  1.0000
  N   N4        1.0  0.48122075961055805  0.6143444288811537  0.5535602668559889  1.0000
  N   N5        1.0  0.9278825921836072  0.4463952325679372  0.06072649161033877  1.0000
  N   N6        1.0  0.8669987184405769  0.9393248239914768  0.3856213004057522  1.0000
  N   N7        1.0  0.3199478317547245  0.4683270110198876  0.5365445419591808  1.0000
  N   N8        1.0  0.7832766994624407  0.46349612013644753  0.9317949418265669  1.0000
  N   N9        1.0  0.8514827873497737  0.06814138717582101  0.5316919931414574  1.0000
  N   N10       1.0  0.6800532179631915  0.5316722984289584  0.46344932634748653  1.0000
  N   N11       1.0  0.21672767264789158  0.5365055817535519  0.06820897719056514  1.0000
  N   N12       1.0  0.14851950962717086  0.9318561291404421  0.4683067666731731  1.0000
  N   N13       1.0  0.1318942495847111  0.11048452056557068  0.48485897888203056  1.0000
  N   N14       1.0  0.6471206000422284  0.5152022674849659  0.6256621835009779  1.0000
  N   N15       1.0  0.021230635340359003  0.3742849932973796  0.8895195232651786  1.0000
  N   N16       1.0  0.8681062022391614  0.8895135930913585  0.5151342914463868  1.0000
  N   N17       1.0  0.3528833858325413  0.4847964445736893  0.37433674672771383  1.0000
  N   N18       1.0  0.9787717576730088  0.6257149148032538  0.11048239320945898  1.0000
  N   N19       1.0  0.9903758344251655  0.7293384772532505  0.7528267784959154  1.0000
  N   N20       1.0  0.23794593914992396  0.24700466090522613  0.9764165950228402  1.0000
  N   N21       1.0  0.26151321652134385  0.0236807238725589  0.2705752279786822  1.0000
  N   N22       1.0  0.009624058238223697  0.27066501721322583  0.24716637705566316  1.0000
  N   N23       1.0  0.7620594229219506  0.7530012265073651  0.02359188866810056  1.0000
  N   N24       1.0  0.7384808397031646  0.9763155970991091  0.7294269488999062  1.0000
