data_image0
_chemical_formula_structural       Zn16H16C96S16N8Cl8O68
_chemical_formula_sum              "Zn16 H16 C96 S16 N8 Cl8 O68"
_cell_length_a       19.637120529442903
_cell_length_b       19.69710757542164
_cell_length_c       33.28522754082604
_cell_angle_alpha    79.17965584172447
_cell_angle_beta     79.3558324492865
_cell_angle_gamma    64.04917484656471

_space_group_name_H-M_alt    "P 1"
_space_group_IT_number       1

loop_
  _space_group_symop_operation_xyz
  'x, y, z'

loop_
  _atom_site_type_symbol
  _atom_site_label
  _atom_site_symmetry_multiplicity
  _atom_site_fract_x
  _atom_site_fract_y
  _atom_site_fract_z
  _atom_site_occupancy
  Zn  Zn1       1.0  0.058199670783523096  0.4001002287723665  0.47808885150253383  1.0000
  Zn  Zn2       1.0  0.983681577561299  0.48351345794552686  0.5600259335142538  1.0000
  Zn  Zn3       1.0  0.05943286650811069  0.5607405963958457  0.48192745265131237  1.0000
  Zn  Zn4       1.0  0.8995699036664033  0.5539993860619321  0.48005796582687305  1.0000
  Zn  Zn5       1.0  0.693991088444733  0.35106728129606773  0.2700364092401698  1.0000
  Zn  Zn6       1.0  0.689985024939098  0.18924280432597826  0.2674227920803247  1.0000
  Zn  Zn7       1.0  0.7678016609045173  0.26792889689946264  0.18960029383506338  1.0000
  Zn  Zn8       1.0  0.8468076957856638  0.19285051409215012  0.2730407245164344  1.0000
  Zn  Zn9       1.0  0.2664060118260777  0.7683292426189395  0.6894364686949642  1.0000
  Zn  Zn10      1.0  0.3492341879550906  0.695074513458124  0.7715982364798392  1.0000
  Zn  Zn11      1.0  0.19285594670171943  0.8492385480912147  0.7709125117010699  1.0000
  Zn  Zn12      1.0  0.19333919982923928  0.6864029861708899  0.7676889251324039  1.0000
  Zn  Zn13      1.0  0.5619818852722955  0.0589954688286199  0.9824167992980221  1.0000
  Zn  Zn14      1.0  0.39966552925371707  0.055901063051244516  0.9790823764791905  1.0000
  Zn  Zn15      1.0  0.5573580182805954  0.9024333054787517  0.9777721878716789  1.0000
  Zn  Zn16      1.0  0.48052156176287747  0.9838239991568539  0.060276307624199915  1.0000
  H   H1        1.0  0.7485202052739267  0.4524652794238619  0.3501762038636612  1.0000
  H   H2        1.0  0.0016836801994629  0.2969401290358462  0.39980663772890057  1.0000
  H   H3        1.0  0.20126172922844177  0.7005919443470034  0.5985826917571158  1.0000
  H   H4        1.0  0.049521397113068084  0.5497961712662303  0.6509066631206223  1.0000
  H   H5        1.0  0.464082324267707  0.24023787988236492  0.3404675501624226  1.0000
  H   H6        1.0  0.47905885709748464  0.703345049323907  0.6008957759953971  1.0000
  H   H7        1.0  0.2028894872332927  0.980139731204545  0.6006766040577886  1.0000
  H   H8        1.0  0.9472538507109147  0.9696406017773568  0.3497067185783536  1.0000
  H   H9        1.0  0.6514029951931235  0.15119194824465138  0.04921681918834506  1.0000
  H   H10       1.0  0.5990656961136834  0.09826319079805762  0.20070543876038732  1.0000
  H   H11       1.0  0.5498681857726381  0.7721574423768729  0.14807670546135654  1.0000
  H   H12       1.0  0.15985290945750558  0.14073452375883025  0.040826910428428696  1.0000
  H   H13       1.0  0.29673229983030314  0.001785529252124701  0.8998243414519038  1.0000
  H   H14       1.0  0.4516878212624319  0.7495951541830549  0.8504729844773776  1.0000
  H   H15       1.0  0.30081207543929617  0.27975210211538126  0.9018229892023867  1.0000
  H   H16       1.0  0.790985042436965  0.00866825900408228  0.9092131068686484  1.0000
  C   C1        1.0  0.0628310533892815  0.31687120292373544  0.5616233201041467  1.0000
  C   C2        1.0  0.06923940484812617  0.5690778448534529  0.5687506141932345  1.0000
  C   C3        1.0  0.18451985882155236  0.43936870939705847  0.4378094962488248  1.0000
  C   C4        1.0  0.9361902297235716  0.6827029710711158  0.439208326461788  1.0000
  C   C5        1.0  0.9316446518578798  0.42867455344421074  0.4319253288840912  1.0000
  C   C6        1.0  0.816320042401763  0.5603868634705621  0.5628618876737121  1.0000
  C   C7        1.0  0.5667315571994321  0.31131718466581054  0.3111714822586933  1.0000
  C   C8        1.0  0.6800249059983655  0.18150450741632806  0.1813761071656685  1.0000
  C   C9        1.0  0.6894449685321786  0.43519868049360605  0.1871963554878349  1.0000
  C   C10       1.0  0.9334011563498803  0.18830295339103753  0.1903180322543392  1.0000
  C   C11       1.0  0.8172072614112693  0.31938481735811314  0.31944294860140576  1.0000
  C   C12       1.0  0.8109385718930324  0.06424061706875507  0.311984481768924  1.0000
  C   C13       1.0  0.43308869052354737  0.690392455664721  0.6880351830890135  1.0000
  C   C14       1.0  0.31932613004975957  0.8196266331309658  0.818431733573064  1.0000
  C   C15       1.0  0.18757925379625817  0.9343577963172224  0.6876276448794412  1.0000
  C   C16       1.0  0.06760127341988209  0.808539851113736  0.8107564025959845  1.0000
  C   C17       1.0  0.183283106814784  0.6796810225201426  0.6807048874763308  1.0000
  C   C18       1.0  0.31478274604101836  0.5651050163607253  0.8121364102403845  1.0000
  C   C19       1.0  0.43832982942537757  0.18288505520948212  0.9384926030494394  1.0000
  C   C20       1.0  0.4302147604411885  0.9329081090436593  0.9306828990168368  1.0000
  C   C21       1.0  0.6865612739515965  0.9391143670112784  0.9384104559076646  1.0000
  C   C22       1.0  0.5600208004146054  0.8178905139836912  0.06100234760909023  1.0000
  C   C23       1.0  0.5683605317393513  0.07007422241511573  0.06852544633984081  1.0000
  C   C24       1.0  0.31336593746447505  0.06205650109215102  0.061486443868901085  1.0000
  C   C25       1.0  0.9022668028736119  0.4028103922053532  0.40186271242342286  1.0000
  C   C26       1.0  0.8489070610345519  0.34758569440543147  0.3471671066882179  1.0000
  C   C27       1.0  0.8313160181445908  0.4460438493988619  0.3870360583696523  1.0000
  C   C28       1.0  0.9206110867574326  0.30507943523686964  0.36125036047004494  1.0000
  C   C29       1.0  0.8043918750247485  0.41881892602071963  0.36075913184545527  1.0000
  C   C30       1.0  0.9465172256009137  0.3312987149307035  0.38853008162226393  1.0000
  C   C31       1.0  0.0973021872847895  0.5999680324573333  0.5969427646283234  1.0000
  C   C32       1.0  0.1513138092005164  0.6526336688397834  0.6525542750320382  1.0000
  C   C33       1.0  0.13953202529953762  0.6433970724354906  0.5829010475356569  1.0000
  C   C34       1.0  0.10760066883547377  0.6106515440316257  0.6665926655489185  1.0000
  C   C35       1.0  0.1672067644133435  0.6682473580437432  0.6099737091381313  1.0000
  C   C36       1.0  0.08210330280319769  0.5836231578614176  0.6395142747478173  1.0000
  C   C37       1.0  0.3057571838382884  0.4548130890423181  0.4006737646255232  1.0000
  C   C38       1.0  0.4471881636551557  0.29679888619655515  0.3486115717158924  1.0000
  C   C39       1.0  0.2595559800711697  0.4156241653012174  0.4133703929579439  1.0000
  C   C40       1.0  0.49216120201253216  0.3366799843921983  0.3362987180595524  1.0000
  C   C41       1.0  0.3792223186823874  0.3396100555274799  0.3723087830735067  1.0000
  C   C42       1.0  0.37411051029400966  0.4112529539929212  0.3772980234281248  1.0000
  C   C43       1.0  0.7253333658583401  0.576052451921271  0.6308689251383938  1.0000
  C   C44       1.0  0.5236514083807575  0.6746454207684209  0.6211208835996729  1.0000
  C   C45       1.0  0.7422164351733683  0.5853378126080813  0.588193060611374  1.0000
  C   C46       1.0  0.5082172896335564  0.6650472535407205  0.6635754714045916  1.0000
  C   C47       1.0  0.6029900439075817  0.6426155514352415  0.6090524321476919  1.0000
  C   C48       1.0  0.6458344105491846  0.6090237652498727  0.6427592553634509  1.0000
  C   C49       1.0  0.07602564004849197  0.226034137839882  0.6297363679033623  1.0000
  C   C50       1.0  0.1734625917728607  0.024717365040054094  0.6206769714708072  1.0000
  C   C51       1.0  0.0860666975117681  0.24283068912608025  0.5870406910233186  1.0000
  C   C52       1.0  0.16267279115199776  0.009462311554955206  0.6631118243207297  1.0000
  C   C53       1.0  0.14141393711902586  0.10383785482842002  0.6083523638781256  1.0000
  C   C54       1.0  0.10743507141294369  0.14668351668063906  0.6418698820252331  1.0000
  C   C55       1.0  0.8420048721604585  0.7990361855967053  0.3969254255904672  1.0000
  C   C56       1.0  0.9032003857470697  0.9488113597833421  0.3537170875474231  1.0000
  C   C57       1.0  0.9100838511769493  0.7573236275607371  0.4143815373078681  1.0000
  C   C58       1.0  0.835004605392157  0.9895111250983106  0.33690536438713536  1.0000
  C   C59       1.0  0.9057715860138131  0.8793865088332852  0.37591303071184257  1.0000
  C   C60       1.0  0.8395161411600255  0.8688367688262489  0.3751436909769195  1.0000
  C   C61       1.0  0.6539476128218665  0.15135458977697888  0.15178958917607588  1.0000
  C   C62       1.0  0.5985889501102547  0.09602017615306117  0.09813441134006949  1.0000
  C   C63       1.0  0.6688506875316022  0.1646856983400795  0.10887650980163949  1.0000
  C   C64       1.0  0.5853699184988199  0.08102264543559559  0.14105697302415618  1.0000
  C   C65       1.0  0.6408031535516372  0.13884596428268736  0.08246962229003423  1.0000
  C   C66       1.0  0.611197337347768  0.10906511415371514  0.16745438583995306  1.0000
  C   C67       1.0  0.6723394992942316  0.5259664996132757  0.11894141385710094  1.0000
  C   C68       1.0  0.5770572146073149  0.7274978617341222  0.12802463546179874  1.0000
  C   C69       1.0  0.6645060874596709  0.5092406051499195  0.16172733000446726  1.0000
  C   C70       1.0  0.5852095340489069  0.7427374169945151  0.08549560773784043  1.0000
  C   C71       1.0  0.6085877442764556  0.6483413874533  0.1403244387602314  1.0000
  C   C72       1.0  0.6402585821852113  0.6053637113647455  0.10677109089512267  1.0000
  C   C73       1.0  0.08097882737938988  0.12506169708883869  0.1790637243319821  1.0000
  C   C74       1.0  0.16773394631830735  0.12473516479659706  0.0732812109751393  1.0000
  C   C75       1.0  0.0085450854103684  0.1628341977635159  0.16598843913488537  1.0000
  C   C76       1.0  0.23910443664924227  0.08677116875271201  0.08687857684220997  1.0000
  C   C77       1.0  0.10977434246888147  0.1384316547957951  0.10685025981885586  1.0000
  C   C78       1.0  0.13868758889806543  0.11092310390323229  0.1452430773230944  1.0000
  C   C79       1.0  0.3455937236709872  0.8488886830305233  0.8483408547356887  1.0000
  C   C80       1.0  0.4017673085461553  0.9015085329592766  0.9029515495300869  1.0000
  C   C81       1.0  0.3025055943146739  0.9195288044320546  0.8631312080658873  1.0000
  C   C82       1.0  0.44403198925086684  0.8300220338301184  0.8890019980559171  1.0000
  C   C83       1.0  0.3302453149303942  0.946104748996106  0.8893160990883117  1.0000
  C   C84       1.0  0.4174192685895902  0.8045450103128929  0.8617074409157794  1.0000
  C   C85       1.0  0.40932288403495676  0.44728163575801005  0.8535262923046572  1.0000
  C   C86       1.0  0.34559487869056227  0.29964491772997803  0.8975219218562955  1.0000
  C   C87       1.0  0.34051732857877665  0.49053803480968855  0.8370324994479289  1.0000
  C   C88       1.0  0.41423152829477056  0.2577691564453275  0.9137352472563904  1.0000
  C   C89       1.0  0.3434462023027719  0.369115137283572  0.8756256293244318  1.0000
  C   C90       1.0  0.41084748353663497  0.37807799554366284  0.87565001748289  1.0000
  C   C91       1.0  0.9459433419772549  0.7941878710831035  0.8482480888437108  1.0000
  C   C92       1.0  0.8071025859907762  0.9522100101483203  0.9011533384281377  1.0000
  C   C93       1.0  0.9931457171882769  0.8323385444368228  0.835738910774779  1.0000
  C   C94       1.0  0.7613031441391697  0.9131879096941168  0.9134942257529559  1.0000
  C   C95       1.0  0.8748423043483766  0.9087225033795647  0.8775247371727558  1.0000
  C   C96       1.0  0.8785422059844591  0.8377483262532764  0.8722676957687482  1.0000
  S   S1        1.0  0.3001219704998448  0.3258706549787789  0.396789297318243  1.0000
  S   S2        1.0  0.4526460439929636  0.4259614350517608  0.3532510098875504  1.0000
  S   S3        1.0  0.6608665342205312  0.6341461205812917  0.5628946766189813  1.0000
  S   S4        1.0  0.5892323179594497  0.6172901132794237  0.6891379212387176  1.0000
  S   S5        1.0  0.1336244860906746  0.1615004235497324  0.5620480916711728  1.0000
  S   S6        1.0  0.11403003266324419  0.09027636632966816  0.6883660649787018  1.0000
  S   S7        1.0  0.9704729615989293  0.8037008909405755  0.40399143720546254  1.0000
  S   S8        1.0  0.7738215614861799  0.9441315317305338  0.34769221208390616  1.0000
  S   S9        1.0  0.617768005384569  0.5907274279453035  0.18669290504580963  1.0000
  S   S10       1.0  0.6309087100974365  0.6617490167619025  0.060182031303895656  1.0000
  S   S11       1.0  0.011563439116230298  0.180760691436717  0.1125296271778424  1.0000
  S   S12       1.0  0.23658835928885943  0.06765742002186666  0.14024435281082498  1.0000
  S   S13       1.0  0.2782300874872874  0.4463150517565069  0.8486708347827515  1.0000
  S   S14       1.0  0.47646666751321487  0.30194821390862353  0.9026591854775602  1.0000
  S   S15       1.0  0.9548086526967053  0.9211122631021099  0.853369248539174  1.0000
  S   S16       1.0  0.7996525330893716  0.8239438603552927  0.8965418450745942  1.0000
  N   N1        1.0  0.781528096828417  0.5242262922888159  0.39728408389793657  1.0000
  N   N2        1.0  0.9743415964974458  0.23086788292347674  0.3470248056714452  1.0000
  N   N3        1.0  0.15520612874079376  0.6677383223302585  0.5385560336297032  1.0000
  N   N4        1.0  0.08353139832134808  0.5945898506150868  0.7109287325629623  1.0000
  N   N5        1.0  0.7171455201223793  0.2050143496030826  0.0888933321137131  1.0000
  N   N6        1.0  0.5452386969279459  0.03261507206104136  0.16107083723529309  1.0000
  N   N7        1.0  0.22402925842658308  0.9693914151511508  0.8528950643250254  1.0000
  N   N8        1.0  0.5183825352475536  0.7761371149982282  0.9033788530684674  1.0000
  Cl  Cl1       1.0  0.2867490192570942  0.543154687387684  0.41122265832331806  1.0000
  Cl  Cl2       1.0  0.7890501196785776  0.5316103312681622  0.6661453417171825  1.0000
  Cl  Cl3       1.0  0.0316067788758332  0.28963038347002623  0.6647950743659761  1.0000
  Cl  Cl4       1.0  0.7689574507821106  0.7728919117314917  0.40013954636557963  1.0000
  Cl  Cl5       1.0  0.7136247869755649  0.46208185660760387  0.08396944886420951  1.0000
  Cl  Cl6       1.0  0.10148047061247208  0.09794619576201312  0.22869449033509429  1.0000
  Cl  Cl7       1.0  0.4843780313423877  0.47099319584300053  0.8490439292269725  1.0000
  Cl  Cl8       1.0  0.9634379502243673  0.7066536286235919  0.8371229284986156  1.0000
  O   O1        1.0  0.0007178250272019999  0.49878115955335295  0.4996798979694431  1.0000
  O   O2        1.0  0.0740523496548775  0.31523405394713677  0.5225117969017389  1.0000
  O   O3        1.0  0.023373434776310396  0.5394542215058706  0.5857308582477714  1.0000
  O   O4        1.0  0.15299860152840236  0.5071380012321927  0.4471582988111464  1.0000
  O   O5        1.0  0.03411133685914079  0.3758804122700212  0.580356968961695  1.0000
  O   O6        1.0  0.15721631112673146  0.38917574923764425  0.44745689618696344  1.0000
  O   O7        1.0  0.0943937295475124  0.5744845845529768  0.5308536606993995  1.0000
  O   O8        1.0  0.0004620111179817998  0.6599037742509282  0.45310814895515944  1.0000
  O   O9        1.0  0.8841004391783258  0.48701592912018266  0.44868977841856855  1.0000
  O   O10       1.0  0.8937983930073727  0.6470420793273346  0.4447940939997394  1.0000
  O   O11       1.0  0.0009886791085093997  0.3891012465916218  0.4381340064304595  1.0000
  O   O12       1.0  0.8756355590316858  0.5211296863258922  0.5812325212671678  1.0000
  O   O13       1.0  0.8143995806358006  0.5805921220784356  0.5239994784467186  1.0000
  O   O14       1.0  0.7489162627236607  0.25071076394224423  0.2501036518816092  1.0000
  O   O15       1.0  0.599507445378407  0.3567301525500284  0.3045750282355613  1.0000
  O   O16       1.0  0.6698745279846533  0.1577443658226513  0.21931133029544006  1.0000
  O   O17       1.0  0.7284705606203232  0.37608025554033714  0.1689353117855319  1.0000
  O   O18       1.0  0.5918619687485813  0.24655593458883382  0.2982099589324888  1.0000
  O   O19       1.0  0.6696440977665148  0.4367730151662954  0.2261484309575933  1.0000
  O   O20       1.0  0.7088467323681298  0.22839413256841823  0.16584030068871414  1.0000
  O   O21       1.0  0.8759324498782775  0.21838374443770178  0.16959213444513205  1.0000
  O   O22       1.0  0.8529210210719143  0.24952193461221125  0.3143862369233474  1.0000
  O   O23       1.0  0.9313418126012322  0.17880948697111887  0.2294285845397681  1.0000
  O   O24       1.0  0.7570443295850352  0.36782637803199947  0.3041448509232864  1.0000
  O   O25       1.0  0.7434941516981155  0.09324427378216874  0.3012740963502906  1.0000
  O   O26       1.0  0.8591248855764206  0.0936432080804792  0.3031561148451232  1.0000
  O   O27       1.0  0.2503961175625235  0.7500597630785251  0.7497339819201796  1.0000
  O   O28       1.0  0.3747489037168776  0.7213010015905112  0.6682789713248596  1.0000
  O   O29       1.0  0.360410089114417  0.7510773502078364  0.8115950208685874  1.0000
  O   O30       1.0  0.1680159289926451  0.933864474621394  0.7265040904375368  1.0000
  O   O31       1.0  0.4332988912670643  0.678949080292163  0.7271960497313755  1.0000
  O   O32       1.0  0.22630231091088143  0.8766046845761295  0.6680752742421417  1.0000
  O   O33       1.0  0.2593742800602782  0.8660213688722963  0.8024327804349765  1.0000
  O   O34       1.0  0.0995337879593166  0.8546935007522617  0.8057033341272868  1.0000
  O   O35       1.0  0.1795182752005431  0.6529403128980036  0.7184318705209235  1.0000
  O   O36       1.0  0.09403419982986347  0.7451717373552782  0.7962492348805907  1.0000
  O   O37       1.0  0.2121520212854904  0.7262214807756421  0.6638538728175973  1.0000
  O   O38       1.0  0.36165896716978096  0.5958872479424498  0.8018113442064986  1.0000
  O   O39       1.0  0.24639512021523294  0.5926766700617989  0.8028606436440099  1.0000
  O   O40       1.0  0.49964767299424284  0.0008049754025805645  0.9998123636999876  1.0000
  O   O41       1.0  0.5035240325719029  0.15687333943902354  0.9516401307628396  1.0000
  O   O42       1.0  0.3818803187914241  0.9935561127310917  0.9453058876866008  1.0000
  O   O43       1.0  0.6563185907026323  0.8914796200223093  0.9476815054559108  1.0000
  O   O44       1.0  0.39257358875543247  0.15071762313568368  0.9446184080592062  1.0000
  O   O45       1.0  0.6582215932775171  0.0064024611296531  0.9486280059627389  1.0000
  O   O46       1.0  0.49994955926828755  0.8966984899769843  0.9364573034463886  1.0000
  O   O47       1.0  0.5721928120733821  0.8182031049050666  0.02181033109560097  1.0000
  O   O48       1.0  0.5204364660067282  0.04238996120787431  0.0839141776789134  1.0000
  O   O49       1.0  0.5285124275441219  0.8758421324256531  0.08080533180879002  1.0000
  O   O50       1.0  0.5930640288987092  0.07920254297070527  0.0306769568258076  1.0000
  O   O51       1.0  0.31318835328175243  0.0805843239439454  0.0225544793215136  1.0000
  O   O52       1.0  0.371981860390612  0.023853609881434937  0.0808293935792648  1.0000
  O   O53       1.0  0.8009599230846688  0.5749891397787437  0.37953910257082407  1.0000
  O   O54       1.0  0.7228059282480784  0.5324467162502059  0.4209249247970561  1.0000
  O   O55       1.0  0.007542044672554499  0.2329122651868758  0.3118190057340938  1.0000
  O   O56       1.0  0.9844118040324686  0.17378101243758706  0.3723479965285037  1.0000
  O   O57       1.0  0.10163159896518438  0.7203922297003655  0.522210507484651  1.0000
  O   O58       1.0  0.22136182435717436  0.6361771458658438  0.5223877364316463  1.0000
  O   O59       1.0  0.03212038240188521  0.6482645628769531  0.7275707570336747  1.0000
  O   O60       1.0  0.11403278547122397  0.5280669100926474  0.7267960297971499  1.0000
  O   O61       1.0  0.7866630693082965  0.16820506762695694  0.08898812926071288  1.0000
  O   O62       1.0  0.6841129248698437  0.2702494241402036  0.0719520822413102  1.0000
  O   O63       1.0  0.5814773968876068  0.963417136143697  0.16016778960625538  1.0000
  O   O64       1.0  0.4806262144643512  0.06523917928667798  0.1788379172656747  1.0000
  O   O65       1.0  0.17306693813285529  0.9505678766981872  0.8711496505455969  1.0000
  O   O66       1.0  0.21584722418842253  0.02752467947454563  0.8287572227507595  1.0000
  O   O67       1.0  0.5162786409936331  0.7432158357757572  0.9386973311334614  1.0000
  O   O68       1.0  0.5754946990948538  0.7658660285508316  0.8780971339009581  1.0000
