data_image0
_chemical_formula_structural       Cd2H40C42N4O10
_chemical_formula_sum              "Cd2 H40 C42 N4 O10"
_cell_length_a       8.603404079439398
_cell_length_b       9.706763598497433
_cell_length_c       12.709348723429972
_cell_angle_alpha    69.78416653142692
_cell_angle_beta     79.27198318979734
_cell_angle_gamma    90.12243854529522

_space_group_name_H-M_alt    "P 1"
_space_group_IT_number       1

loop_
  _space_group_symop_operation_xyz
  'x, y, z'

loop_
  _atom_site_type_symbol
  _atom_site_label
  _atom_site_symmetry_multiplicity
  _atom_site_fract_x
  _atom_site_fract_y
  _atom_site_fract_z
  _atom_site_occupancy
  Cd  Cd1       1.0  0.5847489033582179  0.9246482752329968  0.7224734003475604  1.0000
  Cd  Cd2       1.0  0.41524835248423386  0.0753477417637498  0.27753658508107293  1.0000
  H   H1        1.0  0.7186857867145591  0.1222566547523343  0.4937938794448868  1.0000
  H   H2        1.0  0.28131355601920655  0.8777365413942987  0.5062054982503384  1.0000
  H   H3        1.0  0.8175503024655413  0.9838621095037753  0.5365739568168452  1.0000
  H   H4        1.0  0.1824553927767241  0.016137721799971395  0.463423771952627  1.0000
  H   H5        1.0  0.06381197612060421  0.8397749380104995  0.8842477918229863  1.0000
  H   H6        1.0  0.9361946656870117  0.16023906578377725  0.11574952452784261  1.0000
  H   H7        1.0  0.7524334364272178  0.13095979308896935  0.9905775038220387  1.0000
  H   H8        1.0  0.2475721689095067  0.8690563653186985  0.00942021189774777  1.0000
  H   H9        1.0  0.7400607887383045  0.5524362986354702  0.5658912248540987  1.0000
  H   H10       1.0  0.2599416827064331  0.44756918753509467  0.43410082854912  1.0000
  H   H11       1.0  0.2685873489908843  0.6506442264815673  0.5113200861035239  1.0000
  H   H12       1.0  0.7314128115754741  0.34936243023985714  0.4886696224901286  1.0000
  H   H13       1.0  0.293708174911373  0.6876554554622202  0.8014297776892506  1.0000
  H   H14       1.0  0.7063012291684884  0.3123465190557652  0.19856931014267337  1.0000
  H   H15       1.0  0.1185251991001337  0.5119680692453983  0.9751407703497039  1.0000
  H   H16       1.0  0.8814801772991318  0.48802758794128903  0.024852502222046272  1.0000
  H   H17       1.0  0.43424409791141727  0.5943138401705923  0.17604509310966424  1.0000
  H   H18       1.0  0.5657552400397138  0.40567938832857914  0.8239534901822907  1.0000
  H   H19       1.0  0.5998634845998368  0.7648433621775366  0.9938331084916003  1.0000
  H   H20       1.0  0.400128555409701  0.23516365435393993  0.006173312958949896  1.0000
  H   H21       1.0  0.20358120744078428  0.4162907288985807  0.2716240775401246  1.0000
  H   H22       1.0  0.7964158387625063  0.5837035407412969  0.7283753385553382  1.0000
  H   H23       1.0  0.1155339077529902  0.3436200942247111  0.18628689686665476  1.0000
  H   H24       1.0  0.8844592917130497  0.6563697995559677  0.8137125068821975  1.0000
  H   H25       1.0  0.9537992264773223  0.5760746982255185  0.13852117923733695  1.0000
  H   H26       1.0  0.0461983382444799  0.4239271430276473  0.861479481377188  1.0000
  H   H27       1.0  0.8976578852023778  0.4394050379191582  0.27579580793545244  1.0000
  H   H28       1.0  0.10234689233809752  0.5605993100530852  0.7241977958740693  1.0000
  H   H29       1.0  0.11736244309639692  0.7147410907852034  0.22562793275704957  1.0000
  H   H30       1.0  0.8826359632034197  0.2852551660057898  0.7743763345704551  1.0000
  H   H31       1.0  0.0339366380651782  0.5869744043465914  0.3605861213511615  1.0000
  H   H32       1.0  0.9660660424525886  0.4130155313408678  0.6394136129781388  1.0000
  H   H33       1.0  0.7248092058070625  0.6370154787393574  0.19822394906589844  1.0000
  H   H34       1.0  0.27518942886407427  0.36298398143264876  0.801781873002547  1.0000
  H   H35       1.0  0.5086386579090245  0.8045436973188416  0.20961887156874334  1.0000
  H   H36       1.0  0.4913670564637727  0.1954560045747513  0.7903820348138029  1.0000
  H   H37       1.0  0.7514277360340315  0.019968089401743293  0.36452186149774957  1.0000
  H   H38       1.0  0.24857722244980354  0.9800382000426069  0.6354775452253422  1.0000
  H   H39       1.0  0.9793487508127398  0.8612919317844925  0.3619496913542053  1.0000
  H   H40       1.0  0.020650549275693205  0.13869997010069568  0.6380547289169131  1.0000
  C   C1        1.0  0.7922518093501694  0.9711410162183681  0.8527042650325714  1.0000
  C   C2        1.0  0.2077414955015868  0.028867049080723486  0.1473033117899618  1.0000
  C   C3        1.0  0.8982839171345702  0.9841681703266754  0.9302722399811503  1.0000
  C   C4        1.0  0.10171533569364752  0.015841352923878595  0.06972712466438943  1.0000
  C   C5        1.0  0.03686476259973401  0.9088589036968668  0.935965254256864  1.0000
  C   C6        1.0  0.9631407761784839  0.09115612221205537  0.06403353202247086  1.0000
  C   C7        1.0  0.8615706693078522  0.07484110737526345  0.9952757247362742  1.0000
  C   C8        1.0  0.13843479334659747  0.925172850739997  0.004722543296082909  1.0000
  C   C9        1.0  0.5096467272105798  0.7339349743541205  0.5937264404332938  1.0000
  C   C10       1.0  0.490347822786724  0.26605697128275807  0.4062762257410598  1.0000
  C   C11       1.0  0.5052275098208199  0.6142424710095965  0.5440559119506647  1.0000
  C   C12       1.0  0.49476713981504616  0.385751966092549  0.45593905228171394  1.0000
  C   C13       1.0  0.6348896095722764  0.5282613879932896  0.5373054008075187  1.0000
  C   C14       1.0  0.36511346073124434  0.47173540739171926  0.46268632135792126  1.0000
  C   C15       1.0  0.3701152287634528  0.5847140951840187  0.5061142738489083  1.0000
  C   C16       1.0  0.6298819884195411  0.41528376606732553  0.4938771641482874  1.0000
  C   C17       1.0  0.32074522561332935  0.6637363379857887  0.8863221894707963  1.0000
  C   C18       1.0  0.679260469628936  0.33626349331795774  0.1136755392986828  1.0000
  C   C19       1.0  0.2234104695336327  0.5670125273916682  0.9835932326070278  1.0000
  C   C20       1.0  0.7765940130770161  0.43298748470082415  0.01639988702110167  1.0000
  C   C21       1.0  0.2582745143749606  0.5416838264994651  0.0919492259574426  1.0000
  C   C22       1.0  0.7417274768123364  0.4583138292374969  0.9080479381528479  1.0000
  C   C23       1.0  0.3987120175730041  0.6120637057408089  0.0946566404458338  1.0000
  C   C24       1.0  0.6012817765353232  0.38793482744683405  0.9053445260690655  1.0000
  C   C25       1.0  0.49144176035849085  0.7071011572792683  0.9933515211594899  1.0000
  C   C26       1.0  0.5085525666162596  0.2929048504640476  0.006653273084282303  1.0000
  C   C27       1.0  0.145259330553948  0.4471830976898942  0.19764444738758163  1.0000
  C   C28       1.0  0.8547249063788911  0.5528143257972998  0.8023558702998914  1.0000
  C   C29       1.0  0.992325754115562  0.5234274291064834  0.2202553575145673  1.0000
  C   C30       1.0  0.007666541996591999  0.4765668842850842  0.7797423044841383  1.0000
  C   C31       1.0  0.011097369350189006  0.6398835631913826  0.2734198972889175  1.0000
  C   C32       1.0  0.9889044982853719  0.3601117628430117  0.7265809967470177  1.0000
  C   C33       1.0  0.8724064708544219  0.733185398054175  0.27999230035851513  1.0000
  C   C34       1.0  0.12759572997203614  0.2668140050396558  0.7200154330849532  1.0000
  C   C35       1.0  0.7369205894197606  0.7193479592511521  0.23709566235488216  1.0000
  C   C36       1.0  0.26307927661514446  0.2806527761562378  0.7629057542626825  1.0000
  C   C37       1.0  0.614687877164087  0.8114579003720692  0.2433969262726522  1.0000
  C   C38       1.0  0.3853191494788959  0.18854411219803063  0.7566008873092545  1.0000
  C   C39       1.0  0.7503648078700494  0.9312438806275765  0.3308405763314467  1.0000
  C   C40       1.0  0.24964468189885744  0.06875909697900079  0.6691606185539953  1.0000
  C   C41       1.0  0.8762832335350198  0.8425201779061239  0.3284856429345879  1.0000
  C   C42       1.0  0.12372339853956758  0.15747500731895767  0.6715193884079156  1.0000
  N   N1        1.0  0.4523499720031268  0.7353087431350358  0.890658650033423  1.0000
  N   N2        1.0  0.547651101880767  0.2646918438361396  0.10934658132222104  1.0000
  N   N3        1.0  0.6203830462180802  0.9167036815439643  0.2894173664602847  1.0000
  N   N4        1.0  0.3796321492064436  0.08329606225640157  0.7105838705027171  1.0000
  O   O1        1.0  0.8186625662463314  0.875179191232661  0.8047065945920411  1.0000
  O   O2        1.0  0.18132334006075723  0.12482445822779198  0.19530144171866942  1.0000
  O   O3        1.0  0.6785848324478679  0.05544146590775509  0.837984390282742  1.0000
  O   O4        1.0  0.3214020106915428  0.9445575374740401  0.16203094860098585  1.0000
  O   O5        1.0  0.6347307402826133  0.754828764194258  0.6282749139698824  1.0000
  O   O6        1.0  0.3652628541502025  0.24516637149714174  0.3717294642236767  1.0000
  O   O7        1.0  0.3876176253114494  0.8065766540755845  0.602856645060264  1.0000
  O   O8        1.0  0.6123769721138217  0.1934165534701932  0.39714177294146685  1.0000
  O   O9        1.0  0.7793893654286705  0.06896190809902689  0.5550424498047732  1.0000
  O   O10       1.0  0.2206078282395296  0.9310345294807262  0.4449572083813821  1.0000
