data_image0
_chemical_formula_structural       Al2H18C30N4Cl2O10
_chemical_formula_sum              "Al2 H18 C30 N4 Cl2 O10"
_cell_length_a       6.646361794997788
_cell_length_b       16.944288931803406
_cell_length_c       17.74971489239666
_cell_angle_alpha    86.62261014199393
_cell_angle_beta     79.860361385595
_cell_angle_gamma    83.2668808925011

_space_group_name_H-M_alt    "P 1"
_space_group_IT_number       1

loop_
  _space_group_symop_operation_xyz
  'x, y, z'

loop_
  _atom_site_type_symbol
  _atom_site_label
  _atom_site_symmetry_multiplicity
  _atom_site_fract_x
  _atom_site_fract_y
  _atom_site_fract_z
  _atom_site_occupancy
  Al  Al1       1.0  0.5027120072122101  0.507684919685495  0.49726120452496764  1.0000
  Al  Al2       1.0  0.003287162360535958  0.504820299415705  0.4970956231238546  1.0000
  H   H1        1.0  0.7525160055977766  0.5964414864210069  0.44482632654992216  1.0000
  H   H2        1.0  0.2667240555104656  0.413105369386173  0.5421578554109772  1.0000
  H   H3        1.0  0.1319895836603493  0.2700426992605928  0.4468244722089594  1.0000
  H   H4        1.0  0.1964321783119161  0.12120167445733901  0.446707719138189  1.0000
  H   H5        1.0  0.5658949251377905  0.10745777026331642  0.5519588336856813  1.0000
  H   H6        1.0  0.37489072066638573  0.9008638431117576  0.5558303085204415  1.0000
  H   H7        1.0  0.8366326686877771  0.8931897952233001  0.453512283951916  1.0000
  H   H8        1.0  0.9016519559605243  0.7445181309561378  0.45512803703518756  1.0000
  H   H9        1.0  0.660813413585693  0.524903957383117  0.264492014316815  1.0000
  H   H10       1.0  0.7355208838793317  0.5245370562149462  0.1212330309161942  1.0000
  H   H11       1.0  0.14201174541025807  0.4439982466040533  0.12321860574008528  1.0000
  H   H12       1.0  0.8738340269602958  0.46881152582734836  0.8778473474671243  1.0000
  H   H13       1.0  0.3290435741489119  0.559704849809805  0.7244069113318616  1.0000
  H   H14       1.0  0.2409757343860477  0.5539057078322784  0.8674286830112692  1.0000
  H   H15       1.0  0.9838331370368039  0.45223366292552214  0.3275381988100605  1.0000
  H   H16       1.0  0.9237089923016981  0.4265522634887162  0.2416750924955622  1.0000
  H   H17       1.0  0.04831126865264685  0.48050218945382983  0.6730935468046368  1.0000
  H   H18       1.0  0.11525104363710176  0.4604708197120999  0.7640826597251831  1.0000
  C   C1        1.0  0.32629544081947176  0.4937363981942227  0.3584039599937938  1.0000
  C   C2        1.0  0.2037496958962492  0.6500650734051734  0.5007705036107879  1.0000
  C   C3        1.0  0.6800203344606148  0.514906584279288  0.635884705155739  1.0000
  C   C4        1.0  0.7962808759674902  0.3617406906014295  0.49810701663431434  1.0000
  C   C5        1.0  0.8166239252164689  0.27295068732216526  0.5005217060312716  1.0000
  C   C6        1.0  0.00989894684062158  0.23331631175974377  0.47013207358770603  1.0000
  C   C7        1.0  0.04624987489281551  0.15118087152082893  0.46992456964159857  1.0000
  C   C8        1.0  0.8845702438982103  0.1059008156106387  0.5002311045340164  1.0000
  C   C9        1.0  0.6895279149075009  0.14357396254812468  0.5289438960824242  1.0000
  C   C10       1.0  0.6562819167859217  0.22628952362924082  0.5306718298637421  1.0000
  C   C11       1.0  0.2725849612473965  0.8660829696809742  0.5332877560250182  1.0000
  C   C12       1.0  0.10310331741733583  0.905334886866534  0.504429837664027  1.0000
  C   C13       1.0  0.9673675346693782  0.861781528558467  0.4759664965139195  1.0000
  C   C14       1.0  0.004457252215836181  0.7796406955190206  0.4768871241386918  1.0000
  C   C15       1.0  0.1736714674163552  0.7385601138315465  0.5055034536108067  1.0000
  C   C16       1.0  0.3062479953211438  0.7832091698644773  0.5351657461517902  1.0000
  C   C17       1.0  0.3628620196001294  0.48537395780525117  0.2747010323415822  1.0000
  C   C18       1.0  0.5504496196365523  0.5059286407988779  0.23242356936280123  1.0000
  C   C19       1.0  0.5926316362525483  0.5057900753940672  0.1533120893197193  1.0000
  C   C20       1.0  0.44122149500209656  0.4845802380291176  0.1132906838649674  1.0000
  C   C21       1.0  0.25670621633641133  0.4611805743895872  0.15437392469883088  1.0000
  C   C22       1.0  0.21245137885706802  0.46093297014279955  0.23513582666369356  1.0000
  C   C23       1.0  0.47511084787704777  0.49068772012763184  0.032137329573764396  1.0000
  C   C24       1.0  0.5083020510116472  0.4997085383596129  0.9624700935960747  1.0000
  C   C25       1.0  0.5529261958876929  0.5082926654353911  0.8815145472997514  1.0000
  C   C26       1.0  0.7542679500945513  0.48898315449162055  0.8439665513834739  1.0000
  C   C27       1.0  0.807580487882234  0.49309173247865334  0.7632438678429168  1.0000
  C   C28       1.0  0.6463984848903479  0.5167217610208751  0.7199532259709613  1.0000
  C   C29       1.0  0.4461142195714984  0.5391723733253145  0.7591761666826429  1.0000
  C   C30       1.0  0.39636740145375876  0.5356841323048586  0.8381597530577948  1.0000
  N   N1        1.0  0.9025989119280811  0.0219000814949837  0.503366826737924  1.0000
  N   N2        1.0  0.0830253538610108  0.9892982236989667  0.5053885397523459  1.0000
  N   N3        1.0  0.0326284086531032  0.4353870829602258  0.27271212522019544  1.0000
  N   N4        1.0  0.006024481092659087  0.47214275513280063  0.7306144287520198  1.0000
  Cl  Cl1       1.0  0.41376737868537816  0.26512473290633654  0.5747669328173827  1.0000
  Cl  Cl2       1.0  0.5082989623978733  0.7395375498912601  0.5779236623962234  1.0000
  O   O1        1.0  0.48130264576346354  0.49483075249263203  0.3915906620747974  1.0000
  O   O2        1.0  0.042515984139953396  0.6151785088820176  0.5043326842965001  1.0000
  O   O3        1.0  0.8671346646767473  0.5036673071444612  0.6006432679738154  1.0000
  O   O4        1.0  0.6175077859953718  0.3987871227507682  0.5027386723559886  1.0000
  O   O5        1.0  0.523633161320298  0.5219907804159972  0.6022091365105524  1.0000
  O   O6        1.0  0.9623984665475548  0.3943871137401588  0.49072176490981423  1.0000
  O   O7        1.0  0.13821427802059824  0.5017619070229955  0.3928332803754557  1.0000
  O   O8        1.0  0.3866078491727123  0.6160648618335712  0.4912925572777027  1.0000
  O   O9        1.0  0.7605468466903745  0.5407657468536299  0.4612869182953859  1.0000
  O   O10       1.0  0.24778538578874526  0.47039706276320453  0.5325160004313929  1.0000
