data_image0
_chemical_formula_structural       Cu2H32C28O16F12
_chemical_formula_sum              "Cu2 H32 C28 O16 F12"
_cell_length_a       5.269022246900319
_cell_length_b       12.525387230038413
_cell_length_c       13.987347946689958
_cell_angle_alpha    90.00009903741643
_cell_angle_beta     101.71345851665612
_cell_angle_gamma    89.99974663920395

_space_group_name_H-M_alt    "P 1"
_space_group_IT_number       1

loop_
  _space_group_symop_operation_xyz
  'x, y, z'

loop_
  _atom_site_type_symbol
  _atom_site_label
  _atom_site_symmetry_multiplicity
  _atom_site_fract_x
  _atom_site_fract_y
  _atom_site_fract_z
  _atom_site_occupancy
  Cu  Cu1       1.0  0.9999984349501574  0.5000036651180082  5.394908769033428e-07  1.0000
  Cu  Cu2       1.0  0.4999936248924256  7.204414956199999e-06  0.5000018501845671  1.0000
  H   H1        1.0  0.4837894999788758  0.7526958189477071  0.15226112491344415  1.0000
  H   H2        1.0  0.0162081666626577  0.2527038550636931  0.34772829579656406  1.0000
  H   H3        1.0  0.5161980334317421  0.24730523860389303  0.8477491595414716  1.0000
  H   H4        1.0  0.9837947876271328  0.7473035894878564  0.6522645701439271  1.0000
  H   H5        1.0  0.6417181014101203  0.5264009869953907  0.2669612676518226  1.0000
  H   H6        1.0  0.8582697230972727  0.0264074518055963  0.23302654661506483  1.0000
  H   H7        1.0  0.35829647913053003  0.4735984737614701  0.7330317652455205  1.0000
  H   H8        1.0  0.1417158393621349  0.973592008984248  0.7669764390058871  1.0000
  H   H9        1.0  0.9704236594363849  0.3264810696786071  0.18158556490281086  1.0000
  H   H10       1.0  0.5295899558107918  0.8264860597756539  0.3184161506233777  1.0000
  H   H11       1.0  0.029585126020222688  0.6735136008154041  0.8184113180077686  1.0000
  H   H12       1.0  0.47043631314133455  0.17350461881984813  0.681590637669025  1.0000
  H   H13       1.0  0.6310476465262198  0.3452000931331583  0.1324120946489842  1.0000
  H   H14       1.0  0.8689638387731264  0.845205399818312  0.36759306554155546  1.0000
  H   H15       1.0  0.3689591908433201  0.6547993676315469  0.8675824956971564  1.0000
  H   H16       1.0  0.13106050494720728  0.15479805283733578  0.6324164364566016  1.0000
  H   H17       1.0  0.7565941537524736  0.36722736264020744  0.2598241536906086  1.0000
  H   H18       1.0  0.7434209468868784  0.867227067864654  0.24017774321195154  1.0000
  H   H19       1.0  0.24340494699758608  0.6327705013765625  0.7401734244656096  1.0000
  H   H20       1.0  0.25660919852681013  0.13276919937742804  0.7598293391298653  1.0000
  H   H21       1.0  0.19619862558963763  0.5814152504509948  0.29296104865638023  1.0000
  H   H22       1.0  0.3037951987908798  0.08141537391661298  0.2070428053656669  1.0000
  H   H23       1.0  0.8038062604347684  0.41858660544824033  0.7070305339433316  1.0000
  H   H24       1.0  0.6961884156080842  0.9185840868728549  0.7929578876888282  1.0000
  H   H25       1.0  0.9814324340958435  0.6161640877463767  0.37243857470685515  1.0000
  H   H26       1.0  0.5185583313889596  0.1161669445546636  0.12756319772752528  1.0000
  H   H27       1.0  0.0185705300568841  0.38383457464342285  0.6275564367728632  1.0000
  H   H28       1.0  0.48143886055719065  0.8838309194692043  0.8724406700339526  1.0000
  H   H29       1.0  0.14961262264978356  0.7187547803524127  0.32088447917264046  1.0000
  H   H30       1.0  0.3503738637605949  0.2187571721773054  0.17911976475802044  1.0000
  H   H31       1.0  0.8503903447432677  0.28124947068759093  0.6791112474904109  1.0000
  H   H32       1.0  0.6496213801295454  0.781239893467671  0.8208818104366526  1.0000
  C   C1        1.0  0.12571816190831697  0.7167642096442108  0.05437954841878678  1.0000
  C   C2        1.0  0.3742547232601082  0.2167718179031084  0.44561150659441734  1.0000
  C   C3        1.0  0.874290675863712  0.2832352511308258  0.9456287773894371  1.0000
  C   C4        1.0  0.625707550770116  0.7832332315486211  0.5543832781177256  1.0000
  C   C5        1.0  0.36311183921525003  0.6903449192658613  0.11326948011144818  1.0000
  C   C6        1.0  0.1368865204706751  0.1903472330278363  0.3867198880252331  1.0000
  C   C7        1.0  0.6368950570435246  0.30965374313154104  0.8867379834919258  1.0000
  C   C8        1.0  0.8631106223826209  0.8096546228792435  0.6132732520232833  1.0000
  C   C9        1.0  0.45360480575842393  0.5847760626017688  0.12596248243657018  1.0000
  C   C10       1.0  0.0463966982681256  0.0847761104328626  0.37403409552248945  1.0000
  C   C11       1.0  0.5464059440667128  0.4152273900593498  0.8740402689490591  1.0000
  C   C12       1.0  0.9535849746131503  0.915223350357472  0.6259657353274972  1.0000
  C   C13       1.0  0.050821219262239495  0.8360444096139331  0.04604673830554869  1.0000
  C   C14       1.0  0.44918522857919635  0.3360511087347291  0.4539470637014701  1.0000
  C   C15       1.0  0.9491953649833319  0.16394946250431994  0.9539607452324926  1.0000
  C   C16       1.0  0.5508060864629697  0.6639483520388011  0.5460427745515374  1.0000
  C   C17       1.0  0.7028587301537357  0.5601020322434493  0.2014527014034826  1.0000
  C   C18       1.0  0.7971365022468931  0.0601007301420253  0.2985421659979436  1.0000
  C   C19       1.0  0.2971597497703086  0.43989902527181374  0.798545631808423  1.0000
  C   C20       1.0  0.2028432356683183  0.9398971338934033  0.7014582330088145  1.0000
  C   C21       1.0  0.7986569373350605  0.37386019166639534  0.18612661917728696  1.0000
  C   C22       1.0  0.7013561545796136  0.8738648864420215  0.31387585147727026  1.0000
  C   C23       1.0  0.2013518513751791  0.6261376723422885  0.8138709789156164  1.0000
  C   C24       1.0  0.29866430613196115  0.12613377594431094  0.6861319261098514  1.0000
  C   C25       1.0  0.05562479488316539  0.6407165415243059  0.30765883833048935  1.0000
  C   C26       1.0  0.44435866604693086  0.14071959761026417  0.19234146985088063  1.0000
  C   C27       1.0  0.9443723414273749  0.3592853143815234  0.6923328713560719  1.0000
  C   C28       1.0  0.5556327111558446  0.8592790647965883  0.8076619568403343  1.0000
  O   O1        1.0  0.9579778164837336  0.656296674550326  0.0022088417509991114  1.0000
  O   O2        1.0  0.5419911952803886  0.1563057283502474  0.49779420798867574  1.0000
  O   O3        1.0  0.042011619205794694  0.3437011894788924  0.9977937227353731  1.0000
  O   O4        1.0  0.4579730791434429  0.8437009178688372  0.5022143121862184  1.0000
  O   O5        1.0  0.34110760707335425  0.5021591140974592  0.08483384453566598  1.0000
  O   O6        1.0  0.1588948315747132  0.0021590456513962  0.4151662396700785  1.0000
  O   O7        1.0  0.6589050548226325  0.4978451369356947  0.9151633324260187  1.0000
  O   O8        1.0  0.8410849521042961  0.9978452054208448  0.5848441718730367  1.0000
  O   O9        1.0  0.8580218160994305  0.4824316182661833  0.16625270330698771  1.0000
  O   O10       1.0  0.6419900461697593  0.9824372455005842  0.3337448526226935  1.0000
  O   O11       1.0  0.1419947354057456  0.5175670441169017  0.8337476284233104  1.0000
  O   O12       1.0  0.3580090742174349  0.017559021762899404  0.6662570166187148  1.0000
  O   O13       1.0  0.8461442742383696  0.6533094304431445  0.22486861774764572  1.0000
  O   O14       1.0  0.6538499385264699  0.1533115206317888  0.2751299041475334  1.0000
  O   O15       1.0  0.1538586866385501  0.3466900303245454  0.7751256785514257  1.0000
  O   O16       1.0  0.3461278840420761  0.8466863434094946  0.724875354102522  1.0000
  F   F1        1.0  0.7960467303809438  0.8517015862602051  0.046858863849749376  1.0000
  F   F2        1.0  0.7039432605550715  0.3517031055962434  0.4531225139517899  1.0000
  F   F3        1.0  0.20395620107576207  0.1482938826093232  0.9531289958188649  1.0000
  F   F4        1.0  0.29604221690620136  0.6482859762567726  0.5468618769594042  1.0000
  F   F5        1.0  0.09343505386449638  0.8767832347152122  0.95952095238961  1.0000
  F   F6        1.0  0.4065685806887984  0.3767916770664429  0.5404714163205424  1.0000
  F   F7        1.0  0.9065912412231538  0.1232138309133504  0.04049155735329178  1.0000
  F   F8        1.0  0.5934265911556054  0.6232189609995159  0.45951442489838695  1.0000
  F   F9        1.0  0.19036736794246417  0.8969031537848977  0.11900979787932896  1.0000
  F   F10       1.0  0.3096248357331888  0.3969123539056483  0.3809830262768229  1.0000
  F   F11       1.0  0.8096123961215866  0.10309870214807401  0.8809963225769193  1.0000
  F   F12       1.0  0.6903839169830164  0.6030871068532022  0.6190067048260132  1.0000
