data_image0
_chemical_formula_structural       Cd2H48C44N8O8
_chemical_formula_sum              "Cd2 H48 C44 N8 O8"
_cell_length_a       7.29141852
_cell_length_b       13.379536228438639
_cell_length_c       14.87
_cell_angle_alpha    91.30836129562225
_cell_angle_beta     90.0
_cell_angle_gamma    90.0

_space_group_name_H-M_alt    "P 1"
_space_group_IT_number       1

loop_
  _space_group_symop_operation_xyz
  'x, y, z'

loop_
  _atom_site_type_symbol
  _atom_site_label
  _atom_site_symmetry_multiplicity
  _atom_site_fract_x
  _atom_site_fract_y
  _atom_site_fract_z
  _atom_site_occupancy
  Cd  Cd1       1.0  0.8196896095877904  0.021276089884935293  0.8147632685210267  1.0000
  Cd  Cd2       1.0  0.1803119648657869  0.5212780328728783  0.31476324118941784  1.0000
  H   H1        1.0  0.814759156082566  0.8069266784220943  0.6244428033896837  1.0000
  H   H2        1.0  0.1852410468957686  0.30692473543415827  0.12444148573138139  1.0000
  H   H3        1.0  0.4476646061457998  0.618513778285724  0.468927015617936  1.0000
  H   H4        1.0  0.5523355968325347  0.1185170685325829  0.968925132979322  1.0000
  H   H5        1.0  0.8088426118762939  0.3127508209773353  0.6291899630334185  1.0000
  H   H6        1.0  0.1911617055277759  0.8127505211503632  0.1291892171291451  1.0000
  H   H7        1.0  0.7566552358593697  0.2148369978553006  0.5515650486328738  1.0000
  H   H8        1.0  0.24334359564371505  0.7148374456333001  0.051564990582789995  1.0000
  H   H9        1.0  0.4988453193330074  0.24234811320284416  0.43197288929975025  1.0000
  H   H10       1.0  0.5011548836453272  0.7423485609808437  0.9319735037446221  1.0000
  H   H11       1.0  0.1869293329221762  0.7334969181178579  0.507765423099606  1.0000
  H   H12       1.0  0.813068127105673  0.23349871315477336  0.0077648547324357985  1.0000
  H   H13       1.0  0.1296702414498085  0.9514903041629876  0.482550664757312  1.0000
  H   H14       1.0  0.870329961528526  0.4514883611750448  0.9825513645838768  1.0000
  H   H15       1.0  0.5541473156309777  0.9222432500715385  0.6627756199334484  1.0000
  H   H16       1.0  0.4458501443968714  0.4222413070835954  0.16277497477010167  1.0000
  H   H17       1.0  0.7167439347590729  0.7475279682236433  0.3690617551604802  1.0000
  H   H18       1.0  0.2832548967440118  0.24752677284067195  0.8690597803664629  1.0000
  H   H19       1.0  0.8985864659981146  0.6912684513006653  0.3051520598073623  1.0000
  H   H20       1.0  0.1014137369802199  0.19126650831272227  0.8051507421490598  1.0000
  H   H21       1.0  0.6835350331803483  0.6284823429761843  0.31647209810454047  1.0000
  H   H22       1.0  0.3164637983227436  0.1284811475932131  0.8164707958054791  1.0000
  H   H23       1.0  0.1316698523567936  0.4862347974371132  0.5414145096265911  1.0000
  H   H24       1.0  0.8683276076710483  0.9862352452151055  0.0414144515765145  1.0000
  H   H25       1.0  0.8713105663285958  0.5865207711338272  0.6476786094512332  1.0000
  H   H26       1.0  0.1286882651744961  0.0865225661707427  0.14767669609415174  1.0000
  H   H27       1.0  0.5028239690183085  0.3008429689907145  0.6977476076221051  1.0000
  H   H28       1.0  0.4971789769105186  0.800843416768714  0.19774418709724267  1.0000
  H   H29       1.0  0.285275079779673  0.1640783583128851  0.6507360867725538  1.0000
  H   H30       1.0  0.7147264946739043  0.6640780584859128  0.1507346683733246  1.0000
  H   H31       1.0  0.4384880652825274  0.1245278125037288  0.5660055815510603  1.0000
  H   H32       1.0  0.5615121376958072  0.6245290078866998  0.0660028488803874  1.0000
  H   H33       1.0  0.867696729058423  0.05271063612309489  0.5873593136458837  1.0000
  H   H34       1.0  0.1322993594941764  0.5527110839010942  0.08735858310085118  1.0000
  H   H35       1.0  0.1043267504002756  0.8546119139265329  0.8271285965353525  1.0000
  H   H36       1.0  0.895673452578059  0.35461669938333523  0.3271294345950365  1.0000
  H   H37       1.0  0.3197100802272956  0.9166167750557577  0.814352023641291  1.0000
  H   H38       1.0  0.6802887512757961  0.4166215605125601  0.3143528617009749  1.0000
  H   H39       1.0  0.2852819371559008  0.7965416977624926  0.7639745726686653  1.0000
  H   H40       1.0  0.7147168943471911  0.2965457356143232  0.2639780853489384  1.0000
  H   H41       1.0  0.7158127030678259  0.37920991252697417  0.4790711412143337  1.0000
  H   H42       1.0  0.2841902428610013  0.879209612700002  0.9790703953100601  1.0000
  H   H43       1.0  0.562879498514917  0.4186049565020439  0.5638031591796561  1.0000
  H   H44       1.0  0.4371207044634176  0.9186054042800433  0.0638031011295723  1.0000
  H   H45       1.0  0.1929816531776893  0.23008290603983278  0.5002252769084945  1.0000
  H   H46       1.0  0.8070171783254025  0.7300826062128534  0.00022318601430979914  1.0000
  H   H47       1.0  0.2438963001673926  0.32813727889651284  0.5778698912191231  1.0000
  H   H48       1.0  0.7561080172366772  0.8281369790695337  0.077868472819894  1.0000
  C   C1        1.0  0.6769478375793483  0.7907941107413307  0.5997394767480343  1.0000
  C   C2        1.0  0.3230496224485009  0.2907929153583595  0.0997381744489658  1.0000
  C   C3        1.0  0.857523125692147  0.6280517225125803  0.43261590754029555  1.0000
  C   C4        1.0  0.1424757058109449  0.1280497795246376  0.9326145898819929  1.0000
  C   C5        1.0  0.3575257671534686  0.8333021818178776  0.5880768090074682  1.0000
  C   C6        1.0  0.642474435824866  0.3333024816448499  0.08807553742686737  1.0000
  C   C7        1.0  0.4695231785981733  0.685961203607732  0.5100571469925866  1.0000
  C   C8        1.0  0.5304742814296688  0.1859622510396761  0.010055218276271198  1.0000
  C   C9        1.0  0.6962774096802207  0.27804924101356215  0.5904756884351838  1.0000
  C   C10       1.0  0.3037227932981139  0.7780489411865901  0.0904735975409992  1.0000
  C   C11       1.0  0.6425786679434751  0.1640133166803608  0.7185350195170981  1.0000
  C   C12       1.0  0.3574270209358374  0.6640137644583601  0.21853428897205868  1.0000
  C   C13       1.0  0.4497725635971291  0.3060687277417457  0.47409101440401  1.0000
  C   C14       1.0  0.5502276393812053  0.8060691755197453  0.9740902838589702  1.0000
  C   C15       1.0  0.3248119681381283  0.7497326552847026  0.5323336803445997  1.0000
  C   C16       1.0  0.6751868633649636  0.24973445032161826  0.0323324394824738  1.0000
  C   C17       1.0  0.10271115256184518  0.9527096478715578  0.5541876860797215  1.0000
  C   C18       1.0  0.8972863074659969  0.4527099476985369  0.054187759489039394  1.0000
  C   C19       1.0  0.532269542525178  0.8546425657303658  0.6218790581402514  1.0000
  C   C20       1.0  0.4677306604531566  0.3546406227424228  0.1218777404819491  1.0000
  C   C21       1.0  0.7846497885571962  0.6766340839828544  0.3513308916871978  1.0000
  C   C22       1.0  0.21535178589638795  0.17663363620485475  0.8513289322524071  1.0000
  C   C23       1.0  0.6443094697024775  0.7073927953267471  0.5437718281228499  1.0000
  C   C24       1.0  0.3556879903253716  0.2073930951537193  0.043770556542249  1.0000
  C   C25       1.0  0.0239048135176887  0.5375219936944049  0.5228340211183351  1.0000
  C   C26       1.0  0.9760940179854032  0.037520798311433595  0.02283204632431079  1.0000
  C   C27       1.0  0.8984054312657932  0.5868190655174672  0.5760895797496628  1.0000
  C   C28       1.0  0.1015961431877841  0.0868163749245525  0.07608959172203808  1.0000
  C   C29       1.0  0.5515826569231166  0.23710142151260524  0.6556182925399625  1.0000
  C   C30       1.0  0.4484216604809532  0.7371011216856329  0.15561552915082189  1.0000
  C   C31       1.0  0.38962651673436  0.19112446336813343  0.6038458736590469  1.0000
  C   C32       1.0  0.6103764291944671  0.6911234159361896  0.1038437674056283  1.0000
  C   C33       1.0  0.97674958315244  0.0026046557208303997  0.6067286965106504  1.0000
  C   C34       1.0  0.0232478768754021  0.5026058511038015  0.1067279813248518  1.0000
  C   C35       1.0  0.1447317825887211  0.9146887018341658  0.698407233963209  1.0000
  C   C36       1.0  0.8552643059638854  0.4146912444760601  0.19840802594519144  1.0000
  C   C37       1.0  0.3589397581309015  0.3791321616099309  0.41106819886398677  1.0000
  C   C38       1.0  0.6410590733721833  0.8791326093879304  0.9110667958239913  1.0000
  C   C39       1.0  0.2180138193466377  0.8679611482982708  0.7804828779342826  1.0000
  C   C40       1.0  0.7819850121564542  0.36796518615010126  0.2804843731296883  1.0000
  C   C41       1.0  0.6115942992118875  0.35203148139176216  0.5258913862476291  1.0000
  C   C42       1.0  0.3884059037664471  0.8520311815647899  0.025890640343355593  1.0000
  C   C43       1.0  0.3050078656025335  0.26500801989008943  0.5391142851419204  1.0000
  C   C44       1.0  0.6949923373758011  0.7650084676680888  0.03911288210192509  1.0000
  N   N1        1.0  0.2086932735826537  0.8976148994942362  0.6127733393789966  1.0000
  N   N2        1.0  0.7913069293956809  0.3976159469261802  0.1127734281475483  1.0000
  N   N3        1.0  0.0035260628545046  0.9780198141829003  0.6955065969867674  1.0000
  N   N4        1.0  0.9964713971733444  0.478021609219816  0.1955073736095088  1.0000
  N   N5        1.0  0.997914189130924  0.5641337402611908  0.4345307148205961  1.0000
  N   N6        1.0  0.0020860138474106  0.06413254487821969  0.9345294125215344  1.0000
  N   N7        1.0  0.7933600278372168  0.6435189217686812  0.5184124911608946  1.0000
  N   N8        1.0  0.2066388036658751  0.1435192215956533  0.018411219580300998  1.0000
  O   O1        1.0  0.4122709445020334  0.47050444123102847  0.41357687732261167  1.0000
  O   O2        1.0  0.5877292584763083  0.9705078794289148  0.9135809156792049  1.0000
  O   O3        1.0  0.5915927042410374  0.07225826331384158  0.7144522363769921  1.0000
  O   O4        1.0  0.4084157275887677  0.5722602063017845  0.2144515365504205  1.0000
  O   O5        1.0  0.2296302146704932  0.34847736735708407  0.3598916703949441  1.0000
  O   O6        1.0  0.7703535306049076  0.8484785627400553  0.8598875927343597  1.0000
  O   O7        1.0  0.7693249241712721  0.19494173435279544  0.7710863691971283  1.0000
  O   O8        1.0  0.2306807647080475  0.6949421821307951  0.2710869836420001  1.0000
