data_image0
_chemical_formula_structural       Cu4H40C48N40O16
_chemical_formula_sum              "Cu4 H40 C48 N40 O16"
_cell_length_a       6.912464850400962
_cell_length_b       12.831467646049479
_cell_length_c       21.894816285163152
_cell_angle_alpha    84.92762933359124
_cell_angle_beta     80.90384101962385
_cell_angle_gamma    74.34829519998792

_space_group_name_H-M_alt    "P 1"
_space_group_IT_number       1

loop_
  _space_group_symop_operation_xyz
  'x, y, z'

loop_
  _atom_site_type_symbol
  _atom_site_label
  _atom_site_symmetry_multiplicity
  _atom_site_fract_x
  _atom_site_fract_y
  _atom_site_fract_z
  _atom_site_occupancy
  Cu  Cu1       1.0  0.4755231669335133  0.7227306493430417  0.657459785157684  1.0000
  Cu  Cu2       1.0  0.8556645051355217  0.7773465436757759  0.8425384348454159  1.0000
  Cu  Cu3       1.0  0.524443556575342  0.27727004725667104  0.342537102199003  1.0000
  Cu  Cu4       1.0  0.1443593682594368  0.2226478708300944  0.1574674333294368  1.0000
  H   H1        1.0  0.3874890805473401  0.9778587018545292  0.6546877129568927  1.0000
  H   H2        1.0  0.020130219590726018  0.5221056556175867  0.8452584438206969  1.0000
  H   H3        1.0  0.6124638953781698  0.0221551612171851  0.3453172960147199  1.0000
  H   H4        1.0  0.9798916000332911  0.4778901444194544  0.15473739468203718  1.0000
  H   H5        1.0  0.2188358089073645  0.7307518130071812  0.434471562831888  1.0000
  H   H6        1.0  0.384240759882218  0.7694469352801431  0.0655055707843673  1.0000
  H   H7        1.0  0.7811211779843958  0.26927811010770597  0.5655268213658999  1.0000
  H   H8        1.0  0.6157833270851185  0.2305441003537111  0.9344945479881729  1.0000
  H   H9        1.0  0.17437547308407633  0.9176828623404134  0.3844118539055827  1.0000
  H   H10       1.0  0.4766448789377479  0.5825032008621135  0.1155891334811585  1.0000
  H   H11       1.0  0.8255815416932608  0.0823439079073722  0.6155903688837014  1.0000
  H   H12       1.0  0.5233877468210866  0.4174853517049468  0.8844088848915206  1.0000
  H   H13       1.0  0.22422856851757444  0.14778253487735066  0.4680835314308922  1.0000
  H   H14       1.0  0.8404318545000893  0.35224877786564673  0.031832796077708315  1.0000
  H   H15       1.0  0.7757389653665927  0.8522466940309384  0.5319198565899156  1.0000
  H   H16       1.0  0.1595970304399046  0.6477414311634533  0.9681666788372284  1.0000
  H   H17       1.0  0.1734977327776761  0.10513724660125227  0.3982433035947608  1.0000
  H   H18       1.0  0.6774428768055644  0.3949431282132848  0.10173487949412419  1.0000
  H   H19       1.0  0.8264603214690285  0.894890375028083  0.6017606450214288  1.0000
  H   H20       1.0  0.32260805242939505  0.6050438675011802  0.8982659852585044  1.0000
  H   H21       1.0  0.5526873566397655  0.4806678108577814  0.6410917680043582  1.0000
  H   H22       1.0  0.6742071329333117  0.019542086237230197  0.8588646785319226  1.0000
  H   H23       1.0  0.4472695002213385  0.5193473441383745  0.3588992709819649  1.0000
  H   H24       1.0  0.3257980403291259  0.9804425604473294  0.14113948688063263  1.0000
  H   H25       1.0  0.8479018434188462  0.7807701291633363  0.41516383122056055  1.0000
  H   H26       1.0  0.04300851236705216  0.7190411449466652  0.08475076944021248  1.0000
  H   H27       1.0  0.15209576120945906  0.21923943469305127  0.5848310159338865  1.0000
  H   H28       1.0  0.9570192256379432  0.2809514624272253  0.9152472501965149  1.0000
  H   H29       1.0  0.9211256090472092  0.6067459139913964  0.36216742536882407  1.0000
  H   H30       1.0  0.8894479118968308  0.8931318292412556  0.13777235967225465  1.0000
  H   H31       1.0  0.0788840616190641  0.39326288920815927  0.6378296142458098  1.0000
  H   H32       1.0  0.110569796778627  0.10685427029751789  0.8622247092769867  1.0000
  H   H33       1.0  0.7956050142872259  0.3609224417013832  0.45058839299123576  1.0000
  H   H34       1.0  0.6067353791395362  0.13928628660789846  0.04937914817580239  1.0000
  H   H35       1.0  0.2043690623694873  0.6390903588713213  0.5494060494038067  1.0000
  H   H36       1.0  0.3932612451302831  0.8607039744862914  0.9506223659028521  1.0000
  H   H37       1.0  0.9260195822330672  0.3990243338192911  0.3809220288432229  1.0000
  H   H38       1.0  0.7059932845320988  0.10101442067730197  0.1189947129275453  1.0000
  H   H39       1.0  0.0739831496261942  0.6009836685568998  0.6190753989731448  1.0000
  H   H40       1.0  0.29401251800246814  0.8989750297041823  0.8810068546276781  1.0000
  C   C1        1.0  0.3711732937831302  0.7515955560531677  0.7819633413543414  1.0000
  C   C2        1.0  0.9055610827148544  0.7486210140650656  0.7180197185514672  1.0000
  C   C3        1.0  0.6288389774464278  0.2483896977362718  0.2180322175760736  1.0000
  C   C4        1.0  0.09447191589148221  0.25137265430092975  0.2819889425267661  1.0000
  C   C5        1.0  0.44059253876796595  0.6275203264305915  0.7741850954906013  1.0000
  C   C6        1.0  0.8429639348964244  0.8726555254623989  0.7258263954183377  1.0000
  C   C7        1.0  0.5594392869986252  0.3724698680815521  0.22581377898114136  1.0000
  C   C8        1.0  0.15704409627282706  0.1273413492108944  0.2741805631231101  1.0000
  C   C9        1.0  0.34998959922376127  0.9531389598290686  0.6128702724387836  1.0000
  C   C10       1.0  0.9159635964518529  0.5468436822636988  0.8870731209739374  1.0000
  C   C11       1.0  0.6499615107134389  0.04687572609259398  0.3871352365183967  1.0000
  C   C12       1.0  0.08405718506168826  0.45314814581110596  0.11292620000679682  1.0000
  C   C13       1.0  0.3010931710792876  0.8495242171292714  0.5475979577739949  1.0000
  C   C14       1.0  0.6981831780483462  0.6505213741855085  0.9523392381834271  1.0000
  C   C15       1.0  0.6988757233122558  0.15049923456221845  0.4524011361227096  1.0000
  C   C16       1.0  0.30183203202695813  0.3494728901527323  0.04766021304057941  1.0000
  C   C17       1.0  0.23402459970667186  0.7972484566308393  0.4594646430647344  1.0000
  C   C18       1.0  0.49081837505658393  0.7028814788875763  0.040504574145551024  1.0000
  C   C19       1.0  0.7659254306936277  0.20278068718495482  0.5405350424770532  1.0000
  C   C20       1.0  0.5092031710802872  0.2971087502906967  0.9594957170206513  1.0000
  C   C21       1.0  0.20873499408160265  0.900224756831399  0.431584614509795  1.0000
  C   C22       1.0  0.5407018337962483  0.5999163460830701  0.06840307160151579  1.0000
  C   C23       1.0  0.7912016111322515  0.0998078042773471  0.5684223810008078  1.0000
  C   C24       1.0  0.4593221457054497  0.40007793927713914  0.9315973177197278  1.0000
  C   C25       1.0  0.22478865597895495  0.9862237833666538  0.4647785097284611  1.0000
  C   C26       1.0  0.675880929752502  0.5138568892270994  0.035196028271670274  1.0000
  C   C27       1.0  0.7751741431870444  0.013803076230743696  0.5352275344569222  1.0000
  C   C28       1.0  0.32414944770636117  0.48613328563816777  0.9648020049938283  1.0000
  C   C29       1.0  0.6104848520376651  0.5161356538054349  0.5975476277171765  1.0000
  C   C30       1.0  0.7238043573622692  0.9839944302457507  0.9024060447073267  1.0000
  C   C31       1.0  0.3894779939422435  0.48387622243046735  0.4024419398340697  1.0000
  C   C32       1.0  0.27620771049603127  0.015991071072868096  0.09760001535916268  1.0000
  C   C33       1.0  0.698651347802688  0.6359072802333472  0.5316533601207354  1.0000
  C   C34       1.0  0.8658616786197585  0.8641508801906282  0.9682842410083126  1.0000
  C   C35       1.0  0.3013223465423566  0.36410631978762337  0.46834059718156607  1.0000
  C   C36       1.0  0.13416069539494663  0.13583455417544593  0.031719032650315206  1.0000
  C   C37       1.0  0.8177776420818437  0.7085439339322046  0.4406549437555753  1.0000
  C   C38       1.0  0.9663561383080079  0.7913904163209863  0.05927681451323963  1.0000
  C   C39       1.0  0.18220922850836271  0.29146967071637414  0.5593392792647548  1.0000
  C   C40       1.0  0.03365913502179304  0.2086006521015945  0.9407246490177316  1.0000
  C   C41       1.0  0.8565538041801802  0.6122517430837178  0.41079302829304964  1.0000
  C   C42       1.0  0.8790627261941852  0.8877178458110109  0.08913990327175718  1.0000
  C   C43       1.0  0.14343258547494742  0.38776589997734584  0.5892005236121207  1.0000
  C   C44       1.0  0.12093812867177434  0.11226670964652637  0.9108603688086775  1.0000
  C   C45       1.0  0.8152928026113317  0.5196395447367053  0.44393107281451444  1.0000
  C   C46       1.0  0.778570802159912  0.9804513036676352  0.0559968223574501  1.0000
  C   C47       1.0  0.18469720605227022  0.4803675674665015  0.556062921807488  1.0000
  C   C48       1.0  0.22142961734100916  0.019534115810998297  0.9440057040570409  1.0000
  N   N1        1.0  0.30005544593385025  0.021853865784869697  0.5654775350977346  1.0000
  N   N2        1.0  0.8872797153171492  0.4781440135876238  0.9344604845967623  1.0000
  N   N3        1.0  0.6999082164788888  0.9781681559517847  0.43452966529554266  1.0000
  N   N4        1.0  0.11273699611924572  0.5218502058246557  0.0655370684066838  1.0000
  N   N5        1.0  0.3547163429475193  0.8483868670869297  0.6046889413773471  1.0000
  N   N6        1.0  0.807797393646446  0.6516344010212406  0.89524777181375  1.0000
  N   N7        1.0  0.6452359479347081  0.1516284980220775  0.3953109882685979  1.0000
  N   N8        1.0  0.19222819468198077  0.3483565896866594  0.1047504487382369  1.0000
  N   N9        1.0  0.278069145806647  0.7690777381439275  0.5175304823857729  1.0000
  N   N10       1.0  0.5645560100424304  0.7309765636282252  0.98239869403519  1.0000
  N   N11       1.0  0.7219035968693746  0.23094080735916825  0.4824668844199707  1.0000
  N   N12       1.0  0.43547463342024173  0.2690160722772673  0.017600551442889405  1.0000
  N   N13       1.0  0.19692201692539874  0.08863532524259198  0.44402574296906744  1.0000
  N   N14       1.0  0.7297759955411607  0.41141914823914033  0.05590602207517038  1.0000
  N   N15       1.0  0.8030452244282814  0.9113914749118945  0.5559778025525617  1.0000
  N   N16       1.0  0.2702578901208171  0.5885758911410761  0.9440920088877577  1.0000
  N   N17       1.0  0.27150845836708026  0.955589796249498  0.5237204142018966  1.0000
  N   N18       1.0  0.7507726992144229  0.5444612008267312  0.9762232436842169  1.0000
  N   N19       1.0  0.7284636795826673  0.04443293833601559  0.4762826734845547  1.0000
  N   N20       1.0  0.24924798367570852  0.45553386621228487  0.023775891274084405  1.0000
  N   N21       1.0  0.6779847282017997  0.46114629942437785  0.5466349511611099  1.0000
  N   N22       1.0  0.6856417919605776  0.03902892428936158  0.953292750053606  1.0000
  N   N23       1.0  0.32198794435833383  0.5388664276907632  0.4533563671720131  1.0000
  N   N24       1.0  0.3143627683553023  0.9609540177546871  0.0467078917691026  1.0000
  N   N25       1.0  0.6184912506024814  0.6216217455104811  0.5914929246710301  1.0000
  N   N26       1.0  0.8310898996586998  0.878453945810598  0.9084801218255408  1.0000
  N   N27       1.0  0.38147113348571077  0.3783910270329257  0.4085002669276818  1.0000
  N   N28       1.0  0.168937290013119  0.1215306404264354  0.09152159483321042  1.0000
  N   N29       1.0  0.7423023812690701  0.7227624189164601  0.5008958138836803  1.0000
  N   N30       1.0  0.9655173411537139  0.7772053501950325  0.999022999776173  1.0000
  N   N31       1.0  0.25768235732902417  0.2772495475418494  0.4990976969096366  1.0000
  N   N32       1.0  0.03451124241356499  0.22278244084239418  0.0009770892107212959  1.0000
  N   N33       1.0  0.8461784963270985  0.4215512177988855  0.4236543473568375  1.0000
  N   N34       1.0  0.69115606105116  0.07855814653912317  0.07628277128124948  1.0000
  N   N35       1.0  0.15380744912076252  0.5784673000454105  0.5763419154535326  1.0000
  N   N36       1.0  0.3088417189958933  0.9214297054481333  0.9237197415044703  1.0000
  N   N37       1.0  0.7331566510691873  0.5373366804498545  0.504866634541976  1.0000
  N   N38       1.0  0.7752004690534308  0.9627929147479574  0.9950539585535836  1.0000
  N   N39       1.0  0.26682545691726756  0.4626777077549418  0.4951264060514333  1.0000
  N   N40       1.0  0.22480074159751243  0.03719087354772909  0.0049481683329802  1.0000
  O   O1        1.0  0.3884446149222641  0.8102083605987286  0.7312439455398234  1.0000
  O   O2        1.0  0.9299436582581039  0.6899467154162903  0.7687575072269511  1.0000
  O   O3        1.0  0.6115393460666568  0.18978996005325396  0.2687554320833172  1.0000
  O   O4        1.0  0.07008703701405491  0.31005766488649295  0.23125840090769154  1.0000
  O   O5        1.0  0.3049294933288492  0.7871759366509892  0.8343947142652154  1.0000
  O   O6        1.0  0.9279274694557884  0.7131516151633192  0.6655593786637368  1.0000
  O   O7        1.0  0.6951232508218723  0.21280127572060786  0.16560389719187904  1.0000
  O   O8        1.0  0.0721034162017844  0.28683727290742667  0.3344528653501158  1.0000
  O   O9        1.0  0.43405432740929223  0.5632854305162452  0.8198793333253462  1.0000
  O   O10       1.0  0.8183142973389865  0.9368596936857471  0.680109116908092  1.0000
  O   O11       1.0  0.5660252258029174  0.4367120655152518  0.1801199626889982  1.0000
  O   O12       1.0  0.1816863249112474  0.06313138274876447  0.3198926094120154  1.0000
  O   O13       1.0  0.5036172975267946  0.5992850356462397  0.7177696482242553  1.0000
  O   O14       1.0  0.8206192160637544  0.9008869083385205  0.7822558280738932  1.0000
  O   O15       1.0  0.4963893213255872  0.4007058718465686  0.2822249417847331  1.0000
  O   O16       1.0  0.17939744918066947  0.099116389950197  0.2177485005220063  1.0000
