data_image0
_chemical_formula_structural       Al4H44C56N16O36
_chemical_formula_sum              "Al4 H44 C56 N16 O36"
_cell_length_a       6.610006358636246
_cell_length_b       20.61240519196982
_cell_length_c       23.374875664151737
_cell_angle_alpha    77.64484785425637
_cell_angle_beta     92.25874595303154
_cell_angle_gamma    91.86055322176428

_space_group_name_H-M_alt    "P 1"
_space_group_IT_number       1

loop_
  _space_group_symop_operation_xyz
  'x, y, z'

loop_
  _atom_site_type_symbol
  _atom_site_label
  _atom_site_symmetry_multiplicity
  _atom_site_fract_x
  _atom_site_fract_y
  _atom_site_fract_z
  _atom_site_occupancy
  Al  Al1       1.0  0.2350215871993839  0.2522857232531095  0.25426259272840207  1.0000
  Al  Al2       1.0  0.7470831477276434  0.7481748465534536  0.7499789098540716  1.0000
  Al  Al3       1.0  0.7343366272567381  0.2508668260859679  0.25037072324774107  1.0000
  Al  Al4       1.0  0.24829024332328234  0.7498098137422601  0.7550362716950474  1.0000
  H   H1        1.0  0.21932890200660893  0.4873024477898512  0.0032390381052919996  1.0000
  H   H2        1.0  0.7601130909522524  0.5119571934008675  0.00037815472079220014  1.0000
  H   H3        1.0  0.7213456671767774  0.01462209263048209  0.5052020321391666  1.0000
  H   H4        1.0  0.25740455619830277  0.9913594609035884  0.5033213388871545  1.0000
  H   H5        1.0  0.8065740307326409  0.46712775777331933  0.5338918033297446  1.0000
  H   H6        1.0  0.1678922574061232  0.540017141043677  0.4639970500231172  1.0000
  H   H7        1.0  0.30220675670548763  0.03907015561613753  0.9654034322753446  1.0000
  H   H8        1.0  0.6702319931350686  0.9687120715648163  0.03572484879079949  1.0000
  H   H9        1.0  0.238862432448343  0.5049211759993638  0.697680645779876  1.0000
  H   H10       1.0  0.08806455420115364  0.5048855798275724  0.7839916416833574  1.0000
  H   H11       1.0  0.9403248070732247  0.5745409951614774  0.7514350568844678  1.0000
  H   H12       1.0  0.19441203196010554  0.5868571700307115  0.7761158502708199  1.0000
  H   H13       1.0  0.750503387010518  0.5006945432650342  0.2995029748448417  1.0000
  H   H14       1.0  0.9102489405553983  0.499963771937047  0.21479725978754524  1.0000
  H   H15       1.0  0.8029862319123994  0.4181573131162538  0.22194412662008736  1.0000
  H   H16       1.0  0.0543769605305684  0.4299392006216749  0.2488135371218405  1.0000
  H   H17       1.0  0.7149140827493666  0.9894510066148501  0.796399540048199  1.0000
  H   H18       1.0  0.0418501390417632  0.9455051579707713  0.8276419803058063  1.0000
  H   H19       1.0  0.9748632705359557  0.9348088740111746  0.7555761136281874  1.0000
  H   H20       1.0  0.9502700307889286  0.8665270604555458  0.8164809555147131  1.0000
  H   H21       1.0  0.19915747528966676  0.013985043026664798  0.20074650133303612  1.0000
  H   H22       1.0  0.9057390881891152  0.0704934012966447  0.15362826670998692  1.0000
  H   H23       1.0  0.0016663508389811  0.14346916281252223  0.17584273807823786  1.0000
  H   H24       1.0  0.9278047465896934  0.0721476977607907  0.229422388646455  1.0000
  H   H25       1.0  0.2121668250040969  0.2693780814580364  0.4806666806535135  1.0000
  H   H26       1.0  0.0402824535776105  0.17698969755158342  0.4611589035674371  1.0000
  H   H27       1.0  0.1464121956901394  0.2019479427987179  0.39065865139730244  1.0000
  H   H28       1.0  0.8988090063212512  0.22630523878076753  0.40242364959742366  1.0000
  H   H29       1.0  0.7603671561512827  0.736195693747895  0.5212768179637095  1.0000
  H   H30       1.0  0.9296050474827383  0.8287607152046093  0.5410531853770308  1.0000
  H   H31       1.0  0.0796648216097182  0.7791516491018344  0.5975445016828402  1.0000
  H   H32       1.0  0.8328738927761634  0.8017564420280365  0.6125550114320717  1.0000
  H   H33       1.0  0.7054166049726831  0.23744865805548443  0.1175884819681343  1.0000
  H   H34       1.0  0.8095541212480767  0.30827639189720196  0.0362290325748731  1.0000
  H   H35       1.0  0.6978597256793081  0.25822915576192434  0.9897212291476832  1.0000
  H   H36       1.0  0.939808982130181  0.23804858332883327  0.023790359596887398  1.0000
  H   H37       1.0  0.2900840707234523  0.7575829035361892  0.9814006479359635  1.0000
  H   H38       1.0  0.45098710953044474  0.6654764870215999  0.9684154533410522  1.0000
  H   H39       1.0  0.6354668942279814  0.716789166153589  0.9253990402957583  1.0000
  H   H40       1.0  0.4037659397217581  0.6939141379722785  0.8919616046271982  1.0000
  H   H41       1.0  0.5033315909458906  0.32823550284000197  0.2707497593580753  1.0000
  H   H42       1.0  0.47643062244306833  0.6764538723761219  0.7276094574274837  1.0000
  H   H43       1.0  0.9822296837529906  0.1633641137189343  0.2702219910396693  1.0000
  H   H44       1.0  0.0017765136550096266  0.8351059355110664  0.7275021634660065  1.0000
  C   C1        1.0  0.4555346840245421  0.18146184163169474  0.18129883129936536  1.0000
  C   C2        1.0  0.5257140266892009  0.8129806094698182  0.8283392853021496  1.0000
  C   C3        1.0  0.9990334073838837  0.3244829591838041  0.32150553215692673  1.0000
  C   C4        1.0  0.986016704113105  0.6800491779771181  0.678948877017092  1.0000
  C   C5        1.0  0.49757239363274414  0.16314780878718693  0.3399221528954399  1.0000
  C   C6        1.0  0.4876215481946957  0.8421858376328758  0.6678248565037137  1.0000
  C   C7        1.0  0.9789901920699152  0.3358080896701168  0.1628921232661469  1.0000
  C   C8        1.0  0.9984423832464274  0.6614395785925921  0.8392107701740416  1.0000
  C   C9        1.0  0.9841718547684124  0.6122497298309568  0.8929487369808199  1.0000
  C   C10       1.0  0.9944739979103332  0.3859327015824903  0.10980742191626552  1.0000
  C   C11       1.0  0.4760356364883123  0.8934690323298259  0.615330280589724  1.0000
  C   C12       1.0  0.506257898868185  0.11276542231298947  0.39308905369955494  1.0000
  C   C13       1.0  0.9166984487335409  0.5193774541115632  0.9864196955726497  1.0000
  C   C14       1.0  0.062725495778551  0.4798749694401323  0.017180932138032304  1.0000
  C   C15       1.0  0.4144823580010026  0.9841465278801278  0.5193723062595694  1.0000
  C   C16       1.0  0.5643348950876688  0.021957594372331406  0.48911701178339945  1.0000
  C   C17       1.0  0.023109673702599306  0.42982102811323847  0.06656063176991013  1.0000
  C   C18       1.0  0.9561594256408484  0.5692232001047798  0.9368421834022628  1.0000
  C   C19       1.0  0.5289162869030193  0.07032415627445229  0.43790739242965765  1.0000
  C   C20       1.0  0.4508113996455664  0.9358379455364343  0.5705783866948125  1.0000
  C   C21       1.0  0.9996746292640708  0.6410084851345417  0.6324614314516027  1.0000
  C   C22       1.0  0.9821519895851409  0.36408551441191855  0.36728445604207854  1.0000
  C   C23       1.0  0.546452477571684  0.8520594098669959  0.8758398010486771  1.0000
  C   C24       1.0  0.4473316626817052  0.1419444569392283  0.1346158403703086  1.0000
  C   C25       1.0  0.10692914573378688  0.580309011652865  0.6449152063658231  1.0000
  C   C26       1.0  0.8768650209134066  0.4251788284077874  0.3536220226782519  1.0000
  C   C27       1.0  0.636871878333352  0.9158349371588843  0.8615992445704279  1.0000
  C   C28       1.0  0.32149853586647476  0.08496212147135651  0.14109045131936426  1.0000
  C   C29       1.0  0.15143666700993924  0.5512158485419647  0.5958799394236821  1.0000
  C   C30       1.0  0.8290745156535382  0.45494379979650995  0.40195827551327307  1.0000
  C   C31       1.0  0.6352109683477707  0.9563104850147894  0.9037783838916125  1.0000
  C   C32       1.0  0.31262766618668547  0.04900667403530431  0.0954799840208409  1.0000
  C   C33       1.0  0.049684796394196  0.5712489288179441  0.5413866904356722  1.0000
  C   C34       1.0  0.926938958010581  0.4352900266303906  0.45706144896482936  1.0000
  C   C35       1.0  0.5450689148238297  0.9359834337266904  0.9580276207582871  1.0000
  C   C36       1.0  0.4282330532517165  0.06821715707221901  0.04513476453359291  1.0000
  C   C37       1.0  0.9269588603803669  0.6268956006430813  0.5319127330657097  1.0000
  C   C38       1.0  0.048556067711103906  0.37927999558243636  0.46784046895233894  1.0000
  C   C39       1.0  0.4484003707965556  0.8729862426787279  0.9699953664523945  1.0000
  C   C40       1.0  0.5611723662676624  0.12275363273246141  0.042462915235752505  1.0000
  C   C41       1.0  0.9168517607949699  0.6668179684772467  0.5755762621918522  1.0000
  C   C42       1.0  0.060749421121947506  0.3386131917876155  0.42481231696909566  1.0000
  C   C43       1.0  0.4535282568525503  0.8283791626639214  0.9304394788928222  1.0000
  C   C44       1.0  0.573626956295513  0.16251679451595893  0.0853198507021702  1.0000
  C   C45       1.0  0.053824149830688804  0.5290203938370084  0.4973033734789781  1.0000
  C   C46       1.0  0.9205372975200632  0.47818401474932415  0.5005593941768112  1.0000
  C   C47       1.0  0.5528938719033434  0.9795560209004178  0.0011150991035151002  1.0000
  C   C48       1.0  0.4227265187940858  0.02838591235653347  0.9990708241673474  1.0000
  C   C49       1.0  0.0935524399444176  0.5545827489751788  0.7553484953889794  1.0000
  C   C50       1.0  0.901683358759314  0.4503451722560002  0.24348844088200391  1.0000
  C   C51       1.0  0.9344358345143108  0.9201327238803854  0.8018008963106809  1.0000
  C   C52       1.0  0.9995801621764855  0.08924192864556349  0.18703585424807304  1.0000
  C   C53       1.0  0.05145538409289681  0.217698186269125  0.42235115851979543  1.0000
  C   C54       1.0  0.924448614886515  0.7873296030752357  0.5794265166497966  1.0000
  C   C55       1.0  0.7904547197747718  0.257204923292484  0.029929617851777807  1.0000
  C   C56       1.0  0.47206480503199094  0.7076798048974027  0.9313484691443606  1.0000
  N   N1        1.0  0.1632375303603055  0.547555428630325  0.6991831140815706  1.0000
  N   N2        1.0  0.8256775900753867  0.45772481992580083  0.2988406415796163  1.0000
  N   N3        1.0  0.7229411099643529  0.9387697205460057  0.8066989742083664  1.0000
  N   N4        1.0  0.208434948972787  0.0648065023879454  0.19239088626422782  1.0000
  N   N5        1.0  0.13128644902945302  0.2761820173754757  0.4416647619447858  1.0000
  N   N6        1.0  0.8438275493605616  0.7290763538062421  0.5598446152375162  1.0000
  N   N7        1.0  0.6902910239453348  0.21878211326768585  0.0807529177144133  1.0000
  N   N8        1.0  0.3794347123769199  0.7650498022830802  0.9457935931624775  1.0000
  N   N9        1.0  0.8331278723604214  0.6496381148381475  0.47446714914054405  1.0000
  N   N10       1.0  0.13872431584027822  0.3570369642341262  0.5258190021985313  1.0000
  N   N11       1.0  0.3553723282646076  0.850611592641215  0.0262663802245271  1.0000
  N   N12       1.0  0.7066980527156873  0.13486851463294156  0.9951304539164313  1.0000
  N   N13       1.0  0.680590102921343  0.506408854463892  0.39484549421680987  1.0000
  N   N14       1.0  0.3002672271015427  0.5000702884629648  0.6017208550032223  1.0000
  N   N15       1.0  0.17741067421415832  0.9910515959512554  0.0999576193225664  1.0000
  N   N16       1.0  0.7538333158415185  0.01860131626565222  0.8923949800598692  1.0000
  O   O1        1.0  0.6685309884313426  0.18760108071154488  0.3216733097771823  1.0000
  O   O2        1.0  0.3173742886304041  0.8197584839937238  0.6883100984033774  1.0000
  O   O3        1.0  0.14315281713042793  0.3239131590096136  0.19278639275195533  1.0000
  O   O4        1.0  0.8313565747891047  0.6760408079237407  0.8114884008540245  1.0000
  O   O5        1.0  0.2937679788425243  0.20498643216292578  0.19471923246536701  1.0000
  O   O6        1.0  0.6861803082511385  0.7931143413205889  0.8103786564616511  1.0000
  O   O7        1.0  0.83432454271216  0.3143805959053054  0.2935737895346691  1.0000
  O   O8        1.0  0.15365321372643598  0.6918960595868172  0.7044668126175183  1.0000
  O   O9        1.0  0.3240131335793208  0.17870240006860172  0.31614388744463173  1.0000
  O   O10       1.0  0.6625347130542707  0.823633568122091  0.6887255128017812  1.0000
  O   O11       1.0  0.8052467988700369  0.3089106136783499  0.1757524438045266  1.0000
  O   O12       1.0  0.1731326972137879  0.6846098493105046  0.8235316928507289  1.0000
  O   O13       1.0  0.17102930408220368  0.3028343863236246  0.3120168757997916  1.0000
  O   O14       1.0  0.8135508413385465  0.6993129775950068  0.6909752507954892  1.0000
  O   O15       1.0  0.6306194038359862  0.1910084408518742  0.20407737195666437  1.0000
  O   O16       1.0  0.34762764938980695  0.8030841028956103  0.8085050919261646  1.0000
  O   O17       1.0  0.48918304913832594  0.2926569090387403  0.24939875857349136  1.0000
  O   O18       1.0  0.49255023601470777  0.708850958107  0.7522704991437408  1.0000
  O   O19       1.0  0.9826566560639094  0.2113149406473909  0.25791744455658266  1.0000
  O   O20       1.0  0.9998043634374413  0.7890047842959121  0.7480953972561222  1.0000
  O   O21       1.0  0.6834255401897238  0.6870942248946365  0.47022089012047996  1.0000
  O   O22       1.0  0.9030410059181904  0.6330153106014862  0.4314903268013169  1.0000
  O   O23       1.0  0.2871840389969194  0.31888956308002037  0.5313567496772578  1.0000
  O   O24       1.0  0.0670691138838322  0.3747595830838292  0.5680564598281422  1.0000
  O   O25       1.0  0.2114111697794741  0.8085572690575586  0.029604055851287104  1.0000
  O   O26       1.0  0.42161149027463557  0.8726752720611092  0.06876279319574512  1.0000
  O   O27       1.0  0.8887745364719137  0.131503414637848  0.0104963615816729  1.0000
  O   O28       1.0  0.6396343935922816  0.14662585852421015  0.9438693888650463  1.0000
  O   O29       1.0  0.6381868930882246  0.5405069648473743  0.3442532807885144  1.0000
  O   O30       1.0  0.5931874146136665  0.514039425597069  0.43876075237069767  1.0000
  O   O31       1.0  0.38407466237884336  0.49280837228175767  0.5571007480338607  1.0000
  O   O32       1.0  0.34682833561947046  0.4657313716994906  0.6519131139937571  1.0000
  O   O33       1.0  0.16063546370050832  0.9529497094236563  0.1490363045257226  1.0000
  O   O34       1.0  0.08546434859063373  0.9823941620832957  0.05480376817234861  1.0000
  O   O35       1.0  0.87545256119175  0.02890549982668493  0.9312427666961793  1.0000
  O   O36       1.0  0.7301701450195565  0.05660331198802032  0.8433678533347831  1.0000
