data_image0
_chemical_formula_structural       Cd2H32C32Br4N4O8
_chemical_formula_sum              "Cd2 H32 C32 Br4 N4 O8"
_cell_length_a       7.641293196051333
_cell_length_b       9.321189359631406
_cell_length_c       13.949407302588448
_cell_angle_alpha    74.56737537657428
_cell_angle_beta     86.84824899056038
_cell_angle_gamma    72.86837592716675

_space_group_name_H-M_alt    "P 1"
_space_group_IT_number       1

loop_
  _space_group_symop_operation_xyz
  'x, y, z'

loop_
  _atom_site_type_symbol
  _atom_site_label
  _atom_site_symmetry_multiplicity
  _atom_site_fract_x
  _atom_site_fract_y
  _atom_site_fract_z
  _atom_site_occupancy
  Cd  Cd1       1.0  0.4625618885207032  0.16006999365042418  0.24871411090243367  1.0000
  Cd  Cd2       1.0  0.5374359981727537  0.8399282251316222  0.75128725440716  1.0000
  H   H1        1.0  0.27608756841578236  0.5215195709760678  0.4734164159843034  1.0000
  H   H2        1.0  0.7239143004151246  0.47848219209277676  0.5265827655655357  1.0000
  H   H3        1.0  0.03266069000206068  0.6954640922148911  0.34770786763277783  1.0000
  H   H4        1.0  0.9673385681294987  0.3045376405032343  0.6522913951471668  1.0000
  H   H5        1.0  0.8098185141115691  0.9521623287560315  0.565044971736839  1.0000
  H   H6        1.0  0.19017765534390213  0.04783703507424521  0.4349555216003724  1.0000
  H   H7        1.0  0.0700261355964145  0.7738461854257112  0.6811865062952054  1.0000
  H   H8        1.0  0.9299722326700889  0.22615436897887525  0.3188129932244834  1.0000
  H   H9        1.0  0.3755340024168916  0.621651227348863  0.6855848977003378  1.0000
  H   H10       1.0  0.6244644211491632  0.3783528345602248  0.3144146892929386  1.0000
  H   H11       1.0  0.4454608172327283  0.49232378561343637  0.6082665002625092  1.0000
  H   H12       1.0  0.5545415884707765  0.5076838205824572  0.3917309029710197  1.0000
  H   H13       1.0  0.2543311974691491  0.33207583443382294  0.6952131560503931  1.0000
  H   H14       1.0  0.745677561891469  0.6679213309545275  0.3047852146125792  1.0000
  H   H15       1.0  0.13523734994364398  0.47628462049635084  0.7553255273335611  1.0000
  H   H16       1.0  0.8647661988071672  0.5237124754467642  0.24467085640142025  1.0000
  H   H17       1.0  0.5484290260167626  0.3103996411630375  0.7876327040874574  1.0000
  H   H18       1.0  0.451572828428972  0.6896021335642002  0.21236934331330565  1.0000
  H   H19       1.0  0.4092641969990325  0.4308782076194362  0.8574636326678448  1.0000
  H   H20       1.0  0.5907324432405973  0.5691235005771702  0.1425371442676635  1.0000
  H   H21       1.0  0.38591281523044774  0.11291118384247768  0.8422754804165041  1.0000
  H   H22       1.0  0.6140872702740408  0.887088225513878  0.15772489107556006  1.0000
  H   H23       1.0  0.48141670531116176  0.14928307649726946  0.944451609296728  1.0000
  H   H24       1.0  0.5185842736546818  0.8507175082580287  0.055547808992862706  1.0000
  H   H25       1.0  0.2887089701787743  0.3237529147121593  0.02897481362697361  1.0000
  H   H26       1.0  0.7112906373489664  0.67624415610706  0.9710267071922662  1.0000
  H   H27       1.0  0.0013725569856717584  0.3483211923835014  0.12725543749525065  1.0000
  H   H28       1.0  0.9986291868609598  0.6516735673347114  0.8727464349583302  1.0000
  H   H29       1.0  0.7980711065270326  0.14754738295255265  0.9268069909168661  1.0000
  H   H30       1.0  0.20192766643519633  0.8524520170576366  0.0731948541157124  1.0000
  H   H31       1.0  0.09417309336703987  0.13173358422663034  0.8358700770820849  1.0000
  H   H32       1.0  0.9058278195103708  0.868263501767956  0.16413140312210564  1.0000
  C   C1        1.0  0.7539414926756008  0.9496426337056647  0.3725075757134065  1.0000
  C   C2        1.0  0.246058177344274  0.050357938788870606  0.6274925996539624  1.0000
  C   C3        1.0  0.1710124015445871  0.6198537889817713  0.48900339667285664  1.0000
  C   C4        1.0  0.8289868565869722  0.38014794373635397  0.5109958661070879  1.0000
  C   C5        1.0  0.0342606783027009  0.716110392244353  0.4207674810134991  1.0000
  C   C6        1.0  0.9657376899637954  0.283890162160226  0.5792320185061899  1.0000
  C   C7        1.0  0.9022563313514879  0.8395581557978318  0.4464657623498596  1.0000
  C   C8        1.0  0.09773984170027461  0.1604412051178414  0.5535340145246297  1.0000
  C   C9        1.0  0.911439364270137  0.8593744861200037  0.5415193343340194  1.0000
  C   C10       1.0  0.088556805185334  0.14062487771026608  0.4584811590031992  1.0000
  C   C11       1.0  0.052842661471260086  0.7614452684792637  0.6070203538569106  1.0000
  C   C12       1.0  0.9471561186835584  0.23855412570172513  0.3929800582502098  1.0000
  C   C13       1.0  0.33144810412670006  0.5452323628182112  0.6509620626177226  1.0000
  C   C14       1.0  0.6685533492195929  0.4547705633888198  0.3490369228074287  1.0000
  C   C15       1.0  0.27054868095272167  0.4216657224749908  0.7289271113142491  1.0000
  C   C16       1.0  0.729456221254722  0.5783349019771934  0.2710707522047359  1.0000
  C   C17       1.0  0.4092095011401327  0.34627065232352555  0.8155725431664538  1.0000
  C   C18       1.0  0.5907918897140263  0.6537287722081899  0.18442778771056825  1.0000
  C   C19       1.0  0.37868897449421707  0.19884499610110845  0.883566286340127  1.0000
  C   C20       1.0  0.621310695525665  0.8011555763934267  0.11643388902724892  1.0000
  C   C21       1.0  0.17296540658467308  0.2910899121692196  0.00884393738556351  1.0000
  C   C22       1.0  0.8270355026964468  0.708907176739963  0.9911582592813561  1.0000
  C   C23       1.0  0.014041229341430012  0.30285668413614536  0.0621701385816849  1.0000
  C   C24       1.0  0.9859600990205876  0.6971392387202542  0.9378315377472008  1.0000
  C   C25       1.0  0.8773156666853765  0.2473894101083047  0.035678869244343006  1.0000
  C   C26       1.0  0.12268483070742758  0.7526088390244683  0.9643224148351454  1.0000
  C   C27       1.0  0.9013415529745642  0.19014340794784348  0.9513797407649991  1.0000
  C   C28       1.0  0.09865763547227868  0.809854828924159  0.048622300392274616  1.0000
  C   C29       1.0  0.0634310149048147  0.17970614739758156  0.9002555342322228  1.0000
  C   C30       1.0  0.9365681807346035  0.8202920836452279  0.0997450739995926  1.0000
  C   C31       1.0  0.7181936977809117  0.2367275249237508  0.10373975966627569  1.0000
  C   C32       1.0  0.2818042514046867  0.7632741955336115  0.8962602601914471  1.0000
  Br  Br1       1.0  0.23878093974192888  0.4341490062125856  0.2535832041905195  1.0000
  Br  Br2       1.0  0.7612113532237428  0.5658502800310288  0.7464095299018184  1.0000
  Br  Br3       1.0  0.24777955245409097  0.9847593452280137  0.24855374645700584  1.0000
  Br  Br4       1.0  0.7522263907492996  0.015227299356659797  0.7514523241053299  1.0000
  N   N1        1.0  0.18096492205857115  0.645554489541297  0.5794314069483735  1.0000
  N   N2        1.0  0.8190360533109811  0.3544460981286051  0.42056872780394644  1.0000
  N   N3        1.0  0.1976056216606281  0.22596395575858708  0.9313656045878179  1.0000
  N   N4        1.0  0.802394875732169  0.7740342933741857  0.0686356794916776  1.0000
  O   O1        1.0  0.7476377806614143  0.9207976511640437  0.28921630405046983  1.0000
  O   O2        1.0  0.25236058400879097  0.07920290615513181  0.7107839119319482  1.0000
  O   O3        1.0  0.6438477812365732  0.0645308853969269  0.3982365004888139  1.0000
  O   O4        1.0  0.3561553929440109  0.9354708928472845  0.6017626404459834  1.0000
  O   O5        1.0  0.5965440607973135  0.1832215703568778  0.0793858756376125  1.0000
  O   O6        1.0  0.40345134018107853  0.8167836214250883  0.9206128799983377  1.0000
  O   O7        1.0  0.7202775541148014  0.2748524191068426  0.18417493109780744  1.0000
  O   O8        1.0  0.2797195052057333  0.7251481230369734  0.8158253254996597  1.0000
