data_image0
_chemical_formula_structural       Cs4H28C36O12
_chemical_formula_sum              "Cs4 H28 C36 O12"
_cell_length_a       6.681860297158234
_cell_length_b       8.550673904332344
_cell_length_c       17.093385020029984
_cell_angle_alpha    90.00012850926373
_cell_angle_beta     90.00012614394355
_cell_angle_gamma    107.9322890139625

_space_group_name_H-M_alt    "P 1"
_space_group_IT_number       1

loop_
  _space_group_symop_operation_xyz
  'x, y, z'

loop_
  _atom_site_type_symbol
  _atom_site_label
  _atom_site_symmetry_multiplicity
  _atom_site_fract_x
  _atom_site_fract_y
  _atom_site_fract_z
  _atom_site_occupancy
  Cs  Cs1       1.0  0.2197893833356659  0.0447478814343683  0.5922701688213226  1.0000
  Cs  Cs2       1.0  0.2802127709137281  0.45525085196620535  0.0922705793577094  1.0000
  Cs  Cs3       1.0  0.7802124128162619  0.9552496607203405  0.4077293702394655  1.0000
  Cs  Cs4       1.0  0.7197925070050744  0.5447478989202421  0.907729544726884  1.0000
  H   H1        1.0  0.8133227576651265  0.27167153604442257  0.6925572995494492  1.0000
  H   H2        1.0  0.6866790919194372  0.22833220122418393  0.1925591227886727  1.0000
  H   H3        1.0  0.1866775414099281  0.7283334117873251  0.3074416544933741  1.0000
  H   H4        1.0  0.3133172286578016  0.7716703087152293  0.8074421713375843  1.0000
  H   H5        1.0  0.5382747437617043  0.20356985540130515  0.7947721233332956  1.0000
  H   H6        1.0  0.9617284471440541  0.296428360323567  0.2947742580718113  1.0000
  H   H7        1.0  0.4617275468441165  0.7964326136471627  0.20522566066566134  1.0000
  H   H8        1.0  0.03827284770840591  0.703575348125767  0.7052270360572379  1.0000
  H   H9        1.0  0.23795749082891152  0.31959719366953004  0.7884684556441499  1.0000
  H   H10       1.0  0.26204180055130166  0.18039911022975721  0.2884691169267272  1.0000
  H   H11       1.0  0.7620373417940771  0.6803979310253891  0.21153108341228943  1.0000
  H   H12       1.0  0.7379585008104217  0.8196021398762238  0.7115310071572127  1.0000
  H   H13       1.0  0.21295859626939523  0.4977291214513498  0.6757875318947556  1.0000
  H   H14       1.0  0.2870372785200034  0.0022714190210919995  0.17578683757297142  1.0000
  H   H15       1.0  0.7870302685900371  0.502262346392129  0.3242114221354129  1.0000
  H   H16       1.0  0.7129615280443033  0.9977335390306334  0.8242121164692267  1.0000
  H   H17       1.0  0.47918872651005273  0.5572175706627859  0.5711208737276793  1.0000
  H   H18       1.0  0.020809075720030924  0.9427858576989433  0.0711210505414641  1.0000
  H   H19       1.0  0.5208006305262246  0.4427825218076008  0.4288774952860664  1.0000
  H   H20       1.0  0.9791932126111504  0.057220309084520686  0.9288784885245391  1.0000
  H   H21       1.0  0.6690345264757769  0.007147347354560899  0.5902736580367292  1.0000
  H   H22       1.0  0.8309674805693988  0.4928508076084481  0.0902729850585544  1.0000
  H   H23       1.0  0.3309667729379982  0.9928489656340036  0.40972705106639756  1.0000
  H   H24       1.0  0.16903730060884214  0.5071467141100142  0.9097277240467534  1.0000
  H   H25       1.0  0.6485015328903643  0.8207590963083927  0.5868681254476869  1.0000
  H   H26       1.0  0.8515037327957488  0.6792401167128258  0.08686827597634313  1.0000
  H   H27       1.0  0.35150225251768324  0.1792396647980253  0.41313199863628114  1.0000
  H   H28       1.0  0.14850303763861922  0.3207586239573458  0.9131330181521449  1.0000
  C   C1        1.0  0.9178758591855143  0.33804272568777083  0.5338158575629492  1.0000
  C   C2        1.0  0.5821251848676925  0.16195754172117918  0.0338175154148175  1.0000
  C   C3        1.0  0.0821219561699139  0.6619560762911332  0.4661819264319932  1.0000
  C   C4        1.0  0.4178790972833185  0.8380424485550647  0.9661826086700742  1.0000
  C   C5        1.0  0.8327233140351495  0.460276985205219  0.5620777025099815  1.0000
  C   C6        1.0  0.6672794570766956  0.03971975252794378  0.06208104556738899  1.0000
  C   C7        1.0  0.16727101955820706  0.5397206080456342  0.43792066650442524  1.0000
  C   C8        1.0  0.3327213433170613  0.9602790290239435  0.9379208335802219  1.0000
  C   C9        1.0  0.9087225891734223  0.6205700522314713  0.5298062793419263  1.0000
  C   C10       1.0  0.5912747427410923  0.8794325496915717  0.029807612249136604  1.0000
  C   C11       1.0  0.09127373139660483  0.37943245770239986  0.47019325971943  1.0000
  C   C12       1.0  0.4087225735991283  0.12056872085434377  0.9701925118335525  1.0000
  C   C13       1.0  0.669870992247958  0.4214878181239284  0.6239161527435542  1.0000
  C   C14       1.0  0.8301317880281334  0.07851177822467996  0.1239179233952186  1.0000
  C   C15       1.0  0.3301228446024355  0.5785085459570993  0.37608221626992133  1.0000
  C   C16       1.0  0.16987547914919804  0.9214881916153244  0.8760833707341861  1.0000
  C   C17       1.0  0.6819362948851335  0.32130952481505665  0.6882924651242845  1.0000
  C   C18       1.0  0.8180625369087053  0.1786905082608853  0.18829375679490573  1.0000
  C   C19       1.0  0.31806102145267806  0.6786917457290184  0.3117070739367733  1.0000
  C   C20       1.0  0.181939753706736  0.8213119607949576  0.8117063672905829  1.0000
  C   C21       1.0  0.5274649899037842  0.283934646899766  0.7463826861244487  1.0000
  C   C22       1.0  0.9725368075614467  0.21606450298487798  0.24638415172827882  1.0000
  C   C23       1.0  0.4725358104779503  0.7160641346428914  0.25361626791500674  1.0000
  C   C24       1.0  0.027464986318236115  0.7839367369066748  0.7536177274211795  1.0000
  C   C25       1.0  0.3580746783781451  0.34762041189557635  0.7429152282725014  1.0000
  C   C26       1.0  0.1419267269207722  0.1523743550575176  0.2429163405327159  1.0000
  C   C27       1.0  0.6419226448052413  0.6523697654601078  0.257084310782119  1.0000
  C   C28       1.0  0.8580760627194907  0.8476256454386969  0.7570837835515505  1.0000
  C   C29       1.0  0.3447073166364874  0.447965394154373  0.6797885216440563  1.0000
  C   C30       1.0  0.1552925740996258  0.05203021399221088  0.17978660366109275  1.0000
  C   C31       1.0  0.6552845332564703  0.5520260532583945  0.3202133574955184  1.0000
  C   C32       1.0  0.8447117057647233  0.9479734740098137  0.8202123503826828  1.0000
  C   C33       1.0  0.4968701252854473  0.4830610290948341  0.620855282174297  1.0000
  C   C34       1.0  0.0031257970882805006  0.016936696319007197  0.12085436489758192  1.0000
  C   C35       1.0  0.503120726553057  0.5169353554335032  0.3791454269244597  1.0000
  C   C36       1.0  0.9968750010212163  0.9830657829605016  0.8791469292305438  1.0000
  O   O1        1.0  0.8473683751824127  0.7405792374573607  0.5506939353849206  1.0000
  O   O2        1.0  0.6526296251246608  0.7594247253835744  0.050693425836811905  1.0000
  O   O3        1.0  0.152628941155406  0.2594220330867145  0.4493056036761375  1.0000
  O   O4        1.0  0.3473731622337439  0.24057897284210125  0.9493066982496003  1.0000
  O   O5        1.0  0.8602989458220522  0.18997138070268696  0.5566889230899578  1.0000
  O   O6        1.0  0.6397057679652178  0.3100302397104854  0.056689631379072104  1.0000
  O   O7        1.0  0.13970135554208002  0.8100298694051417  0.4433117860156203  1.0000
  O   O8        1.0  0.3602990109239528  0.6899709797319031  0.9433093226634811  1.0000
  O   O9        1.0  0.5669141537971712  0.8968090931074073  0.5975792961483108  1.0000
  O   O10       1.0  0.9330897073989421  0.6031901976932871  0.09757825735076152  1.0000
  O   O11       1.0  0.43308764236437014  0.10318844905468436  0.40242258299900874  1.0000
  O   O12       1.0  0.06691606726523246  0.39680978236483344  0.9024224517563866  1.0000
