data_image0
_chemical_formula_structural       Zn2H40C48N16O8
_chemical_formula_sum              "Zn2 H40 C48 N16 O8"
_cell_length_a       10.1772624366168
_cell_length_b       10.138054633247892
_cell_length_c       13.947724535738393
_cell_angle_alpha    81.6830660248493
_cell_angle_beta     79.00946699353676
_cell_angle_gamma    68.9871772524123

_space_group_name_H-M_alt    "P 1"
_space_group_IT_number       1

loop_
  _space_group_symop_operation_xyz
  'x, y, z'

loop_
  _atom_site_type_symbol
  _atom_site_label
  _atom_site_symmetry_multiplicity
  _atom_site_fract_x
  _atom_site_fract_y
  _atom_site_fract_z
  _atom_site_occupancy
  Zn  Zn1       1.0  0.8642041161425951  0.398907459412385  0.48079597872244756  1.0000
  Zn  Zn2       1.0  0.13579352538324233  0.601094379929279  0.5192037512717532  1.0000
  H   H1        1.0  0.5214672993868562  0.25188112355817793  0.3680499744347969  1.0000
  H   H2        1.0  0.47853571599492284  0.7481196222513233  0.631946973708132  1.0000
  H   H3        1.0  0.5697450014203015  0.8077143146283491  0.38430332305306075  1.0000
  H   H4        1.0  0.4302492648323268  0.19228863135097643  0.6157039278818601  1.0000
  H   H5        1.0  0.8911116878164338  0.9329114137722173  0.46903526550496355  1.0000
  H   H6        1.0  0.1088890384943682  0.0670872191075702  0.5309607939973944  1.0000
  H   H7        1.0  0.1614634999631477  0.266564820964156  0.36725450766741125  1.0000
  H   H8        1.0  0.8385395098434575  0.7334359441569093  0.632746740977737  1.0000
  H   H9        1.0  0.296632941615357  0.28973942193908914  0.20031707398552354  1.0000
  H   H10       1.0  0.7033720732783311  0.7102613337573304  0.7996838964964751  1.0000
  H   H11       1.0  0.9090441071570439  0.6039113318396476  0.11753325686931498  1.0000
  H   H12       1.0  0.0909549696297276  0.39608625980581996  0.882465294855038  1.0000
  H   H13       1.0  0.7895016472743708  0.564301668770206  0.2882013657768496  1.0000
  H   H14       1.0  0.21049349370498052  0.43569275905544214  0.7117966392778143  1.0000
  H   H15       1.0  0.12657310830780233  0.551338528064676  0.9942858658157758  1.0000
  H   H16       1.0  0.873429545006559  0.4486632909339506  0.005713885520904717  1.0000
  H   H17       1.0  0.5707993365310672  0.32745221491753546  0.970285731121102  1.0000
  H   H18       1.0  0.4292023123813564  0.6725496152306152  0.0297155927979063  1.0000
  H   H19       1.0  0.7958992880051099  0.27790092678580447  0.8598331175274794  1.0000
  H   H20       1.0  0.20410307853778425  0.7220987795142406  0.14016761725660126  1.0000
  H   H21       1.0  0.9301223721965923  0.28837129129911443  0.6899417168901821  1.0000
  H   H22       1.0  0.06987842290580197  0.7116241782231258  0.31005754011840736  1.0000
  H   H23       1.0  0.5584695600141032  0.5046089765310954  0.5731773299523794  1.0000
  H   H24       1.0  0.4415280805825361  0.4953928660291568  0.4268231167921925  1.0000
  H   H25       1.0  0.4084006343218436  0.5039204496762936  0.7351894032243891  1.0000
  H   H26       1.0  0.5915997252755717  0.49607927248558786  0.26481304322359017  1.0000
  H   H27       1.0  0.06114046212915282  0.9909899942084835  0.23546734849505668  1.0000
  H   H28       1.0  0.938859758026709  0.009016061105697304  0.764530136441202  1.0000
  H   H29       1.0  0.0392769867108598  0.12569273975831416  0.13592681928009398  1.0000
  H   H30       1.0  0.9607182885896678  0.8743101789785329  0.8640752753206512  1.0000
  H   H31       1.0  0.9405886989961021  0.16452502594886917  0.25504132333262663  1.0000
  H   H32       1.0  0.05941359782601551  0.835477846927326  0.7449569306955937  1.0000
  H   H33       1.0  0.8085119119100954  0.0051984146382011  0.24446524446037185  1.0000
  H   H34       1.0  0.19148973978991524  0.9948034058541639  0.755533929207523  1.0000
  H   H35       1.0  0.6607302073884754  0.15142009529829184  0.11695706388999842  1.0000
  H   H36       1.0  0.3392725946593912  0.8485753583621051  0.8830404814546995  1.0000
  H   H37       1.0  0.7077266885767842  0.2588087147897441  0.18526722134391344  1.0000
  H   H38       1.0  0.2922726740522564  0.7411909927729  0.8147310636834176  1.0000
  H   H39       1.0  0.7996287185456199  0.22146655794531261  0.0647875318965703  1.0000
  H   H40       1.0  0.2003729340835889  0.7785352593284574  0.9352109250209466  1.0000
  C   C1        1.0  0.7109456428454594  0.1038637047156783  0.4207213836923174  1.0000
  C   C2        1.0  0.2890560869380893  0.8961349202331946  0.5792738199780914  1.0000
  C   C3        1.0  0.5827712110847116  0.14072031339175342  0.3839091822667982  1.0000
  C   C4        1.0  0.4172242120201303  0.859276243225452  0.6160914230923282  1.0000
  C   C5        1.0  0.5336208073040184  0.034482231691903606  0.3682581829279385  1.0000
  C   C6        1.0  0.46637526092293075  0.9655153773091386  0.6317415027915203  1.0000
  C   C7        1.0  0.6091937601814196  0.8918548946503652  0.3921638228814785  1.0000
  C   C8        1.0  0.39080394641922567  0.10814379420812516  0.6078419716204309  1.0000
  C   C9        1.0  0.7375791198250639  0.8554905724390169  0.42864794696834707  1.0000
  C   C10       1.0  0.26242016657884193  0.14451232422993607  0.5713528745557213  1.0000
  C   C11       1.0  0.7900472221407856  0.9608727072031655  0.4418481649416037  1.0000
  C   C12       1.0  0.20995307052343998  0.03913017187908711  0.5581496504994021  1.0000
  C   C13       1.0  0.7629822610607209  0.21896596880588967  0.43692568106461477  1.0000
  C   C14       1.0  0.2370201789197283  0.7810305580436322  0.5630746674738418  1.0000
  C   C15       1.0  0.8181970877976072  0.7015980439992477  0.453403627001002  1.0000
  C   C16       1.0  0.18180299432029298  0.2983995332781151  0.5465926353906596  1.0000
  C   C17       1.0  0.10939745607937111  0.3389363830545662  0.309412345550875  1.0000
  C   C18       1.0  0.890602833797267  0.6610665056834649  0.690587620141244  1.0000
  C   C19       1.0  0.18409285439694398  0.35171501578167164  0.21654308676183118  1.0000
  C   C20       1.0  0.8159114447246695  0.6482878573256557  0.7834570393543459  1.0000
  C   C21       1.0  0.113172574847006  0.44821006233721766  0.14450813140250318  1.0000
  C   C22       1.0  0.8868271479910635  0.5517885784734845  0.855488783931804  1.0000
  C   C23       1.0  0.9683082751430234  0.5260418243529587  0.17012396694363474  1.0000
  C   C24       1.0  0.03169008308408646  0.47395789435920244  0.8298758906660098  1.0000
  C   C25       1.0  0.9015523911927091  0.5056976644823127  0.26499622708263354  1.0000
  C   C26       1.0  0.09844861817278168  0.49430309397043737  0.7350017159738157  1.0000
  C   C27       1.0  0.18617492866334834  0.46963191222788947  0.045991365558201394  1.0000
  C   C28       1.0  0.8138307304232486  0.5303698990709551  0.9540094020344937  1.0000
  C   C29       1.0  0.5102372936591735  0.377716160040329  0.9093975068375285  1.0000
  C   C30       1.0  0.48976399597341935  0.6222867336411609  0.09060447002412529  1.0000
  C   C31       1.0  0.5897819611996696  0.3890182012497122  0.8119304405944946  1.0000
  C   C32       1.0  0.4102137458890597  0.6109804777218528  0.1880713315683522  1.0000
  C   C33       1.0  0.7388345462625806  0.32934662288465705  0.7982910803015386  1.0000
  C   C34       1.0  0.2611664621737191  0.6706541387866808  0.20170757950528176  1.0000
  C   C35       1.0  0.8144771503604674  0.33435476975279954  0.7044878005259533  1.0000
  C   C36       1.0  0.18552285274470384  0.6656460062866504  0.29551314861355843  1.0000
  C   C37       1.0  0.6070313391604715  0.45469581688922744  0.6383142603261689  1.0000
  C   C38       1.0  0.3929720336427495  0.5453038718241175  0.36168346837484927  1.0000
  C   C39       1.0  0.5234333429564658  0.4539112425333016  0.7293093339167314  1.0000
  C   C40       1.0  0.4765687358857635  0.5460863542867572  0.2706931010651132  1.0000
  C   C41       1.0  0.9840679571627363  0.08381530346211721  0.20198290338404948  1.0000
  C   C42       1.0  0.015929973922155057  0.916188638922343  0.7980136929116383  1.0000
  C   C43       1.0  0.8611640968567827  0.04712543137459591  0.17661244591235456  1.0000
  C   C44       1.0  0.13883089445986482  0.9528753650078844  0.8233884818846704  1.0000
  C   C45       1.0  0.7499229985747532  0.17757403696452917  0.13254338119471495  1.0000
  C   C46       1.0  0.2500726425099771  0.8224277957088121  0.8674530432107801  1.0000
  C   C47       1.0  0.9161378358537462  0.9320745630675522  0.11181417011454899  1.0000
  C   C48       1.0  0.08385787588095177  0.06792409981105153  0.8881840182964424  1.0000
  N   N1        1.0  0.4046501273204299  0.07973253041484443  0.3288349448033685  1.0000
  N   N2        1.0  0.5953472218587735  0.9202672155398018  0.6711700691404586  1.0000
  N   N3        1.0  0.35377472850288444  0.9901548091283132  0.31816665828267787  1.0000
  N   N4        1.0  0.6462242683419603  0.0098459844978365  0.6818372969398964  1.0000
  N   N5        1.0  0.29447924745299053  0.9187505051239883  0.30480362737765887  1.0000
  N   N6        1.0  0.7055193938288016  0.08125133916113471  0.695198113786077  1.0000
  N   N7        1.0  0.9708836485540858  0.41511394936408413  0.3339944341594716  1.0000
  N   N8        1.0  0.029117144689919834  0.5848815265953322  0.6660062563498671  1.0000
  N   N9        1.0  0.31860170671274796  0.3947304853621604  0.021378521550381918  1.0000
  N   N10       1.0  0.6813979371125924  0.6052713542106362  0.9786230805317756  1.0000
  N   N11       1.0  0.37230095717727363  0.4226673855864363  0.9250192264460964  1.0000
  N   N12       1.0  0.6276989734195342  0.5773365666849415  0.07498139218866837  1.0000
  N   N13       1.0  0.7502499800864513  0.3956506209260625  0.625842299662736  1.0000
  N   N14       1.0  0.24974809322758065  0.6043469786503266  0.3741571078935663  1.0000
  N   N15       1.0  0.9615614028806831  0.83846339397703  0.06145300852393372  1.0000
  N   N16       1.0  0.03844160135074763  0.16153739045560664  0.9385525406234478  1.0000
  O   O1        1.0  0.6871846173487625  0.34795485074086235  0.41936451010462145  1.0000
  O   O2        1.0  0.3128181121907473  0.6520437791514626  0.5806327047353294  1.0000
  O   O3        1.0  0.8818613259555405  0.18310780671857435  0.4685203759986862  1.0000
  O   O4        1.0  0.11814097086657684  0.8168950661576204  0.5314778780295342  1.0000
  O   O5        1.0  0.949261962954452  0.6667923290270682  0.458692934690866  1.0000
  O   O6        1.0  0.050735103170062225  0.33320529135460936  0.5413101956988626  1.0000
  O   O7        1.0  0.7492288101162003  0.6159169484032747  0.4651048419159237  1.0000
  O   O8        1.0  0.2507719831277981  0.3840785275561488  0.5348958485934077  1.0000
