data_image0
_chemical_formula_structural       Ag2H20C18N6O6
_chemical_formula_sum              "Ag2 H20 C18 N6 O6"
_cell_length_a       7.947220854803668
_cell_length_b       7.9950143834975025
_cell_length_c       10.24386441969898
_cell_angle_alpha    97.61264864968489
_cell_angle_beta     94.62622793711107
_cell_angle_gamma    108.49412319565918

_space_group_name_H-M_alt    "P 1"
_space_group_IT_number       1

loop_
  _space_group_symop_operation_xyz
  'x, y, z'

loop_
  _atom_site_type_symbol
  _atom_site_label
  _atom_site_symmetry_multiplicity
  _atom_site_fract_x
  _atom_site_fract_y
  _atom_site_fract_z
  _atom_site_occupancy
  Ag  Ag1       1.0  0.1558011371141319  0.39777464235829285  0.8183656722106322  1.0000
  Ag  Ag2       1.0  0.8441971685801662  0.6022233049395922  0.1816382086233972  1.0000
  H   H1        1.0  0.7827327417458319  0.24417255411115243  0.8985962221699992  1.0000
  H   H2        1.0  0.2172625813824212  0.7558239727328342  0.10140343061414112  1.0000
  H   H3        1.0  0.40202016874441426  0.4101423232699446  0.6708128582773442  1.0000
  H   H4        1.0  0.5979838553918669  0.5898647151600616  0.32918437524200783  1.0000
  H   H5        1.0  0.6544908625654385  0.5837450947768305  0.5610213633236896  1.0000
  H   H6        1.0  0.34551992053605574  0.4162634005847679  0.43898328442197965  1.0000
  H   H7        1.0  0.9643262672031342  0.5770971371882967  0.6256875919386291  1.0000
  H   H8        1.0  0.03568234738681042  0.42290881854360424  0.3743205979930196  1.0000
  H   H9        1.0  0.482019195505316  0.1027608417518024  0.9105004938895152  1.0000
  H   H10       1.0  0.5179811448473047  0.8972354983509946  0.08949557414378262  1.0000
  H   H11       1.0  0.24753323352316414  0.9963439951857753  0.9814601525105292  1.0000
  H   H12       1.0  0.7524650654306837  0.003653863845315204  0.01854079095372189  1.0000
  H   H13       1.0  0.043901399302434675  0.8858636063029837  0.7710698430760061  1.0000
  H   H14       1.0  0.9560968996514133  0.11413425272810683  0.22893110038825173  1.0000
  H   H15       1.0  0.9318623589215634  0.0402718976614196  0.8136472305268471  1.0000
  H   H16       1.0  0.06813765256451638  0.9597272225530066  0.1863519833121998  1.0000
  H   H17       1.0  0.7577253566902868  0.7442992681549542  0.8632347300204445  1.0000
  H   H18       1.0  0.2422726044097487  0.25570125329871013  0.13676544275651994  1.0000
  H   H19       1.0  0.947069619176041  0.7324341138832865  0.9609200459100862  1.0000
  H   H20       1.0  0.052929131263496694  0.26756496474964564  0.03907712674688921  1.0000
  C   C1        1.0  0.7504821400759881  0.3188274974782744  0.8242549939511933  1.0000
  C   C2        1.0  0.24951786916327023  0.6811715933138844  0.17574324076458944  1.0000
  C   C3        1.0  0.5738349020681139  0.31448024559159654  0.795324153074148  1.0000
  C   C4        1.0  0.4261624669525475  0.6855148211686314  0.20467258252556061  1.0000
  C   C5        1.0  0.5379204070854016  0.41103079509007767  0.6983635731646914  1.0000
  C   C6        1.0  0.46208269385814305  0.5889735393358536  0.3016323898598899  1.0000
  C   C7        1.0  0.6779775982015651  0.5073706450029578  0.6366143231942375  1.0000
  C   C8        1.0  0.32203020682752026  0.4926364887492768  0.3633880547480573  1.0000
  C   C9        1.0  0.8500650078647566  0.5046469431371321  0.6717035165687975  1.0000
  C   C10       1.0  0.14993983032600514  0.49535897611706053  0.3283014871864225  1.0000
  C   C11       1.0  0.44039332027485767  0.2025095427378076  0.8653630116548997  1.0000
  C   C12       1.0  0.5595911565969869  0.7974885061866459  0.13463701951832258  1.0000
  C   C13       1.0  0.17021849759557742  0.07942572158253822  0.948374871744953  1.0000
  C   C14       1.0  0.8297777487254124  0.9205735092655232  0.051626051533965274  1.0000
  C   C15       1.0  0.003546876074025863  0.9576796920637988  0.8553778858837618  1.0000
  C   C16       1.0  0.996451420633001  0.0423181375450241  0.14462207845723193  1.0000
  C   C17       1.0  0.8801824698216478  0.8251664512951464  0.9293282324676257  1.0000
  C   C18       1.0  0.1198145635920227  0.17483130730991553  0.07066871156803962  1.0000
  N   N1        1.0  0.885986790426351  0.4120713657361891  0.7648401458022394  1.0000
  N   N2        1.0  0.11401369501358265  0.5879292683027303  0.23516508846211792  1.0000
  N   N3        1.0  0.2833775698617488  0.2113217157569949  0.8770886230562454  1.0000
  N   N4        1.0  0.7166320290810119  0.7886758702177304  0.12290915033491252  1.0000
  N   N5        1.0  0.3810356635809883  0.7470230393925309  0.7513254830908666  1.0000
  N   N6        1.0  0.6189626308792242  0.2529747607940322  0.24867350212687  1.0000
  O   O1        1.0  0.3443584515172732  0.7212913332745503  0.868968181671491  1.0000
  O   O2        1.0  0.6556092184597163  0.27870545566710814  0.1310257300375426  1.0000
  O   O3        1.0  0.28069178943327694  0.6381109725544932  0.6520355941951693  1.0000
  O   O4        1.0  0.7193159886340084  0.361895808130555  0.34795503426801133  1.0000
  O   O5        1.0  0.5138802017569476  0.8750957715251247  0.7366599315060471  1.0000
  O   O6        1.0  0.48613295081486996  0.12489414572301175  0.26335206929720567  1.0000
