data_image0
_chemical_formula_structural       Zr6H46C90Br10O32
_chemical_formula_sum              "Zr6 H46 C90 Br10 O32"
_cell_length_a       19.19539336853992
_cell_length_b       19.157053957904907
_cell_length_c       19.186436122581014
_cell_angle_alpha    59.49887337717648
_cell_angle_beta     59.88317968921862
_cell_angle_gamma    60.03427530071768

_space_group_name_H-M_alt    "P 1"
_space_group_IT_number       1

loop_
  _space_group_symop_operation_xyz
  'x, y, z'

loop_
  _atom_site_type_symbol
  _atom_site_label
  _atom_site_symmetry_multiplicity
  _atom_site_fract_x
  _atom_site_fract_y
  _atom_site_fract_z
  _atom_site_occupancy
  Zr  Zr1       1.0  0.9066510570823921  0.40825220309946547  0.5917965166273973  1.0000
  Zr  Zr2       1.0  0.093305491021823  0.5911686144493374  0.4088851945973957  1.0000
  Zr  Zr3       1.0  0.09063987419986581  0.4050648726816207  0.5949212290005119  1.0000
  Zr  Zr4       1.0  0.9094191512288817  0.5942796075932577  0.40567070777269987  1.0000
  Zr  Zr5       1.0  0.9081871797959309  0.591503581008702  0.5921067839658035  1.0000
  Zr  Zr6       1.0  0.09181440295464684  0.4078677493401558  0.4085023118220263  1.0000
  H   H1        1.0  0.9257312373406705  0.42564170184978445  0.7189571214245376  1.0000
  H   H2        1.0  0.9296921974437924  0.7183541470434847  0.4261951487510059  1.0000
  H   H3        1.0  0.21725804840563973  0.42575400036859185  0.42946688577713127  1.0000
  H   H4        1.0  0.9275403081134073  0.42882125233991536  0.4263831342555946  1.0000
  H   H5        1.0  0.4547100047215694  0.6133919627526507  0.04572959152066146  1.0000
  H   H6        1.0  0.5459796493040087  0.3854521621463933  0.955342581506649  1.0000
  H   H7        1.0  0.6810511016724661  0.607055966847945  0.8149237146393701  1.0000
  H   H8        1.0  0.5549303719274761  0.6119960082189594  0.9445603419893869  1.0000
  H   H9        1.0  0.31490791066239854  0.39654647436444185  0.18163776725555178  1.0000
  H   H10       1.0  0.443964001286318  0.38854699973725804  0.054956786711393625  1.0000
  H   H11       1.0  0.11298523495540273  0.9550620859210712  0.3854920274094766  1.0000
  H   H12       1.0  0.8859196486794972  0.04546192075311964  0.6134361308582114  1.0000
  H   H13       1.0  0.1068173943269457  0.1812204795715432  0.3968715283940654  1.0000
  H   H14       1.0  0.1123299435606882  0.054704217327504516  0.388650140193981  1.0000
  H   H15       1.0  0.8968360790758185  0.8145677837017686  0.607359983821169  1.0000
  H   H16       1.0  0.888285828814112  0.9443536095177054  0.6120715849780111  1.0000
  H   H17       1.0  0.4536957162808974  0.04707136232156024  0.3863401348233708  1.0000
  H   H18       1.0  0.5477838480960528  0.9538324486608192  0.6128589254336133  1.0000
  H   H19       1.0  0.6789141420129142  0.8152881383974065  0.398246700651434  1.0000
  H   H20       1.0  0.5527482778051934  0.9446686329759474  0.3897764949721534  1.0000
  H   H21       1.0  0.31707365480229294  0.18026910630505463  0.6063539631086101  1.0000
  H   H22       1.0  0.4469459011380081  0.054680002591425296  0.6111028998021196  1.0000
  H   H23       1.0  0.8857271860352894  0.6128005042451791  0.9540269420928807  1.0000
  H   H24       1.0  0.11307719951773984  0.3862785379697797  0.04724556575216346  1.0000
  H   H25       1.0  0.8964021595721974  0.606049299062626  0.1807436251117522  1.0000
  H   H26       1.0  0.8874707091405442  0.6110605931912474  0.05495839484654411  1.0000
  H   H27       1.0  0.10766939121168662  0.3979912583096808  0.8157244917154145  1.0000
  H   H28       1.0  0.11301978878701391  0.38973670640166375  0.9449483909154848  1.0000
  H   H29       1.0  0.11429717340832472  0.8215024632847444  0.1757864507490581  1.0000
  H   H30       1.0  0.17630651073007172  0.934728983941959  0.06543872447406328  1.0000
  H   H31       1.0  0.891761348225231  0.8173099911375488  0.17912819578236133  1.0000
  H   H32       1.0  0.8884457369122744  0.1752302286967763  0.8220384818993337  1.0000
  H   H33       1.0  0.8235384426451449  0.06486783348162836  0.935293945008496  1.0000
  H   H34       1.0  0.11178245625156788  0.1785959220461139  0.8179087254194285  1.0000
  H   H35       1.0  0.4551261798258325  0.38428397764985817  0.6147564137828851  1.0000
  H   H36       1.0  0.5458740256355484  0.6143805008676112  0.3846832080728716  1.0000
  H   H37       1.0  0.6812044087621844  0.398303483612985  0.6056521735237085  1.0000
  H   H38       1.0  0.5551765784228238  0.38833414406259714  0.6125537675493788  1.0000
  H   H39       1.0  0.3147516695164613  0.6051556659514007  0.3988247116290893  1.0000
  H   H40       1.0  0.4438127471384519  0.6121785234363417  0.38877401958704644  1.0000
  H   H41       1.0  0.1977246945218736  0.08931415894316794  0.9760018082049983  1.0000
  H   H42       1.0  0.19686502286830887  0.13012361804043607  0.8703717996666496  1.0000
  H   H43       1.0  0.2632183160270857  0.024640572289236384  0.9105321062726688  1.0000
  H   H44       1.0  0.7369630109567851  0.9755120740589547  0.08980787811674415  1.0000
  H   H45       1.0  0.8025786814225668  0.8698699284903242  0.1306850500937954  1.0000
  H   H46       1.0  0.801624367417574  0.9100061658514492  0.025175217685820272  1.0000
  C   C1        1.0  0.7626216060044086  0.49952497378340877  0.7316375457616856  1.0000
  C   C2        1.0  0.0061711746414162905  0.7311048265278899  0.5000029743217665  1.0000
  C   C3        1.0  0.23287565290198842  0.5046600432353614  0.2643592624347022  1.0000
  C   C4        1.0  0.9981468197300671  0.26373957457767044  0.5051833731274301  1.0000
  C   C5        1.0  0.00068987157084182  0.26119833581226726  0.7347782905065683  1.0000
  C   C6        1.0  0.7635320391305029  0.5080318038825383  0.49631266150954895  1.0000
  C   C7        1.0  0.0033952818745391525  0.734144582651034  0.2617677693338365  1.0000
  C   C8        1.0  0.2321122947394088  0.4957325950954044  0.5086222398005374  1.0000
  C   C9        1.0  0.9983840165647564  0.5041716687230674  0.7334191379819471  1.0000
  C   C10       1.0  0.23088346325283737  0.26143312858111056  0.5010199522292852  1.0000
  C   C11       1.0  0.0066990981639704775  0.5004717121760011  0.2620079547366175  1.0000
  C   C12       1.0  0.7640950112870895  0.7328559045521887  0.5046609396945952  1.0000
  C   C13       1.0  0.31078780727624183  0.5076793086506229  0.1864105788912838  1.0000
  C   C14       1.0  0.6855675795474311  0.4955844299714302  0.8104277892406843  1.0000
  C   C15       1.0  0.3523080927101034  0.5685909373720577  0.14598967987045341  1.0000
  C   C16       1.0  0.42558620062160196  0.5646652486172387  0.07403516445921801  1.0000
  C   C17       1.0  0.6456042791705203  0.4331194836803297  0.8523128363295952  1.0000
  C   C18       1.0  0.5739272878688413  0.43535988120557817  0.9258988335386533  1.0000
  C   C19       1.0  0.6500867515591439  0.55891436406224  0.8468518671129817  1.0000
  C   C20       1.0  0.5788558913013873  0.561140997992489  0.9200049702315167  1.0000
  C   C21       1.0  0.3468263115381661  0.4437217386895825  0.15062588547967692  1.0000
  C   C22       1.0  0.41968857195730186  0.43980053299009114  0.07910304425752913  1.0000
  C   C23       1.0  0.46110241079644254  0.5007317436893217  0.03866758294211792  1.0000
  C   C24       1.0  0.5384464851161683  0.49920837958557507  0.9613573462150241  1.0000
  C   C25       1.0  0.00829291004246365  0.8100126748869416  0.49589691350322335  1.0000
  C   C26       1.0  0.995048829274552  0.18592571107002692  0.5080360318545302  1.0000
  C   C27       1.0  0.06877555568330253  0.8519484079729838  0.4333199897976954  1.0000
  C   C28       1.0  0.06458972547371652  0.9256173196429671  0.43544029474053036  1.0000
  C   C29       1.0  0.9329528246576331  0.14558846791364743  0.5688364152504873  1.0000
  C   C30       1.0  0.9355039243125202  0.07373450481001254  0.5647708919453294  1.0000
  C   C31       1.0  0.0587160563353208  0.15021591949965102  0.44400584374538005  1.0000
  C   C32       1.0  0.06122594272981984  0.07881041416898431  0.43994961345780575  1.0000
  C   C33       1.0  0.9439834578278553  0.8465165386258423  0.5591543466322265  1.0000
  C   C34       1.0  0.9397838862114511  0.9197571152093148  0.5612459867377593  1.0000
  C   C35       1.0  0.0007686908099276385  0.9611113482969743  0.4992765621506052  1.0000
  C   C36       1.0  0.9992931775556784  0.03840549306232081  0.5008187842380138  1.0000
  C   C37       1.0  0.310218691837136  0.18513626892746538  0.49623458047376084  1.0000
  C   C38       1.0  0.6860945441657051  0.8105650689553558  0.5081202610983625  1.0000
  C   C39       1.0  0.3513395053816879  0.14595514707782095  0.43387918814616455  1.0000
  C   C40       1.0  0.42506770372637  0.07457782291124465  0.4359549597484857  1.0000
  C   C41       1.0  0.6468265277216216  0.8516070113591426  0.5686171128147348  1.0000
  C   C42       1.0  0.5750917143647385  0.9250371174123515  0.5645431433223819  1.0000
  C   C43       1.0  0.6490626493595214  0.8471453017063199  0.4447496817676607  1.0000
  C   C44       1.0  0.5777655766408286  0.9201083284834084  0.4406624149770834  1.0000
  C   C45       1.0  0.34807291949044844  0.14950705297001587  0.558728309382424  1.0000
  C   C46       1.0  0.4214206453807989  0.07866502319639329  0.5607608875838892  1.0000
  C   C47       1.0  0.4616116456669275  0.03862932729806811  0.4993595876594411  1.0000
  C   C48       1.0  0.5386863388840266  0.9611902343768225  0.5009850507304138  1.0000
  C   C49       1.0  0.9952910378425772  0.5078145262042073  0.8109896394167321  1.0000
  C   C50       1.0  0.00850626558298014  0.49590432566988346  0.1855607284589453  1.0000
  C   C51       1.0  0.9330546158473823  0.5684004758419761  0.8519306153977408  1.0000
  C   C52       1.0  0.9354870303535352  0.5644303450254995  0.9252891452847717  1.0000
  C   C53       1.0  0.0689655425220224  0.4336463229684569  0.1462601524325962  1.0000
  C   C54       1.0  0.06456826797913359  0.43585075756982405  0.0748063536024404  1.0000
  C   C55       1.0  0.9438172986863405  0.5584895629951917  0.14989910770064788  1.0000
  C   C56       1.0  0.9393309319722009  0.5606658149887735  0.07895537946517811  1.0000
  C   C57       1.0  0.059165346571141676  0.44453455835763844  0.8475314331812527  1.0000
  C   C58       1.0  0.06164724443367222  0.44056633423260666  0.9203978982352652  1.0000
  C   C59       1.0  0.9993144550355167  0.500918850248631  0.9614399679512573  1.0000
  C   C60       1.0  0.0005787629429363347  0.49929774607942085  0.038864542321334704  1.0000
  C   C61       1.0  0.06516403152168951  0.8504550389901838  0.14712304291874995  1.0000
  C   C62       1.0  0.06472155370848749  0.9246980560203184  0.07405573509527841  1.0000
  C   C63       1.0  0.12795677139254036  0.9642513804980125  0.03535998336204214  1.0000
  C   C64       1.0  0.9387825908206865  0.8491333882116977  0.14806849392486052  1.0000
  C   C65       1.0  0.9353404731254645  0.923548176488289  0.07504645366855575  1.0000
  C   C66       1.0  0.8700744491120106  0.9627494707667026  0.036748153002562865  1.0000
  C   C67       1.0  0.9372885037684641  0.1465580927003103  0.8510060207111534  1.0000
  C   C68       1.0  0.9365549681153098  0.07348620988706522  0.9252416652353689  1.0000
  C   C69       1.0  0.872464864902014  0.0347855473844378  0.9647955213208591  1.0000
  C   C70       1.0  0.06404291094320057  0.1474923100996721  0.8497177623305773  1.0000
  C   C71       1.0  0.0660941902219605  0.07446023030834001  0.9241145278425333  1.0000
  C   C72       1.0  0.1304553305382612  0.03618973161790262  0.9633007924765948  1.0000
  C   C73       1.0  0.002739670471548453  0.8128887977947272  0.1836501307226044  1.0000
  C   C74       1.0  0.9999411289891287  0.961872443135526  0.037040267319504654  1.0000
  C   C75       1.0  0.0007311919362891583  0.18308794731166253  0.8134871316224873  1.0000
  C   C76       1.0  0.0011691766128337077  0.0364731871722557  0.9624186329149254  1.0000
  C   C77       1.0  0.31049896815933664  0.4927459984753498  0.5107733571018115  1.0000
  C   C78       1.0  0.6859539523059511  0.5102875878645606  0.49326876038477957  1.0000
  C   C79       1.0  0.35241830877549074  0.4306682990463673  0.5712215201046432  1.0000
  C   C80       1.0  0.42578096278987937  0.433984868456996  0.5662492801357429  1.0000
  C   C81       1.0  0.6457030204231273  0.5707811360054081  0.4311552653683107  1.0000
  C   C82       1.0  0.5739922946999202  0.5658620495732194  0.434405880501579  1.0000
  C   C83       1.0  0.6502651328440692  0.4453875747226377  0.5575803710528292  1.0000
  C   C84       1.0  0.5790310315281886  0.4403953013642977  0.5608773006724731  1.0000
  C   C85       1.0  0.34671383585068577  0.557094822176417  0.4458844042550965  1.0000
  C   C86       1.0  0.4196336600989739  0.5604653725919848  0.4408379141350736  1.0000
  C   C87       1.0  0.46122526781402956  0.4986724995864338  0.5015664339362758  1.0000
  C   C88       1.0  0.5385312197731339  0.5011712814563154  0.49906337712527443  1.0000
  C   C89       1.0  0.2002798266836052  0.07254061583331872  0.9275966037019712  1.0000
  C   C90       1.0  0.7995818991457355  0.92708064239136  0.07307581059234973  1.0000
  Br  Br1       1.0  0.3162852013642449  0.6614742630283033  0.1818256112938812  1.0000
  Br  Br2       1.0  0.6821054375181744  0.3399508131013181  0.8166741774813672  1.0000
  Br  Br3       1.0  0.16103496707745532  0.8162994484577553  0.34012736195156623  1.0000
  Br  Br4       1.0  0.8402804698497165  0.1814008160479972  0.6617335525306911  1.0000
  Br  Br5       1.0  0.3142670598314155  0.18273380643083942  0.3413516965338417  1.0000
  Br  Br6       1.0  0.6841334041803225  0.8149518691185096  0.6609464843059742  1.0000
  Br  Br7       1.0  0.840095298345922  0.6607022804148741  0.815227368665596  1.0000
  Br  Br8       1.0  0.16180014543621726  0.3410708125580016  0.18299812980141889  1.0000
  Br  Br9       1.0  0.3165354750971757  0.3367429889133007  0.6648274356256465  1.0000
  Br  Br10      1.0  0.6819940464270998  0.6643512123161203  0.33721374905723417  1.0000
  O   O1        1.0  0.7938451319276396  0.44284117597882755  0.6980249080793611  1.0000
  O   O2        1.0  0.06530551741075633  0.6973987458794827  0.44341042026502453  1.0000
  O   O3        1.0  0.20114198546291112  0.5619900377229996  0.29731557477984444  1.0000
  O   O4        1.0  0.9397072375602279  0.2965754379072294  0.5626353229415528  1.0000
  O   O5        1.0  0.060047396850933334  0.29241273227614084  0.7039453392502041  1.0000
  O   O6        1.0  0.7965718967032133  0.5663881125895501  0.43798997974985104  1.0000
  O   O7        1.0  0.943664856271738  0.7033067020361871  0.2929714007853263  1.0000
  O   O8        1.0  0.19905531653339653  0.4374109209543421  0.5670287047054714  1.0000
  O   O9        1.0  0.941023308817442  0.5625188141707442  0.6999271305000577  1.0000
  O   O10       1.0  0.19820282485779475  0.2946537933895996  0.44285619532470827  1.0000
  O   O11       1.0  0.06428486479342159  0.4422389184111283  0.29525092285820154  1.0000
  O   O12       1.0  0.7965196954165493  0.6993352745080517  0.563074621712083  1.0000
  O   O13       1.0  0.20202271430213878  0.2889100744285429  0.5618545090315478  1.0000
  O   O14       1.0  0.9472078063032399  0.5612391599309989  0.2895730416906017  1.0000
  O   O15       1.0  0.7936781374361885  0.7061862233415114  0.44306800779074257  1.0000
  O   O16       1.0  0.05704138588487939  0.44252573881411933  0.7068216394152029  1.0000
  O   O17       1.0  0.9415387521565747  0.29263538217201596  0.7040399059942929  1.0000
  O   O18       1.0  0.20442991780743805  0.5558801757335489  0.44748557453794285  1.0000
  O   O19       1.0  0.0618418971317851  0.7034159497348399  0.29320386459761494  1.0000
  O   O20       1.0  0.7921663487339857  0.4468830150226425  0.5564821522944708  1.0000
  O   O21       1.0  0.05811995617016652  0.2929894968056673  0.44471797959033665  1.0000
  O   O22       1.0  0.7927624648179615  0.5585076786423359  0.7039419406413571  1.0000
  O   O23       1.0  0.9447611769852245  0.7034044128576299  0.5590288698841946  1.0000
  O   O24       1.0  0.2041138752453549  0.4442083126800683  0.2935831509952819  1.0000
  O   O25       1.0  0.9481172837287559  0.4495099929315888  0.44691680079441914  1.0000
  O   O26       1.0  0.1554585843574757  0.4462562707630298  0.45018527020398114  1.0000
  O   O27       1.0  0.9494109809281213  0.6561947699554411  0.4475408885316056  1.0000
  O   O28       1.0  0.9468508542966134  0.44694827494265627  0.6567974232112945  1.0000
  O   O29       1.0  0.03840152802061425  0.5364323516918504  0.5396578653707066  1.0000
  O   O30       1.0  0.8855269210130315  0.5390154385291058  0.5370528158705952  1.0000
  O   O31       1.0  0.03913459346095754  0.538835629589535  0.38484924065217996  1.0000
  O   O32       1.0  0.03717745081678464  0.3842632999867988  0.5394630113674878  1.0000
