data_image0
_chemical_formula_structural       Er2MnH28C16O18
_chemical_formula_sum              "Er2 Mn1 H28 C16 O18"
_cell_length_a       8.862755332659686
_cell_length_b       9.059558174106721
_cell_length_c       10.569041391098198
_cell_angle_alpha    81.67020535528673
_cell_angle_beta     71.53270234295066
_cell_angle_gamma    77.320955503337

_space_group_name_H-M_alt    "P 1"
_space_group_IT_number       1

loop_
  _space_group_symop_operation_xyz
  'x, y, z'

loop_
  _atom_site_type_symbol
  _atom_site_label
  _atom_site_symmetry_multiplicity
  _atom_site_fract_x
  _atom_site_fract_y
  _atom_site_fract_z
  _atom_site_occupancy
  Er  Er1       1.0  0.08382406112824732  0.9219837920497155  0.8185450002104628  1.0000
  Er  Er2       1.0  0.9161794069417297  0.07802478698207692  0.18145451453933945  1.0000
  Mn  Mn1       1.0  5.064183440564516e-06  0.9999961447229352  0.49999674093141516  1.0000
  H   H1        1.0  0.5048844049454928  0.12554211512346566  0.9314687194121799  1.0000
  H   H2        1.0  0.49515039036408137  0.8744267305188912  0.06853222450729383  1.0000
  H   H3        1.0  0.4700726061796485  0.10873398116608259  0.7758031910326364  1.0000
  H   H4        1.0  0.5299226753287273  0.891235127649558  0.2242140093998087  1.0000
  H   H5        1.0  0.5361760720764721  0.2710701732884785  0.7984836261274707  1.0000
  H   H6        1.0  0.4638203972588429  0.7289077135155181  0.20151696581210388  1.0000
  H   H7        1.0  0.26679099325109956  0.2631601790228331  0.4297401389789569  1.0000
  H   H8        1.0  0.733188414549595  0.736845958449251  0.5702523345109111  1.0000
  H   H9        1.0  0.43546450634296713  0.10867054206850206  0.41636895729183004  1.0000
  H   H10       1.0  0.564519582350677  0.8913366406181708  0.5836184451959028  1.0000
  H   H11       1.0  0.4155785858776824  0.25590940624780245  0.5150402203412198  1.0000
  H   H12       1.0  0.5844107008242219  0.7440954901085133  0.48494621596922377  1.0000
  H   H13       1.0  0.8111180309373085  0.6798155538393472  0.24867297334271382  1.0000
  H   H14       1.0  0.18886432578853632  0.3202158192032272  0.7513305549466762  1.0000
  H   H15       1.0  0.9418020360100742  0.5299595337424207  0.14898287336116303  1.0000
  H   H16       1.0  0.058195680090499025  0.47005938282481446  0.8510223476781886  1.0000
  H   H17       1.0  0.7479586706379422  0.598942184504061  0.13275114723494139  1.0000
  H   H18       1.0  0.252028616207575  0.4010766218044352  0.8672490666866961  1.0000
  H   H19       1.0  0.35286425878656763  0.5200945402105218  0.5284050050946545  1.0000
  H   H20       1.0  0.6471372909815827  0.479891542740461  0.47160744891472456  1.0000
  H   H21       1.0  0.24868698016830143  0.6523373116345681  0.4260310399190954  1.0000
  H   H22       1.0  0.7513166447748745  0.3476432024163998  0.5739873297832359  1.0000
  H   H23       1.0  0.14366938977078547  0.5250293800671315  0.5475373130123201  1.0000
  H   H24       1.0  0.8563371020651047  0.474960271222379  0.45248292179184796  1.0000
  H   H25       1.0  0.384162134130662  0.8119656085495706  0.8846566579032922  1.0000
  H   H26       1.0  0.6158466233224049  0.18802919525806056  0.11533582951412302  1.0000
  H   H27       1.0  0.2551987860462858  0.8775899657269761  0.019893146325927067  1.0000
  H   H28       1.0  0.7448092245515595  0.12241503071093969  0.9800972161467096  1.0000
  C   C1        1.0  0.7217334114108311  0.07440029443890239  0.7633461330796504  1.0000
  C   C2        1.0  0.27827178682329656  0.9255887955267922  0.23664514807318665  1.0000
  C   C3        1.0  0.9183078516949194  0.7447773695491049  0.03995350691029387  1.0000
  C   C4        1.0  0.08168668000549671  0.25524135717913043  0.9600421056529879  1.0000
  C   C5        1.0  0.25166756790314093  0.1024812911959643  0.6022920519400897  1.0000
  C   C6        1.0  0.7483272148276543  0.8975191222938006  0.3976974250528683  1.0000
  C   C7        1.0  0.5472330062524406  0.1475530708329557  0.8224246343177339  1.0000
  C   C8        1.0  0.4527727831128062  0.8524191674907584  0.17757727195643008  1.0000
  C   C9        1.0  0.18810064276345884  0.709378281681289  0.626920893060962  1.0000
  C   C10       1.0  0.8119150919800545  0.29060208136559135  0.37308885497835576  1.0000
  C   C11       1.0  0.345987338761688  0.18963544185420028  0.4835133900658163  1.0000
  C   C12       1.0  0.6540032762600205  0.8103740782323783  0.5164768369928082  1.0000
  C   C13       1.0  0.8496214636555309  0.6338194152376103  0.15118201994916802  1.0000
  C   C14       1.0  0.15036510073171874  0.366215291407407  0.8488171941403947  1.0000
  C   C15       1.0  0.23799487940792127  0.5937724322551361  0.5260635437687566  1.0000
  C   C16       1.0  0.7620152191379788  0.40621248713961217  0.4739469745177302  1.0000
  O   O1        1.0  0.09892474603020676  0.10576369687581179  0.621822654714222  1.0000
  O   O2        1.0  0.9010747947158321  0.8942414015908966  0.37817355237604017  1.0000
  O   O3        1.0  0.05556210659573683  0.8086813935625796  0.635049975959248  1.0000
  O   O4        1.0  0.9444452293590403  0.19132497669838233  0.3649526740697978  1.0000
  O   O5        1.0  0.2716886222064758  0.8225523638817192  0.9387471542380366  1.0000
  O   O6        1.0  0.7283170980530971  0.17744585310860825  0.06124562033790674  1.0000
  O   O7        1.0  0.9414138595844932  0.873169684649376  0.06362388127811863  1.0000
  O   O8        1.0  0.058587147846438425  0.1268446653560744  0.9363801978353474  1.0000
  O   O9        1.0  0.3189204975060207  0.0230395603258273  0.6859743789170166  1.0000
  O   O10       1.0  0.6810886485175516  0.9769722012675501  0.31401290924674174  1.0000
  O   O11       1.0  0.812130290676798  0.03488300558748848  0.8414290522453385  1.0000
  O   O12       1.0  0.18788412343940317  0.965126432934866  0.15855536427629596  1.0000
  O   O13       1.0  0.9589309334728212  0.7125114988254777  0.9196382727516902  1.0000
  O   O14       1.0  0.041049627436763124  0.28749935422852957  0.0803627551484496  1.0000
  O   O15       1.0  0.7695728169955629  0.05854400608446748  0.6391625920300539  1.0000
  O   O16       1.0  0.23042954365294588  0.9414541129185066  0.36082533773191716  1.0000
  O   O17       1.0  0.27002097017955157  0.7117641093432354  0.7048111749481761  1.0000
  O   O18       1.0  0.7299794228723969  0.2882266606054316  0.2952085090603375  1.0000
