data_image0
_chemical_formula_structural       Zn2H52C60S4N20O8
_chemical_formula_sum              "Zn2 H52 C60 S4 N20 O8"
_cell_length_a       11.334500811675937
_cell_length_b       13.283339668123736
_cell_length_c       13.693366956231088
_cell_angle_alpha    71.65184580742651
_cell_angle_beta     65.56509669363783
_cell_angle_gamma    64.78395748579166

_space_group_name_H-M_alt    "P 1"
_space_group_IT_number       1

loop_
  _space_group_symop_operation_xyz
  'x, y, z'

loop_
  _atom_site_type_symbol
  _atom_site_label
  _atom_site_symmetry_multiplicity
  _atom_site_fract_x
  _atom_site_fract_y
  _atom_site_fract_z
  _atom_site_occupancy
  Zn  Zn1       1.0  0.8570878395403978  0.24996617990692732  0.7500565966401571  1.0000
  Zn  Zn2       1.0  0.14291232845640442  0.7500324811745211  0.24994404722009037  1.0000
  H   H1        1.0  0.48940107832302715  0.37471169691394823  0.4638096253229664  1.0000
  H   H2        1.0  0.32797362932556945  0.12503860389292498  0.03649579359100132  1.0000
  H   H3        1.0  0.5106008086931408  0.6252861162155198  0.5361907569916798  1.0000
  H   H4        1.0  0.672030647549981  0.874960045649814  0.9635036313914971  1.0000
  H   H5        1.0  0.7465357055736561  0.07776616601472598  0.7483950151784386  1.0000
  H   H6        1.0  0.5731822084401302  0.42177909453067036  0.7515507244344166  1.0000
  H   H7        1.0  0.2534643715897289  0.9222333059629264  0.2516023128513467  1.0000
  H   H8        1.0  0.4268189506696345  0.5782187260568463  0.2484503895404303  1.0000
  H   H9        1.0  0.2916516751460703  0.09395830754414189  0.8663570949118411  1.0000
  H   H10       1.0  0.2525974406545828  0.40570586809599973  0.6332668012340151  1.0000
  H   H11       1.0  0.708343685185767  0.9060420532875072  0.1336444783321866  1.0000
  H   H12       1.0  0.7474001371635025  0.5942953512886078  0.366735928733526  1.0000
  H   H13       1.0  0.07184829447968594  0.10087179414865939  0.8623318215132445  1.0000
  H   H14       1.0  0.03536894517455363  0.3990918964479988  0.6375477528216253  1.0000
  H   H15       1.0  0.9281509115243339  0.8991293881801642  0.13766733107822665  1.0000
  H   H16       1.0  0.9646291835299504  0.6009101374446075  0.3624519866830769  1.0000
  H   H17       1.0  0.05263020218728795  0.944211277963717  0.7683072264790314  1.0000
  H   H18       1.0  0.7653590757803739  0.5558287395690655  0.7317982893819848  1.0000
  H   H19       1.0  0.9473616047990774  0.055789109088294715  0.23169694803819846  1.0000
  H   H20       1.0  0.23464386058910242  0.4441715945733478  0.2682005207389296  1.0000
  H   H21       1.0  0.5307294768650408  0.0701950064027415  0.747495611073319  1.0000
  H   H22       1.0  0.3490727256483693  0.4294173222604912  0.7520770681803912  1.0000
  H   H23       1.0  0.46926978620537335  0.9298044841027959  0.25250350564450486  1.0000
  H   H24       1.0  0.650927092955321  0.5705821829266996  0.24792343093287894  1.0000
  H   H25       1.0  0.9774284728661368  0.3463053393762011  0.251492934896966  1.0000
  H   H26       1.0  0.5756014980673144  0.15362252991594258  0.24856718926437807  1.0000
  H   H27       1.0  0.0225746067562937  0.6536932918730827  0.7485047823224634  1.0000
  H   H28       1.0  0.4243982925901619  0.8463803478479692  0.7514323245683769  1.0000
  H   H29       1.0  0.6375085380680189  0.3811427331532898  0.5511056933470116  1.0000
  H   H30       1.0  0.5698339900368622  0.11852753819141527  0.9491177638307139  1.0000
  H   H31       1.0  0.3624937565816138  0.6188575973773212  0.44889279140628  1.0000
  H   H32       1.0  0.43016874483930695  0.88147113733725  0.0508841815000168  1.0000
  H   H33       1.0  0.8301149647952927  0.33744817808312877  0.1620251896937931  1.0000
  H   H34       1.0  0.3299230892206779  0.1626566923700281  0.3381467649499825  1.0000
  H   H35       1.0  0.16988668813450386  0.6625521488356794  0.8379729696918833  1.0000
  H   H36       1.0  0.6700771370164845  0.837345330218305  0.6618518366019333  1.0000
  H   H37       1.0  0.21427245255736682  0.8464604826160382  0.6035743824722105  1.0000
  H   H38       1.0  0.6643301589922431  0.6536064959190495  0.8966086309846875  1.0000
  H   H39       1.0  0.7857197620624705  0.15354242183710906  0.3964278944836652  1.0000
  H   H40       1.0  0.33566968873162034  0.3463946900215761  0.10339084697441345  1.0000
  H   H41       1.0  0.21917732654760855  0.9657571416652074  0.4187990680907563  1.0000
  H   H42       1.0  0.6034403843948511  0.5343038460570425  0.08134709521910824  1.0000
  H   H43       1.0  0.7808215009431193  0.034243204015922395  0.5812009609079072  1.0000
  H   H44       1.0  0.3965615608616632  0.46569732857930285  0.9186512447872065  1.0000
  H   H45       1.0  0.6060826926639749  0.3441673534243109  0.17683385067901014  1.0000
  H   H46       1.0  0.12733655856059298  0.15592075010976464  0.3233730906272285  1.0000
  H   H47       1.0  0.3939183185459787  0.655832969882695  0.8231639833390432  1.0000
  H   H48       1.0  0.8726654437623151  0.8440787327033021  0.6766252135054249  1.0000
  H   H49       1.0  0.4710445399282079  0.35300964663483103  0.3019526407068371  1.0000
  H   H50       1.0  0.12624702670643018  0.14697264131074655  0.19826274226406335  1.0000
  H   H51       1.0  0.5289573762081332  0.6469898472480793  0.6980467204536397  1.0000
  H   H52       1.0  0.8737566084492769  0.8530260046201902  0.8017363573508193  1.0000
  C   C1        1.0  0.002210649805817781  0.15933586623238227  0.5688781650254884  1.0000
  C   C2        1.0  0.7303433559703333  0.3406953484347852  0.9312211607415792  1.0000
  C   C3        1.0  0.9977875359650807  0.8406644758369453  0.43112153860555213  1.0000
  C   C4        1.0  0.2696585030996203  0.6593058372714112  0.0687782362925589  1.0000
  C   C5        1.0  0.06295454146541614  0.9886630538359424  0.6847118935395785  1.0000
  C   C6        1.0  0.7365250761687251  0.5113569195365528  0.8153930162025989  1.0000
  C   C7        1.0  0.9370394201199945  0.011335630088502998  0.31529110715120384  1.0000
  C   C8        1.0  0.2634761411813926  0.48864426255784105  0.18460605546392375  1.0000
  C   C9        1.0  0.15249442904939786  0.9355906027456481  0.5946692437115075  1.0000
  C   C10       1.0  0.6828270251198133  0.5644542002564279  0.9054677966475072  1.0000
  C   C11       1.0  0.847500581889321  0.0644106021917423  0.40533218478555016  1.0000
  C   C12       1.0  0.3171749201367078  0.4355469743799245  0.09453054335880756  1.0000
  C   C13       1.0  0.15520657292681503  0.0022906747254438993  0.49300691181777984  1.0000
  C   C14       1.0  0.6503782000075446  0.4977595142462475  0.007125543900727575  1.0000
  C   C15       1.0  0.8447931594903084  0.9977088415315972  0.5069946443233138  1.0000
  C   C16       1.0  0.3496233958558577  0.5022425044958396  0.992872651358603  1.0000
  C   C17       1.0  0.817901432735965  0.36150150597502767  0.4072845449629982  1.0000
  C   C18       1.0  0.5868453806110666  0.13832540261646636  0.09287551909077521  1.0000
  C   C19       1.0  0.18210027726021855  0.6384971291204876  0.5927135785490096  1.0000
  C   C20       1.0  0.41315207725342173  0.8616749469108952  0.9071249162004664  1.0000
  C   C21       1.0  0.680147132745404  0.3699911120073621  0.46641778837910425  1.0000
  C   C22       1.0  0.516708277678042  0.12972279623210878  0.033787251260122365  1.0000
  C   C23       1.0  0.31985623920375167  0.6300083669594655  0.5335801094609638  1.0000
  C   C24       1.0  0.4832953004112781  0.8702775415221067  0.9662118842284149  1.0000
  C   C25       1.0  0.5969652276054306  0.3666356354556441  0.4173971128415206  1.0000
  C   C26       1.0  0.3811467781560013  0.1331100311999833  0.08285997590674306  1.0000
  C   C27       1.0  0.4030391063365003  0.6333613222638089  0.5826022762673163  1.0000
  C   C28       1.0  0.6188530975140836  0.8668877821639212  0.9171404873328659  1.0000
  C   C29       1.0  0.6491337342167752  0.3552765624367637  0.3063050471412652  1.0000
  C   C30       1.0  0.3109531036749829  0.14470319618930458  0.19389643367456702  1.0000
  C   C31       1.0  0.35086727699317777  0.6447237608702423  0.6936927868767813  1.0000
  C   C32       1.0  0.6890495112475888  0.8552946094821293  0.806103216979878  1.0000
  C   C33       1.0  0.7884512869255573  0.347290626213926  0.24725057503610529  1.0000
  C   C34       1.0  0.38326448504690097  0.15269129822011251  0.2529540238071918  1.0000
  C   C35       1.0  0.2115506000906109  0.6527071869155422  0.7527498072785408  1.0000
  C   C36       1.0  0.6167357120700814  0.8473090436147783  0.7470455988988862  1.0000
  C   C37       1.0  0.870940656886937  0.35104850973324636  0.29724281682808146  1.0000
  C   C38       1.0  0.5195158503112082  0.14883233266639448  0.20291232667975842  1.0000
  C   C39       1.0  0.12906242273549393  0.6489501215160303  0.702754900391348  1.0000
  C   C40       1.0  0.48048338945984886  0.8511697305895183  0.7970901776158359  1.0000
  C   C41       1.0  0.6559684852628678  0.15385522204741867  0.7487996923990893  1.0000
  C   C42       1.0  0.5590162612537595  0.3457104010630303  0.7510612085748749  1.0000
  C   C43       1.0  0.34403004990113584  0.8461442759161598  0.25120015597893547  1.0000
  C   C44       1.0  0.440983178836639  0.654288267476467  0.24894016694557322  1.0000
  C   C45       1.0  0.5352770432019724  0.15005041448978318  0.7488647221139929  1.0000
  C   C46       1.0  0.4346852466440154  0.349545246654607  0.7507636699946829  1.0000
  C   C47       1.0  0.4647224830749864  0.8499482429798629  0.25113559637863153  1.0000
  C   C48       1.0  0.5653151845593457  0.6504525813909509  0.24923817564037173  1.0000
  C   C49       1.0  0.42119445254702004  0.2498035993749355  0.7497646876572406  1.0000
  C   C50       1.0  0.5788051936835432  0.7501959279519496  0.2502379255116767  1.0000
  C   C51       1.0  0.2913189173884589  0.24980696097206595  0.749759532970437  1.0000
  C   C52       1.0  0.7086800580020806  0.7501908819895747  0.25024377598502673  1.0000
  C   C53       1.0  0.23941944972484927  0.1628509393867716  0.8136722245293272  1.0000
  C   C54       1.0  0.21649089260598947  0.3367931867224954  0.6858900711176192  1.0000
  C   C55       1.0  0.7605819108782158  0.8371485398144926  0.18632575423570338  1.0000
  C   C56       1.0  0.7835084333516349  0.6632088654635665  0.3141113761501444  1.0000
  C   C57       1.0  0.11587394954338485  0.16642690933936416  0.812135556893928  1.0000
  C   C58       1.0  0.09480036459026299  0.3334119137598961  0.687578621764736  1.0000
  C   C59       1.0  0.8841238623610721  0.833571796255903  0.18786939600259  1.0000
  C   C60       1.0  0.9051963653678216  0.666588443225514  0.31242254518671353  1.0000
  S   S1        1.0  0.9186656067674475  0.3726989969213791  0.4709760215565028  1.0000
  S   S2        1.0  0.7623876278532508  0.12737134455445437  0.029178258846535278  1.0000
  S   S3        1.0  0.08134137559355989  0.6272987640018001  0.5290192391367088  1.0000
  S   S4        1.0  0.23761150243188198  0.8726333025216703  0.970828690054667  1.0000
  N   N1        1.0  0.9869413505144563  0.097977939581078  0.6723118347783698  1.0000
  N   N2        1.0  0.7573399384648098  0.4020470118211463  0.8277687468755843  1.0000
  N   N3        1.0  0.013054068057727004  0.902025782757448  0.32768769615733373  1.0000
  N   N4        1.0  0.24266025865217256  0.5979533300137446  0.17223087583049337  1.0000
  N   N5        1.0  0.08210771386952587  0.11288200511039287  0.47797810796226525  1.0000
  N   N6        1.0  0.6727814879432331  0.3871675201935645  0.02211778011049148  1.0000
  N   N7        1.0  0.9178907642280979  0.8871191846764712  0.5220217762894139  1.0000
  N   N8        1.0  0.3272203711267208  0.6128336655126316  0.9778816169236465  1.0000
  N   N9        1.0  0.9275934989038035  0.2699101162551115  0.5729243887631837  1.0000
  N   N10       1.0  0.7703732551347571  0.23009892514634336  0.9271509243932319  1.0000
  N   N11       1.0  0.07240597030677524  0.7300902330378205  0.42707596560310185  1.0000
  N   N12       1.0  0.22962787602879323  0.7699022680178942  0.07284920430110733  1.0000
  N   N13       1.0  0.5667313153530529  0.3554770377593782  0.2568253565360976  1.0000
  N   N14       1.0  0.17919845038962726  0.1447270110594303  0.24334701833056024  1.0000
  N   N15       1.0  0.4332708931100201  0.6445233038410763  0.7431741852450244  1.0000
  N   N16       1.0  0.8208052709526401  0.8552716238016557  0.7566510242564918  1.0000
  N   N17       1.0  0.6680587232562654  0.24979263867138002  0.7499884314512856  1.0000
  N   N18       1.0  0.33194077390052007  0.7502043380448312  0.250012908195501  1.0000
  N   N19       1.0  0.04532681875039657  0.2499795644534117  0.7499234888618035  1.0000
  N   N20       1.0  0.9546741353931623  0.7500224506768728  0.2500743810299113  1.0000
  O   O1        1.0  0.8372025107346062  0.47280274732356986  0.5223672230692743  1.0000
  O   O2        1.0  0.8326052908658499  0.027162723107537097  0.9779226542314279  1.0000
  O   O3        1.0  0.1627930848575617  0.5272001530489092  0.4776345666690603  1.0000
  O   O4        1.0  0.1673997709824916  0.972834227153875  0.022076003217207988  1.0000
  O   O5        1.0  0.05281366216463098  0.36739613992942577  0.3896010074565269  1.0000
  O   O6        1.0  0.8096784905796924  0.1330333172348688  0.11052118738803791  1.0000
  O   O7        1.0  0.9471812055211332  0.6326067679010875  0.6104015139420084  1.0000
  O   O8        1.0  0.19032024607761844  0.8669678393424578  0.8894755257801706  1.0000
