data_image0
_chemical_formula_structural       UP2H24C18N2O14
_chemical_formula_sum              "U1 P2 H24 C18 N2 O14"
_cell_length_a       6.853599527855618
_cell_length_b       8.218253287824396
_cell_length_c       11.863804571815992
_cell_angle_alpha    81.80770397499734
_cell_angle_beta     83.39738602360495
_cell_angle_gamma    86.78169505193604

_space_group_name_H-M_alt    "P 1"
_space_group_IT_number       1

loop_
  _space_group_symop_operation_xyz
  'x, y, z'

loop_
  _atom_site_type_symbol
  _atom_site_label
  _atom_site_symmetry_multiplicity
  _atom_site_fract_x
  _atom_site_fract_y
  _atom_site_fract_z
  _atom_site_occupancy
  U   U1        1.0  0.4999879680311425  0.9999971078670739  0.499996905553445  1.0000
  P   P1        1.0  0.404496900898529  0.6698053493086674  0.7626094771300417  1.0000
  P   P2        1.0  0.5955024876209691  0.3301958217890543  0.23739404438236278  1.0000
  H   H1        1.0  0.5926536111182797  0.024978544549171  0.7788408575095502  1.0000
  H   H2        1.0  0.4073316485753082  0.9750324386758393  0.2211725707394123  1.0000
  H   H3        1.0  0.8843216376183917  0.13983473750092662  0.8306789840572365  1.0000
  H   H4        1.0  0.11566616092683552  0.8601860665858325  0.16932740121838918  1.0000
  H   H5        1.0  0.9002935746698173  0.7550689619740893  0.1197241815929075  1.0000
  H   H6        1.0  0.0997578339847252  0.24490907276416612  0.8802568709104717  1.0000
  H   H7        1.0  0.6108508880882297  0.6404645975954466  0.06445835000645417  1.0000
  H   H8        1.0  0.3891897331973412  0.3595146871803294  0.9355366665172865  1.0000
  H   H9        1.0  0.2761208448305226  0.8577487704192137  0.8828367146125302  1.0000
  H   H10       1.0  0.7238804188697332  0.1422401875805619  0.11717806219468939  1.0000
  H   H11       1.0  0.3320573172759183  0.6656888853551594  0.9628454918431473  1.0000
  H   H12       1.0  0.6679651119620972  0.3342940306861877  0.0371611306174415  1.0000
  H   H13       1.0  0.041268004609087  0.8040736954764753  0.7098436381457417  1.0000
  H   H14       1.0  0.9587318575046453  0.19594591588718663  0.290154607391564  1.0000
  H   H15       1.0  0.9050262320196865  0.6237644219367766  0.7630951563709303  1.0000
  H   H16       1.0  0.09496477298231548  0.3762636194033817  0.23688839363138206  1.0000
  H   H17       1.0  0.03809916528624057  0.6422806907848937  0.6225685353217045  1.0000
  H   H18       1.0  0.961919605374739  0.3577415433585927  0.3774292303430968  1.0000
  H   H19       1.0  0.4753699699328706  0.3139953287112718  0.7151792143293318  1.0000
  H   H20       1.0  0.5246153930222947  0.6859934392178317  0.2848288822842235  1.0000
  H   H21       1.0  0.7340566369514008  0.34759637819716  0.7009005889693398  1.0000
  H   H22       1.0  0.2659213711366419  0.6524056750908187  0.299082117258969  1.0000
  H   H23       1.0  0.5820371681591043  0.4720596609849749  0.6075498208177946  1.0000
  H   H24       1.0  0.4179089252684207  0.5279299101329186  0.3924468980892825  1.0000
  C   C1        1.0  0.5781876560591144  0.824991797103948  0.9189421969055473  1.0000
  C   C2        1.0  0.421827953312821  0.1750082754984135  0.08106053061309378  1.0000
  C   C3        1.0  0.659473734787909  0.9654343844004244  0.8538509716851976  1.0000
  C   C4        1.0  0.340525386748645  0.0345717013385354  0.1461512213472176  1.0000
  C   C5        1.0  0.8253415242422976  0.031249793265175206  0.8843277913516587  1.0000
  C   C6        1.0  0.17465480861565652  0.9687538079542861  0.115674810345908  1.0000
  C   C7        1.0  0.915662019346364  0.9612709165002614  0.9818149452800924  1.0000
  C   C8        1.0  0.08435406755408081  0.038722978800017  0.018185012231619196  1.0000
  C   C9        1.0  0.836795038931662  0.8163886996759615  0.04405098665220922  1.0000
  C   C10       1.0  0.16324069937099492  0.1836003654886085  0.9559399346428776  1.0000
  C   C11       1.0  0.6719166837427224  0.7498909985646022  0.01274370800081929  1.0000
  C   C12       1.0  0.32810981563844893  0.2501029482167709  0.9872514475282158  1.0000
  C   C13       1.0  0.3904076965149059  0.7586571880930535  0.8929784444770235  1.0000
  C   C14       1.0  0.6096142825850491  0.24133189877408515  0.10703010406537318  1.0000
  C   C15       1.0  0.03627679915395278  0.6709167133476726  0.7100150000466671  1.0000
  C   C16       1.0  0.9637236055036454  0.3290942795840124  0.28998324953651883  1.0000
  C   C17       1.0  0.5881934481376163  0.4058678038169248  0.694195922418885  1.0000
  C   C18       1.0  0.41177886610994113  0.5941244564589213  0.30580074457149914  1.0000
  N   N1        1.0  0.8172059568257309  0.7911150174927783  0.3895268996921004  1.0000
  N   N2        1.0  0.18278162321724517  0.20888849889189492  0.6104745133183869  1.0000
  O   O1        1.0  0.3207312264397189  0.9045325368382676  0.4331711177119644  1.0000
  O   O2        1.0  0.6792647681197437  0.0954562307615845  0.566825425517905  1.0000
  O   O3        1.0  0.45605104629490983  0.7910525743870025  0.6578132306034092  1.0000
  O   O4        1.0  0.5439352592050144  0.20894724565544456  0.34218947294220914  1.0000
  O   O5        1.0  0.20401540067398832  0.5843070701251705  0.7608561438979037  1.0000
  O   O6        1.0  0.7959774280408497  0.4157014930140265  0.2391545788838059  1.0000
  O   O7        1.0  0.5591080922045252  0.520357673868382  0.7790309560483237  1.0000
  O   O8        1.0  0.4408770757045701  0.4796384174503815  0.2209688184067957  1.0000
  O   O9        1.0  0.7567121686524275  0.9315887639841236  0.3393801924725962  1.0000
  O   O10       1.0  0.24327403420722496  0.06841593184180542  0.6606161190422739  1.0000
  O   O11       1.0  0.9433024514981981  0.7030322422548353  0.3432989010423952  1.0000
  O   O12       1.0  0.05669555983797639  0.2969701082841425  0.656699518974392  1.0000
  O   O13       1.0  0.7323620352982303  0.7497447054373297  0.491284258352799  1.0000
  O   O14       1.0  0.2676199485750957  0.250255059235144  0.508716162999029  1.0000
