data_image0
_chemical_formula_structural       Zn4H16C32O16
_chemical_formula_sum              "Zn4 H16 C32 O16"
_cell_length_a       5.2284199651246
_cell_length_b       10.557089517442183
_cell_length_c       14.039546227207683
_cell_angle_alpha    108.81146009153385
_cell_angle_beta     90.00023945455773
_cell_angle_gamma    90.00061444620047

_space_group_name_H-M_alt    "P 1"
_space_group_IT_number       1

loop_
  _space_group_symop_operation_xyz
  'x, y, z'

loop_
  _atom_site_type_symbol
  _atom_site_label
  _atom_site_symmetry_multiplicity
  _atom_site_fract_x
  _atom_site_fract_y
  _atom_site_fract_z
  _atom_site_occupancy
  Zn  Zn1       1.0  0.4660887766069024  0.441446872736222  0.11659847716580878  1.0000
  Zn  Zn2       1.0  0.9660664893894693  0.5585600641211313  0.3834141482285743  1.0000
  Zn  Zn3       1.0  0.5339269208193542  0.558562182785259  0.8834103423017438  1.0000
  Zn  Zn4       1.0  0.0339358194682333  0.44143705219585866  0.6165796331251698  1.0000
  H   H1        1.0  0.5418737284294863  0.177020825730132  0.5231915481492421  1.0000
  H   H2        1.0  0.04187335186770011  0.8229783658895612  0.9768155250850725  1.0000
  H   H3        1.0  0.45814961918296876  0.8229662676968981  0.4768026231699451  1.0000
  H   H4        1.0  0.958109831051168  0.17704072464731266  0.023190770543408196  1.0000
  H   H5        1.0  0.2009024386541896  0.0019835409866999  0.475005366045643  1.0000
  H   H6        1.0  0.7008994855462305  0.9980095579616516  0.025008391460623548  1.0000
  H   H7        1.0  0.7991036954186229  0.9980085395337565  0.5249928779877279  1.0000
  H   H8        1.0  0.299072221577525  0.0020024913234664003  0.9750025870643881  1.0000
  H   H9        1.0  0.9125728744644166  0.9892451253408935  0.33104658943562976  1.0000
  H   H10       1.0  0.4125634441961878  0.010745404782561299  0.16896761616546738  1.0000
  H   H11       1.0  0.08741222102004541  0.010767944937938999  0.6689610782094632  1.0000
  H   H12       1.0  0.5874140005881828  0.9892476114378251  0.8310422538954966  1.0000
  H   H13       1.0  0.9668722922464354  0.1480908869719855  0.23552686967001082  1.0000
  H   H14       1.0  0.46686662590758493  0.8518930397574204  0.26448011143267525  1.0000
  H   H15       1.0  0.033118540903331  0.8519082184900668  0.764469536560206  1.0000
  H   H16       1.0  0.5331318577650492  0.14810197382806925  0.7355309609905516  1.0000
  C   C1        1.0  0.28937468242946823  0.2494357959157156  0.32351046852660653  1.0000
  C   C2        1.0  0.7893831875168686  0.7505559595121977  0.1764931404531395  1.0000
  C   C3        1.0  0.7106046749609548  0.7505613000493054  0.6764868692117217  1.0000
  C   C4        1.0  0.21060955837506162  0.24945011012786716  0.8235120972738413  1.0000
  C   C5        1.0  0.45148151412114157  0.25804409455697197  0.40561241119963387  1.0000
  C   C6        1.0  0.9514890264112099  0.7419457803653983  0.09438745536204604  1.0000
  C   C7        1.0  0.5485112314672308  0.7419410217464842  0.5943770013174897  1.0000
  C   C8        1.0  0.04849415632092051  0.25805830816775444  0.9056137348833033  1.0000
  C   C9        1.0  0.4156229459783631  0.16848159591295087  0.4597569114327271  1.0000
  C   C10       1.0  0.9156031665884472  0.8315180785527968  0.04023888694143801  1.0000
  C   C11       1.0  0.5844061396129305  0.8315165333336266  0.5402349816332616  1.0000
  C   C12       1.0  0.0843781036638305  0.16849801806452547  0.9597652495516299  1.0000
  C   C13       1.0  0.2250498558663878  0.07157309942900268  0.4329133514625738  1.0000
  C   C14       1.0  0.7250592053945867  0.9284171534704271  0.06710117408410808  1.0000
  C   C15       1.0  0.7749314142097106  0.9284259532881262  0.5670923014526607  1.0000
  C   C16       1.0  0.27493736569537935  0.07158187091505398  0.9329094578501013  1.0000
  C   C17       1.0  0.0632528908079735  0.06431342168229288  0.3522477585058112  1.0000
  C   C18       1.0  0.5632325879460608  0.9356787421072424  0.14776553146632654  1.0000
  C   C19       1.0  0.9367513308298784  0.9356906142098892  0.647762678476532  1.0000
  C   C20       1.0  0.4367333811454301  0.06432131934174379  0.8522389443744132  1.0000
  C   C21       1.0  0.0945039412940929  0.15318917773589646  0.2981569894530196  1.0000
  C   C22       1.0  0.5944822550839532  0.8468032348411043  0.20185000509354717  1.0000
  C   C23       1.0  0.9055002802216594  0.8468099277716234  0.7018394167999347  1.0000
  C   C24       1.0  0.40549710242166986  0.15319879961818117  0.7981599408047443  1.0000
  C   C25       1.0  0.314977675192587  0.33611709144567925  0.2579762712776556  1.0000
  C   C26       1.0  0.8149581799799677  0.6638708432296311  0.24202501995793566  1.0000
  C   C27       1.0  0.6850494976518605  0.6638690053749271  0.7420169432424044  1.0000
  C   C28       1.0  0.18503456575937352  0.33612424332282137  0.7579732493307317  1.0000
  C   C29       1.0  0.6636080200452882  0.3581648524151077  0.4374586940473434  1.0000
  C   C30       1.0  0.16359966681752525  0.6418380850543882  0.06254245501540366  1.0000
  C   C31       1.0  0.3364210655529192  0.641833268721861  0.5625346215880782  1.0000
  C   C32       1.0  0.836375865392128  0.3581660358912017  0.9374530449392607  1.0000
  O   O1        1.0  0.4447712677379911  0.2915666272728926  0.1770649260872474  1.0000
  O   O2        1.0  0.944765003880278  0.7084251871469504  0.32293825384144265  1.0000
  O   O3        1.0  0.5552979831282129  0.7084404270820527  0.8229434024294163  1.0000
  O   O4        1.0  0.0552908583523504  0.29156391584857017  0.6770549860053662  1.0000
  O   O5        1.0  0.1941489531345582  0.4458141308246866  0.2781164464705768  1.0000
  O   O6        1.0  0.6941804495519861  0.55417598116135  0.22188588232363318  1.0000
  O   O7        1.0  0.8058265789499333  0.5541810043269277  0.721873287372304  1.0000
  O   O8        1.0  0.3058275973245586  0.44582907974686486  0.7781205324778426  1.0000
  O   O9        1.0  0.6734855892990836  0.4495290161753756  0.395966116340233  1.0000
  O   O10       1.0  0.17350627718583672  0.5504689770137148  0.1040352612842668  1.0000
  O   O11       1.0  0.3265205447001591  0.5504560474611251  0.6040325429008816  1.0000
  O   O12       1.0  0.8264845560663616  0.4495421851966199  0.8959555557803611  1.0000
  O   O13       1.0  0.8185058377831214  0.34343471232592276  0.5025298272108571  1.0000
  O   O14       1.0  0.3185365053337251  0.6565514661305724  0.9974538755425256  1.0000
  O   O15       1.0  0.1814907329923443  0.6565494600835463  0.4974493818058718  1.0000
  O   O16       1.0  0.6814753667758496  0.3434597002060328  0.002536230273122379  1.0000
