data_image0
_chemical_formula_structural       Zn2H32C32N36
_chemical_formula_sum              "Zn2 H32 C32 N36"
_cell_length_a       8.359558817
_cell_length_b       8.51084711006407
_cell_length_c       15.403
_cell_angle_alpha    92.4601495233896
_cell_angle_beta     90.0
_cell_angle_gamma    90.0

_space_group_name_H-M_alt    "P 1"
_space_group_IT_number       1

loop_
  _space_group_symop_operation_xyz
  'x, y, z'

loop_
  _atom_site_type_symbol
  _atom_site_label
  _atom_site_symmetry_multiplicity
  _atom_site_fract_x
  _atom_site_fract_y
  _atom_site_fract_z
  _atom_site_occupancy
  Zn  Zn1       1.0  0.0  0.49999865829751394  0.5000007472468937  1.0000
  Zn  Zn2       1.0  0.5000000707573236  0.0  0.0  1.0000
  H   H1        1.0  0.6180158681931545  0.565904787233471  0.4279535545342626  1.0000
  H   H2        1.0  0.8819783629019255  0.0659073049910788  0.9279567305257788  1.0000
  H   H3        1.0  0.3819842733214927  0.4340937054166787  0.5720460201803306  1.0000
  H   H4        1.0  0.11802417108347638  0.9340947158244362  0.07204292786884992  1.0000
  H   H5        1.0  0.8441055508396218  0.7778275677831061  0.6476874036468773  1.0000
  H   H6        1.0  0.6559018388446134  0.27783478976118653  0.14768939276340382  1.0000
  H   H7        1.0  0.15589339443964426  0.2221721009221653  0.3523121989610658  1.0000
  H   H8        1.0  0.3441006951407886  0.7221672310543212  0.8523102656312176  1.0000
  H   H9        1.0  0.0597483684167983  0.8810793270609807  0.4526234775095262  1.0000
  H   H10       1.0  0.4402528985759062  0.381079492708345  0.9526252992659964  1.0000
  H   H11       1.0  0.9402517730978486  0.1189179895340473  0.5473754200875476  1.0000
  H   H12       1.0  0.5597484391741219  0.6189213520520482  0.04737562968363561  1.0000
  H   H13       1.0  0.2592708595568921  0.6317697542402243  0.6564137280853118  1.0000
  H   H14       1.0  0.2407292112004313  0.1317699198875886  0.15641554984178196  1.0000
  H   H15       1.0  0.740726889486993  0.3682299144650542  0.34358587452262424  1.0000
  H   H16       1.0  0.7592721265495967  0.8682321009279264  0.8435860562253694  1.0000
  H   H17       1.0  0.5431913453094879  0.0520286785176083  0.5807107268032681  1.0000
  H   H18       1.0  0.9568112594332374  0.5520332170907238  0.0807122627410521  1.0000
  H   H19       1.0  0.4568075999697854  0.9479721662427849  0.41928825447383394  1.0000
  H   H20       1.0  0.0431900783167833  0.4479688037247911  0.9192873956535692  1.0000
  H   H21       1.0  0.6510427307398388  0.0014336111915227  0.6753316712702002  1.0000
  H   H22       1.0  0.8489574815321248  0.5014381497646383  0.17533190875963103  1.0000
  H   H23       1.0  0.3489562145394274  0.9985660575137486  0.3246685805619123  1.0000
  H   H24       1.0  0.1510438562178962  0.4985626949957549  0.824667072517471  1.0000
  H   H25       1.0  0.4210473395847387  0.8442723299641128  0.7259334509298087  1.0000
  H   H26       1.0  0.0789515349372039  0.3442748477217137  0.22593338080043426  1.0000
  H   H27       1.0  0.5789516056945274  0.1557273387411584  0.2740661516781345  1.0000
  H   H28       1.0  0.9210486065774433  0.6557271730937941  0.7740662775941873  1.0000
  H   H29       1.0  0.3620119274531319  0.04222861120099  0.7073659108718005  1.0000
  H   H30       1.0  0.1379917320103203  0.5422319737189837  0.20736871736460225  1.0000
  H   H31       1.0  0.6379882140615152  0.9577710575042814  0.2926336917361355  1.0000
  H   H32       1.0  0.8620072132689458  0.457774751317011  0.7926310526033975  1.0000
  C   C1        1.0  0.6439394850662479  0.6410276601464275  0.4848667654947292  1.0000
  C   C2        1.0  0.8560607272057225  0.1410313539591499  0.9848693201554115  1.0000
  C   C3        1.0  0.356060656448399  0.3589720085588439  0.5151334863373833  1.0000
  C   C4        1.0  0.1439418067796794  0.8589694908012431  0.015130310345874403  1.0000
  C   C5        1.0  0.7609301087832776  0.7441535815264471  0.5959447616060203  1.0000
  C   C6        1.0  0.7390665147825572  0.2441619795596495  0.0959454801675435  1.0000
  C   C7        1.0  0.23906883649598848  0.2558449111237096  0.40405546233274964  1.0000
  C   C8        1.0  0.26093123426132786  0.7558435694212235  0.9040523142345833  1.0000
  C   C9        1.0  0.1291647111572658  0.8515803364810279  0.5090198490452877  1.0000
  C   C10       1.0  0.3708353596000577  0.3515805021283924  0.0090203723534117  1.0000
  C   C11       1.0  0.8708366265927552  0.1484169801139998  0.49097904855178603  1.0000
  C   C12       1.0  0.6291647819145894  0.6484203426320007  0.9909799073720507  1.0000
  C   C13       1.0  0.2252427479989549  0.721241675674726  0.6116968703450071  1.0000
  C   C14       1.0  0.2747561265229876  0.22124184132209015  0.1116980428773076  1.0000
  C   C15       1.0  0.7747597859864399  0.2787568169754238  0.3883014059212329  1.0000
  C   C16       1.0  0.7252440149916595  0.7787578273831812  0.8883028581789889  1.0000
  C   C17       1.0  0.5599386405991922  0.9608029276041562  0.62828048878297  1.0000
  C   C18       1.0  0.9400627679081524  0.4608077974720003  0.1282811236644577  1.0000
  C   C19       1.0  0.4400626971508288  0.0391967411011152  0.3717184646007965  1.0000
  C   C20       1.0  0.059937373606494794  0.5391930472883926  0.8717172083884677  1.0000
  C   C21       1.0  0.4035966578928623  0.9312698314257162  0.6764309043625121  1.0000
  C   C22       1.0  0.0964046090998423  0.4312735252384456  0.17643216057483363  1.0000
  C   C23       1.0  0.5964034836217849  0.0687298372795553  0.3235680490212475  1.0000
  C   C24       1.0  0.9035955324148048  0.568729671632191  0.8235681749373074  1.0000
  C   C25       1.0  0.9471109867543603  0.6922225155838149  0.3238924559035965  1.0000
  C   C26       1.0  0.5528916179883581  0.1922238572863009  0.82389170865671  1.0000
  C   C27       1.0  0.0528915472310416  0.30777480101122007  0.6761090385901838  1.0000
  C   C28       1.0  0.4471025423493984  0.8077828677496937  0.1761106582079961  1.0000
  C   C29       1.0  0.9920846520195  0.925370738942803  0.2586158631327393  1.0000
  C   C30       1.0  0.5079131677817088  0.4253732567004036  0.7586151437791884  1.0000
  C   C31       1.0  0.0079142932597662  0.0746277537073539  0.741385659254391  1.0000
  C   C32       1.0  0.4920857774975573  0.5746252359497459  0.2413889755046483  1.0000
  N   N1        1.0  0.6225292642737301  0.820331375882219  0.5828304057367292  1.0000
  N   N2        1.0  0.8774661630567238  0.3203350696949413  0.0828303635006975  1.0000
  N   N3        1.0  0.3774708772409099  0.17966829282305236  0.4171685476470374  1.0000
  N   N4        1.0  0.1225351746932972  0.6796681271756881  0.9171673751147367  1.0000
  N   N5        1.0  0.546089823629984  0.75586238630315  0.5116473849518783  1.0000
  N   N6        1.0  0.9539091924066057  0.2558660801158723  0.011650588836737101  1.0000
  N   N7        1.0  0.4539115141200369  0.24413728240212862  0.488351568431881  1.0000
  N   N8        1.0  0.0460933415787963  0.7441347646445209  0.9883490416645486  1.0000
  N   N9        1.0  0.7781343659873201  0.6291894893065048  0.534728171199859  1.0000
  N   N10       1.0  0.7218622575785147  0.1291920070641055  0.03472875029466141  1.0000
  N   N11       1.0  0.221865775527327  0.3708090033436449  0.4652714035147412  1.0000
  N   N12       1.0  0.2781378839361324  0.8708100137514021  0.9652702588757833  1.0000
  N   N13       1.0  0.2795578153296248  0.8696927613872132  0.6182912184873716  1.0000
  N   N14       1.0  0.2204422554276988  0.3696941030896994  0.1182924189130148  1.0000
  N   N15       1.0  0.7204435224204033  0.1303069073180581  0.3817070856722111  1.0000
  N   N16       1.0  0.7795578860869483  0.6303079177258153  0.8817078887057904  1.0000
  N   N17       1.0  0.2191838158102186  0.9555506654373502  0.5533114063039832  1.0000
  N   N18       1.0  0.2808174511824859  0.4555520071398291  0.0533126067296195  1.0000
  N   N19       1.0  0.7808139332336734  0.0444478272128066  0.44668751918644034  1.0000
  N   N20       1.0  0.7191826903321612  0.5444476615654423  0.946687645102493  1.0000
  N   N21       1.0  0.12879985936702804  0.705928261954611  0.5427353461254469  1.0000
  N   N22       1.0  0.3711978189195406  0.20592725154686053  0.04273584154022811  1.0000
  N   N23       1.0  0.871197889676864  0.2940702306955387  0.45726422858914634  1.0000
  N   N24       1.0  0.6288035188304875  0.7940735932135325  0.9572644381852342  1.0000
  N   N25       1.0  0.970230627901806  0.5876218210830686  0.3703533307904507  1.0000
  N   N26       1.0  0.5297707806055385  0.0876278670060344  0.870353344341112  1.0000
  N   N27       1.0  0.0297695136128411  0.4123743194568448  0.6296474865858104  1.0000
  N   N28       1.0  0.470222183496837  0.912368273533879  0.1296520176043927  1.0000
  N   N29       1.0  0.9115863847387544  0.7964903864855444  0.2684734826950859  1.0000
  N   N30       1.0  0.5884150237685901  0.2964917281880304  0.7684720862240155  1.0000
  N   N31       1.0  0.0884149530112666  0.2035081061646054  0.7315286889162139  1.0000
  N   N32       1.0  0.41157913656916617  0.7035055884070045  0.23153330361483174  1.0000
  N   N33       1.0  0.0559036679124318  0.0458873186799309  0.24503108088096334  1.0000
  N   N34       1.0  0.44409640284489166  0.5458883290876813  0.7450292870178288  1.0000
  N   N35       1.0  0.9440964736022153  0.9541111739702258  0.754970441506167  1.0000
  N   N36       1.0  0.5559073273758841  0.45411133961759015  0.2549696663659304  1.0000
