data_image0
_chemical_formula_structural       Zn4H36C28N28
_chemical_formula_sum              "Zn4 H36 C28 N28"
_cell_length_a       6.092474601695126
_cell_length_b       8.520937689596497
_cell_length_c       20.386593616078354
_cell_angle_alpha    90.00029322378526
_cell_angle_beta     90.00012129613526
_cell_angle_gamma    89.30713862790576

_space_group_name_H-M_alt    "P 1"
_space_group_IT_number       1

loop_
  _space_group_symop_operation_xyz
  'x, y, z'

loop_
  _atom_site_type_symbol
  _atom_site_label
  _atom_site_symmetry_multiplicity
  _atom_site_fract_x
  _atom_site_fract_y
  _atom_site_fract_z
  _atom_site_occupancy
  Zn  Zn1       1.0  0.7434678996808657  0.9439160098435767  0.9815418668728175  1.0000
  Zn  Zn2       1.0  0.2565309983021109  0.5560861917900226  0.48154213099195453  1.0000
  Zn  Zn3       1.0  0.2565399711893335  0.05609136406420841  0.018457853934336306  1.0000
  Zn  Zn4       1.0  0.7434604531189138  0.4439048962928497  0.5184575897928527  1.0000
  H   H1        1.0  0.029746242274015303  0.6704699136758379  0.9577482757248109  1.0000
  H   H2        1.0  0.9702606868511481  0.8295295805801786  0.45774758562804174  1.0000
  H   H3        1.0  0.9702616292454566  0.3295398073828224  0.04225095456643401  1.0000
  H   H4        1.0  0.029743895179194596  0.1704566977904491  0.5422516446370127  1.0000
  H   H5        1.0  0.9324183709192794  0.5380028742417412  0.7562694227659111  1.0000
  H   H6        1.0  0.0675805042367017  0.9619918910548791  0.2562675061194498  1.0000
  H   H7        1.0  0.0675829314134901  0.46199516879007524  0.24373667476893254  1.0000
  H   H8        1.0  0.9324191582183232  0.038012034260013615  0.7437341767553254  1.0000
  H   H9        1.0  0.5558085981924208  0.9083066877963688  0.8483204000381267  1.0000
  H   H10       1.0  0.4441876728815046  0.5916868737611551  0.3483208510628019  1.0000
  H   H11       1.0  0.4441943491760583  0.0917042500999585  0.15167637766079886  1.0000
  H   H12       1.0  0.5558004942409339  0.4082995488347337  0.6516739645316678  1.0000
  H   H13       1.0  0.16137499802730562  0.40139050645287017  0.9127184325630612  1.0000
  H   H14       1.0  0.8386217721327116  0.09861527959994731  0.4127171682329733  1.0000
  H   H15       1.0  0.8386246660644688  0.5986192867614835  0.08728570291020084  1.0000
  H   H16       1.0  0.1613729632595593  0.9013793003900191  0.5872869672224683  1.0000
  H   H17       1.0  0.34234233960388144  0.5119025789542563  0.8638556107142182  1.0000
  H   H18       1.0  0.6576704626697278  0.9880968943297291  0.3638550780848108  1.0000
  H   H19       1.0  0.6576737374316863  0.48810002855548607  0.13614999631144545  1.0000
  H   H20       1.0  0.3423193495626506  0.011902423252422505  0.6361505289295908  1.0000
  H   H21       1.0  0.16620774782066416  0.3736533741092033  0.8261232606251672  1.0000
  H   H22       1.0  0.8337965895514046  0.12634777060478802  0.32612352468943595  1.0000
  H   H23       1.0  0.8338050452490933  0.6263457415023553  0.17387940328516296  1.0000
  H   H24       1.0  0.16618501522974333  0.8736516190944529  0.6738806107673273  1.0000
  H   H25       1.0  0.4726810041992593  0.6646607609389508  0.7250935437411602  1.0000
  H   H26       1.0  0.5273143594668069  0.8353395236280861  0.22509358684820321  1.0000
  H   H27       1.0  0.5273088083315046  0.3353397301755834  0.2749047054979742  1.0000
  H   H28       1.0  0.47268858529734814  0.16466202565287355  0.7749031908406256  1.0000
  H   H29       1.0  0.7086202992725603  0.7453890519407552  0.6879737173430842  1.0000
  H   H30       1.0  0.29137643087714343  0.7546072480198946  0.18797295755331336  1.0000
  H   H31       1.0  0.2913826438711311  0.25460662946747453  0.3120250224131739  1.0000
  H   H32       1.0  0.7086133836159192  0.24540028457101223  0.8120277442855799  1.0000
  H   H33       1.0  0.5199156807303638  0.8683406183683858  0.7311786579407171  1.0000
  H   H34       1.0  0.4800813677042868  0.631653857543583  0.2311748013916742  1.0000
  H   H35       1.0  0.4800905460445435  0.13165738134625826  0.26882057233743245  1.0000
  H   H36       1.0  0.5199018791881328  0.36834786483678533  0.768821485773117  1.0000
  C   C1        1.0  0.9486297123153378  0.6837314476415416  0.9103173894121003  1.0000
  C   C2        1.0  0.0513686598741998  0.8162698916082577  0.41031760227133435  1.0000
  C   C3        1.0  0.0513765183678601  0.3162806349991244  0.08968233139963644  1.0000
  C   C4        1.0  0.9486326395069753  0.1837175891956306  0.5896826090309235  1.0000
  C   C5        1.0  0.0038689635900226002  0.5861414608563535  0.8576328742481754  1.0000
  C   C6        1.0  0.9961421522391518  0.9138614722480656  0.3576338523709597  1.0000
  C   C7        1.0  0.9961421886307987  0.41386001631642705  0.14236684655359266  1.0000
  C   C8        1.0  0.0038607918938354004  0.0861377299117194  0.6423683210181327  1.0000
  C   C9        1.0  0.8907330924810137  0.6100352813413893  0.798854336484354  1.0000
  C   C10       1.0  0.10926609770491778  0.8899623467397859  0.2988547419405877  1.0000
  C   C11       1.0  0.1092714947597884  0.3899697742629513  0.20114538431934656  1.0000
  C   C12       1.0  0.8907269991153868  0.11004280984688113  0.7011459598967067  1.0000
  C   C13       1.0  0.7272709828536251  0.7263710614423218  0.793474407410628  1.0000
  C   C14       1.0  0.2727232441179268  0.7736300654923981  0.2934726965478732  1.0000
  C   C15       1.0  0.27272867926861005  0.27363169028377143  0.20652531338913607  1.0000
  C   C16       1.0  0.7272780591625008  0.22637149822266883  0.7065255526957944  1.0000
  C   C17       1.0  0.6825080783843875  0.8166093442810193  0.849060040418607  1.0000
  C   C18       1.0  0.31748327400641324  0.6833854430823367  0.3490601237643889  1.0000
  C   C19       1.0  0.31749322555074144  0.18339456659382591  0.15093918986445945  1.0000
  C   C20       1.0  0.6825114616824308  0.31661031043703514  0.6509361633973614  1.0000
  C   C21       1.0  0.17715633435763323  0.46127309785769904  0.8653035181219128  1.0000
  C   C22       1.0  0.8228482916008915  0.03872617409742671  0.3653040777356937  1.0000
  C   C23       1.0  0.8228515355504271  0.5387307553430818  0.13470012682893895  1.0000
  C   C24       1.0  0.17714480328245943  0.9612719410544417  0.6347010387599428  1.0000
  C   C25       1.0  0.6014199445410142  0.7530360393883129  0.7311903302838804  1.0000
  C   C26       1.0  0.39857053803658  0.7469584943877765  0.23119010756057187  1.0000
  C   C27       1.0  0.3985747921298782  0.24696323487073357  0.2688074284369578  1.0000
  C   C28       1.0  0.6014192754689986  0.25304551745455234  0.7688076511639114  1.0000
  N   N1        1.0  0.945630590345857  0.9136005668012075  0.05854905070248153  1.0000
  N   N2        1.0  0.05437339246866911  0.5863964411286774  0.5585500648939858  1.0000
  N   N3        1.0  0.05437892037674889  0.0864009247819268  0.9414482175066471  1.0000
  N   N4        1.0  0.9456213429018734  0.4135981388256483  0.44144818434023875  1.0000
  N   N5        1.0  0.8768964971336218  0.9430057457299693  0.11293333157065893  1.0000
  N   N6        1.0  0.12311281000702932  0.5569860095403741  0.6129372659950436  1.0000
  N   N7        1.0  0.12311301260150033  0.0569922251045796  0.8870609935240741  1.0000
  N   N8        1.0  0.8768901328129317  0.44300849829390654  0.38706196427838807  1.0000
  N   N9        1.0  0.816735615702122  0.9713239495429851  0.16583134293009044  1.0000
  N   N10       1.0  0.18326751564539734  0.5286673303145975  0.665831327631061  1.0000
  N   N11       1.0  0.18326732841818938  0.028675252596009712  0.8341673968299549  1.0000
  N   N12       1.0  0.816733785363482  0.4713260183739012  0.33416888367750647  1.0000
  N   N13       1.0  0.5551099594314266  0.13962705830271463  0.9753486414963608  1.0000
  N   N14       1.0  0.44489055475462186  0.36037476291841136  0.4753477089881956  1.0000
  N   N15       1.0  0.44490119604841283  0.8603861546452194  0.02465206035491011  1.0000
  N   N16       1.0  0.5551025368570279  0.6396116164375201  0.5246529928288981  1.0000
  N   N17       1.0  0.6167010556272815  0.27222953955801904  0.9648566129276619  1.0000
  N   N18       1.0  0.3832944537078049  0.22776163571031563  0.46485584940366936  1.0000
  N   N19       1.0  0.3833084577123245  0.7277813406612665  0.035144088920610314  1.0000
  N   N20       1.0  0.6166969957654089  0.7722224109199377  0.5351453429288713  1.0000
  N   N21       1.0  0.673971785773695  0.39906663847092716  0.9548330219922652  1.0000
  N   N22       1.0  0.32603186189845706  0.1009419469669979  0.45483342346802413  1.0000
  N   N23       1.0  0.3260393697061446  0.600946574477007  0.045167679859005716  1.0000
  N   N24       1.0  0.6739612310189785  0.8990491267025575  0.545168259390991  1.0000
  N   N25       1.0  0.7918160448643689  0.795558594203108  0.9060318040705017  1.0000
  N   N26       1.0  0.2081855770418244  0.7044367964270111  0.4060328495073124  1.0000
  N   N27       1.0  0.2081967507897957  0.2044499099911548  0.09396546414713924  1.0000
  N   N28       1.0  0.7918058753503985  0.2955578123777159  0.5939653997259742  1.0000
