data_image0
_chemical_formula_structural       Zn8H88C100N36O8
_chemical_formula_sum              "Zn8 H88 C100 N36 O8"
_cell_length_a       15.311953226219021
_cell_length_b       14.685478559374996
_cell_length_c       23.610151988206688
_cell_angle_alpha    87.33264278096912
_cell_angle_beta     86.10162422850007
_cell_angle_gamma    76.81865958659843

_space_group_name_H-M_alt    "P 1"
_space_group_IT_number       1

loop_
  _space_group_symop_operation_xyz
  'x, y, z'

loop_
  _atom_site_type_symbol
  _atom_site_label
  _atom_site_symmetry_multiplicity
  _atom_site_fract_x
  _atom_site_fract_y
  _atom_site_fract_z
  _atom_site_occupancy
  Zn  Zn1       1.0  0.0813385046572463  0.07515731125884169  0.5805216954342285  1.0000
  Zn  Zn2       1.0  0.9354388776422128  0.9514675348188317  0.5841002230246416  1.0000
  Zn  Zn3       1.0  0.557571564126576  0.574952691558245  0.07048767468852898  1.0000
  Zn  Zn4       1.0  0.4260438916053674  0.42548982816036574  0.0664811969404724  1.0000
  Zn  Zn5       1.0  0.8925932033248859  0.9975329869050212  0.44256431078664343  1.0000
  Zn  Zn6       1.0  0.06427222218813711  0.06963882330516209  0.43545262696992637  1.0000
  Zn  Zn7       1.0  0.4345406677911187  0.43817943192063774  0.9294667518091941  1.0000
  Zn  Zn8       1.0  0.579216568319417  0.5708860160390683  0.9329670120378848  1.0000
  H   H1        1.0  0.7782041670176908  0.10052773970232917  0.34160954316260467  1.0000
  H   H2        1.0  0.1881562280874506  0.8644261489943472  0.4615184353016629  1.0000
  H   H3        1.0  0.3553821779464173  0.5048304431308279  0.803904073701851  1.0000
  H   H4        1.0  0.7643961084503348  0.41790562931046776  0.9334109328842429  1.0000
  H   H5        1.0  0.7364369636980542  0.9246488869626501  0.6233638532504812  1.0000
  H   H6        1.0  0.29301304338657275  0.07797573087402296  0.5817273055266696  1.0000
  H   H7        1.0  0.22323861689376662  0.5550702765337902  0.08939041948251258  1.0000
  H   H8        1.0  0.7498777638541371  0.6478119733657407  0.0939008487429618  1.0000
  H   H9        1.0  0.954157554115504  0.2754011625181008  0.41575383885215433  1.0000
  H   H10       1.0  0.8968268330166181  0.7781165881288883  0.40628660860329546  1.0000
  H   H11       1.0  0.43150948683134516  0.7608152014182321  0.9026172609239749  1.0000
  H   H12       1.0  0.3687915754445612  0.24308118277250654  0.9023617975607579  1.0000
  H   H13       1.0  0.6901292946689283  0.02580624137147681  0.45075387523323224  1.0000
  H   H14       1.0  0.27697244954038075  0.9854944466325716  0.412307563701951  1.0000
  H   H15       1.0  0.2495849091601131  0.5923633182317616  0.9063906439596819  1.0000
  H   H16       1.0  0.7778151871137456  0.6212415666903082  0.9113950026862554  1.0000
  H   H17       1.0  0.9775915801659356  0.2836401261929352  0.5970814756101532  1.0000
  H   H18       1.0  0.004194410138040969  0.7337883898562507  0.5727555244445526  1.0000
  H   H19       1.0  0.39802154154658353  0.7573714602320436  0.08645328709494748  1.0000
  H   H20       1.0  0.36026721363903397  0.22087338576142196  0.08586104273074817  1.0000
  H   H21       1.0  0.028355538175766516  0.18409755166266714  0.29710541727809664  1.0000
  H   H22       1.0  0.06567139409263226  0.8077978078255514  0.31077849025440674  1.0000
  H   H23       1.0  0.554489364234229  0.6719545714520052  0.8025557201844861  1.0000
  H   H24       1.0  0.5822696358471833  0.23636986622808814  0.9116091881589907  1.0000
  H   H25       1.0  0.7983240287997689  0.06693237996168479  0.6719297714125999  1.0000
  H   H26       1.0  0.25408398570935736  0.9011530865792847  0.5701278017208011  1.0000
  H   H27       1.0  0.3237441377484984  0.4580131195785667  0.1953080543762056  1.0000
  H   H28       1.0  0.7427717856398888  0.4373077890571934  0.09121311926865158  1.0000
  H   H29       1.0  0.8248584330518515  0.6088062988346222  0.5543863006988445  1.0000
  H   H30       1.0  0.07488130500092188  0.4308051415395084  0.4358058431413453  1.0000
  H   H31       1.0  0.20456358328665664  0.07834438757066658  0.9711860346001798  1.0000
  H   H32       1.0  0.5119296129469362  0.9184155064559077  0.013207600350383996  1.0000
  H   H33       1.0  0.8076109106563011  0.4957962234644881  0.463119635140707  1.0000
  H   H34       1.0  0.9335562628394956  0.5752589933553905  0.39580192317512797  1.0000
  H   H35       1.0  0.3247034419059673  0.9529931631071944  0.8988046662030057  1.0000
  H   H36       1.0  0.4632847871216441  0.0456555017822353  0.9192512033800069  1.0000
  H   H37       1.0  0.0921439646835084  0.5439775733573953  0.5267747306735798  1.0000
  H   H38       1.0  0.9657543309159352  0.46430091912937843  0.594611843006433  1.0000
  H   H39       1.0  0.39112479690088975  0.04519844577103529  0.08585728627701168  1.0000
  H   H40       1.0  0.2525208460540895  0.9534777593355058  0.06502505806353298  1.0000
  H   H41       1.0  0.3835100849406248  0.7513159322167199  0.6023740331673652  1.0000
  H   H42       1.0  0.8976993852467104  0.026836753733888895  0.8348044077057181  1.0000
  H   H43       1.0  0.8746115129056663  0.2971417622399457  0.1168123281282192  1.0000
  H   H44       1.0  0.2669919937269327  0.5119118042331791  0.29780577602397773  1.0000
  H   H45       1.0  0.24092203233309556  0.6811564069666503  0.6796700032872565  1.0000
  H   H46       1.0  0.7941973105935675  0.20521786561018016  0.7746726258869641  1.0000
  H   H47       1.0  0.7363705753634449  0.17893074585522578  0.15101611490448616  1.0000
  H   H48       1.0  0.3397616906937487  0.6900884117148534  0.2757375315581712  1.0000
  H   H49       1.0  0.5427772474810056  0.9611385968364272  0.5702511514350518  1.0000
  H   H50       1.0  0.4605590879532215  0.034425173159199594  0.49999790683622775  1.0000
  H   H51       1.0  0.06144817487064101  0.5729522382664031  0.024469641278081197  1.0000
  H   H52       1.0  0.9241088163923409  0.6433930840494709  0.0449271601285446  1.0000
  H   H53       1.0  0.116443418849947  0.14534843244405948  0.712476821749206  1.0000
  H   H54       1.0  0.029118933095091424  0.21465493248028614  0.7565521983165268  1.0000
  H   H55       1.0  0.07509211546287282  0.09694992970789679  0.7764105279134624  1.0000
  H   H56       1.0  0.9834117560343004  0.7713672443133176  0.6804726719918293  1.0000
  H   H57       1.0  0.06725098110355535  0.6716392479213055  0.6586658400576012  1.0000
  H   H58       1.0  0.08272149002581851  0.7342352013740906  0.7181359755194378  1.0000
  H   H59       1.0  0.5290258454956955  0.7127724754480695  0.16298568730362462  1.0000
  H   H60       1.0  0.44750610427018245  0.7461513491833143  0.22005798852708117  1.0000
  H   H61       1.0  0.5479081513090593  0.6623277905472731  0.2323637368105906  1.0000
  H   H62       1.0  0.525976057272871  0.20088782941846967  0.11781420836327779  1.0000
  H   H63       1.0  0.5497300446608124  0.19249823338974892  0.043483270771389484  1.0000
  H   H64       1.0  0.6338474007833028  0.14116882352015375  0.09099892562277738  1.0000
  H   H65       1.0  0.003366694578488714  0.11733020708417999  0.1379625669325222  1.0000
  H   H66       1.0  0.031999645787181015  0.2069333243763793  0.1754817418633721  1.0000
  H   H67       1.0  0.017076146515357507  0.10279073574521648  0.21251952901850757  1.0000
  H   H68       1.0  0.13115482946074764  0.5381954384584445  0.3610475356972955  1.0000
  H   H69       1.0  0.07900974850245754  0.6521255999161183  0.38587677400016657  1.0000
  H   H70       1.0  0.08576192681032073  0.6281538744179611  0.3120556292929777  1.0000
  H   H71       1.0  0.47668996082624204  0.5365626964027185  0.6268849641311717  1.0000
  H   H72       1.0  0.5384454399506212  0.6246461086530317  0.6254512477218482  1.0000
  H   H73       1.0  0.5371613829452642  0.5496367640079639  0.6870457115510219  1.0000
  H   H74       1.0  0.768558526954095  0.00477543166201849  0.9099875709756303  1.0000
  H   H75       1.0  0.6992970410301284  0.10339121771343678  0.9449133410380383  1.0000
  H   H76       1.0  0.6759194300164851  0.073557149127808  0.8758764599384533  1.0000
  H   H77       1.0  0.6251466309193957  0.749291310569909  0.4587488203278268  1.0000
  H   H78       1.0  0.6233903044127872  0.8458050281433953  0.4113199017016668  1.0000
  H   H79       1.0  0.704611127963297  0.8195398300478087  0.4642430386911939  1.0000
  H   H80       1.0  0.46374761032038964  0.7493086607184478  0.5125945022944762  1.0000
  H   H81       1.0  0.3623187914007033  0.822647067647047  0.4885334103611995  1.0000
  H   H82       1.0  0.45356980092588367  0.7803810448423507  0.4398496098134998  1.0000
  H   H83       1.0  0.04281784146915167  0.8193079072724174  0.9254036132743408  1.0000
  H   H84       1.0  0.1518096297225427  0.7487847894233183  0.935803155051289  1.0000
  H   H85       1.0  0.09022816693556023  0.7279196199910062  0.8787794938941219  1.0000
  H   H86       1.0  0.9332497456330775  0.7796069035356864  0.885124792390968  1.0000
  H   H87       1.0  0.918341644127672  0.6668979709255394  0.8724507958713301  1.0000
  H   H88       1.0  0.8320223154455989  0.7478223408081418  0.9099392172429789  1.0000
  C   C1        1.0  0.987476710534118  0.11374065139740709  0.70762706431735  1.0000
  C   C2        1.0  0.10053679020914072  0.8050728847323398  0.6382406987590911  1.0000
  C   C3        1.0  0.45237173270047765  0.6103945364852308  0.18789008361977716  1.0000
  C   C4        1.0  0.6114911334576976  0.2898311458202585  0.08182033196067098  1.0000
  C   C5        1.0  0.8450907240802793  0.11418760988049569  0.33955306612509156  1.0000
  C   C6        1.0  0.14765495099184292  0.8640424039949436  0.42560304866925236  1.0000
  C   C7        1.0  0.4107368719595712  0.5364925511218954  0.8118561039933708  1.0000
  C   C8        1.0  0.7082437937025291  0.3847648696715494  0.9312962780958712  1.0000
  C   C9        1.0  0.739340401432955  0.9537042184350994  0.5802533061841898  1.0000
  C   C10       1.0  0.2731528883345575  0.0632848601147913  0.5403746612432555  1.0000
  C   C11       1.0  0.244998631522229  0.5569250230074586  0.04463119364127271  1.0000
  C   C12       1.0  0.7422051851877715  0.639240895281574  0.04914118467257819  1.0000
  C   C13       1.0  0.9638649143448746  0.26141235526242207  0.46070921742463605  1.0000
  C   C14       1.0  0.9204608584558476  0.7830958823757611  0.4481088028306602  1.0000
  C   C15       1.0  0.4318762981306962  0.7447535421882064  0.9480034801883688  1.0000
  C   C16       1.0  0.36906895789521604  0.2526908358913929  0.9477206128690909  1.0000
  C   C17       1.0  0.7169824057082935  0.004561792775120896  0.49203670977384917  1.0000
  C   C18       1.0  0.2647907509350631  0.014862001883344094  0.45428973892699537  1.0000
  C   C19       1.0  0.2584865139546864  0.5773838143454668  0.9514115850906676  1.0000
  C   C20       1.0  0.7565560134838382  0.6272119580025829  0.9561061427421721  1.0000
  C   C21       1.0  0.9756259670308796  0.2653785068864423  0.5531674302951258  1.0000
  C   C22       1.0  0.9758220705827514  0.7611133426444495  0.5329434984591258  1.0000
  C   C23       1.0  0.41451194092411475  0.7429382997639989  0.0417923560992648  1.0000
  C   C24       1.0  0.3642977762756773  0.24185198773184163  0.04121002063034499  1.0000
  C   C25       1.0  0.9734738834912237  0.15571742787873427  0.31639747138912355  1.0000
  C   C26       1.0  0.08367613488648841  0.8363902925485219  0.34886218168609406  1.0000
  C   C27       1.0  0.5120068071183966  0.6223348392036314  0.8112460147799324  1.0000
  C   C28       1.0  0.6151813458580193  0.292114761723326  0.9198364063924201  1.0000
  C   C29       1.0  0.8646468044560295  0.07883070392352919  0.6775423452275929  1.0000
  C   C30       1.0  0.19647014232094054  0.8772399805021961  0.5893371884505356  1.0000
  C   C31       1.0  0.37143808156977803  0.5024706101860231  0.1876077205564499  1.0000
  C   C32       1.0  0.6929683293023247  0.3970454762576097  0.0851671178793794  1.0000
  C   C33       1.0  0.8980440919102294  0.1101943191086434  0.725009053458656  1.0000
  C   C34       1.0  0.19320887145462262  0.7959479541519554  0.6226765898935794  1.0000
  C   C35       1.0  0.38376788387432015  0.5767027273943909  0.21963139419082714  1.0000
  C   C36       1.0  0.6964375952955137  0.30134741282952143  0.0965824465347467  1.0000
  C   C37       1.0  0.889175054588556  0.15627731698499048  0.2951674203633771  1.0000
  C   C38       1.0  0.15520742508363142  0.7969820462193125  0.3841729960592843  1.0000
  C   C39       1.0  0.44114452323490394  0.6079294571299979  0.7805958041349043  1.0000
  C   C40       1.0  0.7074869078927719  0.29362595793546115  0.9153212257181946  1.0000
  C   C41       1.0  0.6795426503661519  0.958035020998359  0.5373879624714134  1.0000
  C   C42       1.0  0.32616348723634303  0.015056129549435594  0.4956684699160121  1.0000
  C   C43       1.0  0.19364343007494986  0.5912153839080216  0.9975021346917784  1.0000
  C   C44       1.0  0.8035487080992002  0.6451489170529  0.0023187458186341957  1.0000
  C   C45       1.0  0.9577233121386898  0.32416356860696277  0.5046381250986726  1.0000
  C   C46       1.0  0.9507211806086889  0.7127175717928436  0.4890754789543976  1.0000
  C   C47       1.0  0.3934260454476261  0.8015932213794909  0.9935532508170439  1.0000
  C   C48       1.0  0.35524888202924393  0.19198932450987627  0.9935062388807195  1.0000
  C   C49       1.0  0.8709693098473681  0.5066296353749279  0.4773350358764644  1.0000
  C   C50       1.0  0.9406840690447923  0.5505234921562945  0.44011631263800405  1.0000
  C   C51       1.0  0.34019898872438137  0.9733888308668454  0.9403576858711771  1.0000
  C   C52       1.0  0.4169478555733903  0.023628684653644393  0.9516733210352512  1.0000
  C   C53       1.0  0.88044957498461  0.5677021469291643  0.5281815803479688  1.0000
  C   C54       1.0  0.01918812330976043  0.4715477146167827  0.4621063506594254  1.0000
  C   C55       1.0  0.2731801642492684  0.0424074773333203  0.9805981863363511  1.0000
  C   C56       1.0  0.4439176793368704  0.9565356157319439  0.003927571373182597  1.0000
  C   C57       1.0  0.950585654511976  0.6127676463046683  0.49071181002630476  1.0000
  C   C58       1.0  0.9498057898616851  0.4259988397373958  0.49976721271030294  1.0000
  C   C59       1.0  0.3509378657437381  0.09345872887027439  0.992325686741246  1.0000
  C   C60       1.0  0.36741754553909806  0.9042216833074902  0.9924145742749602  1.0000
  C   C61       1.0  0.028757045914105175  0.5323714785913579  0.5129920122481337  1.0000
  C   C62       1.0  0.9588899723548111  0.4888785336710694  0.5502587687416068  1.0000
  C   C63       1.0  0.37667784970641804  0.0240445090967114  0.044228760367864994  1.0000
  C   C64       1.0  0.30001185806493424  0.9736953706331517  0.03275045512280881  1.0000
  C   C65       1.0  0.35421919526138634  0.7147879772503528  0.6375676997785504  1.0000
  C   C66       1.0  0.8524135588660967  0.09560717903188018  0.8292167382839037  1.0000
  C   C67       1.0  0.8435924740213708  0.24633417617350514  0.141375823351062  1.0000
  C   C68       1.0  0.2756639900997229  0.582492904023077  0.30458177208922166  1.0000
  C   C69       1.0  0.2640584849827691  0.7264496755286414  0.6466562728916471  1.0000
  C   C70       1.0  0.8460285124275445  0.14021136780675647  0.7778628229204684  1.0000
  C   C71       1.0  0.7610216109882019  0.23646020996423536  0.1293001625554737  1.0000
  C   C72       1.0  0.3335701374004076  0.6186708155151946  0.26905541821963647  1.0000
  C   C73       1.0  0.893336566174469  0.19771185236682237  0.18892691087101807  1.0000
  C   C74       1.0  0.212336376699554  0.6378524617587898  0.3450444036306094  1.0000
  C   C75       1.0  0.4150409018427795  0.65629035610047  0.6766660522537365  1.0000
  C   C76       1.0  0.7908192456580992  0.13594041750269525  0.8766900765578782  1.0000
  C   C77       1.0  0.8526854234610823  0.19649563015264696  0.24184436556017624  1.0000
  C   C78       1.0  0.22547734011770615  0.715027408587744  0.37097547556000166  1.0000
  C   C79       1.0  0.3976221511265834  0.6644180625994166  0.7334528112845715  1.0000
  C   C80       1.0  0.7824209890351669  0.22718171275660373  0.8891970831011732  1.0000
  C   C81       1.0  0.569542461651999  0.8814402241579911  0.49691887494077497  1.0000
  C   C82       1.0  0.4723479581292837  0.8914067618204625  0.49183963184291457  1.0000
  C   C83       1.0  0.043468375746130175  0.6818432411920693  0.962464764732239  1.0000
  C   C84       1.0  0.9457892139491477  0.6869270498095261  0.9597578867969644  1.0000
  C   C85       1.0  0.5941490015243218  0.9310177512368867  0.5377316652704421  1.0000
  C   C86       1.0  0.4231418410830161  0.9804716525966979  0.4951207666186476  1.0000
  C   C87       1.0  0.09554125857691534  0.6171844871591005  0.9965272658721812  1.0000
  C   C88       1.0  0.8943175707390053  0.6593120110877276  0.003784429488987903  1.0000
  C   C89       1.0  0.05563214512073962  0.14450962221964397  0.7397685253082783  1.0000
  C   C90       1.0  0.05608371411601348  0.7421891283764595  0.6756041968981136  1.0000
  C   C91       1.0  0.49640358055021505  0.6868065090804617  0.20138325516089134  1.0000
  C   C92       1.0  0.5784168562395707  0.20174070384874193  0.0836426273450002  1.0000
  C   C93       1.0  0.9916565784954232  0.15334257728996184  0.1784613867169469  1.0000
  C   C94       1.0  0.12156436840622581  0.6138937497507514  0.3515675097264932  1.0000
  C   C95       1.0  0.49634880271415954  0.587503143694576  0.6532915101310549  1.0000
  C   C96       1.0  0.7299393127390702  0.07719715012013488  0.9037318336067128  1.0000
  C   C97       1.0  0.634633954887306  0.8215779312820359  0.45565287157131706  1.0000
  C   C98       1.0  0.43588817607076896  0.8070337754306819  0.4828727494409008  1.0000
  C   C99       1.0  0.08431815797812452  0.7475130988667543  0.9235906130712974  1.0000
  C   C100      1.0  0.9050623210447527  0.7221351239604131  0.9040938728657224  1.0000
  N   N1        1.0  0.004269885618448706  0.08506782434800897  0.653576428199699  1.0000
  N   N2        1.0  0.054186616946772424  0.8856326597492129  0.6157504705047144  1.0000
  N   N3        1.0  0.4778351724940252  0.559354046295091  0.14133645465485498  1.0000
  N   N4        1.0  0.5617720543663225  0.3736845674250446  0.06439850562016149  1.0000
  N   N5        1.0  0.8997232270325171  0.09059691351151855  0.38281846641324785  1.0000
  N   N6        1.0  0.07863535003435378  0.9370441824815143  0.4140014015813378  1.0000
  N   N7        1.0  0.459939097975294  0.5102822772489618  0.8572206979978034  1.0000
  N   N8        1.0  0.6238739792614254  0.4328218481917218  0.9426600795719365  1.0000
  N   N9        1.0  0.8081754017238156  0.9920073282053324  0.5610818370703398  1.0000
  N   N10       1.0  0.1865076274182655  0.08845453438170377  0.5272795533119917  1.0000
  N   N11       1.0  0.33216912286006567  0.5253935890559589  0.027556915051455598  1.0000
  N   N12       1.0  0.6658784867462586  0.6207475460618637  0.032138012554007396  1.0000
  N   N13       1.0  0.9860183389190169  0.1720848023023507  0.48178184770562626  1.0000
  N   N14       1.0  0.9258294572625799  0.866594539415999  0.46755151261940137  1.0000
  N   N15       1.0  0.474363695340152  0.6597487301295218  0.968229131413622  1.0000
  N   N16       1.0  0.38537450567628895  0.33176656418764583  0.9669571677195846  1.0000
  N   N17       1.0  0.7943910591531278  0.02476118112643629  0.5064147205777302  1.0000
  N   N18       1.0  0.18139728977196518  0.05902643982029329  0.47338123500350093  1.0000
  N   N19       1.0  0.34032904784455553  0.5368453498604779  0.9699972341878365  1.0000
  N   N20       1.0  0.675278374349503  0.6131082379693211  0.9740726796915026  1.0000
  N   N21       1.0  0.9931847640459001  0.17475990986114448  0.5387288447140078  1.0000
  N   N22       1.0  0.9599463899519167  0.8536060774839312  0.5197272692022139  1.0000
  N   N23       1.0  0.46379443273851  0.6586241254467211  0.02574654329811919  1.0000
  N   N24       1.0  0.3829330643338551  0.324958621461036  0.02520658239683369  1.0000
  N   N25       1.0  0.9789521947586195  0.11599284072532606  0.36860202305989986  1.0000
  N   N26       1.0  0.03849421343554845  0.9196291036895091  0.366317229204597  1.0000
  N   N27       1.0  0.5233267312987381  0.5633528097674868  0.8568682027475345  1.0000
  N   N28       1.0  0.5666010444684135  0.3760627126034207  0.9361159424620594  1.0000
  N   N29       1.0  0.9292933414856323  0.06259796814666879  0.6352709235917472  1.0000
  N   N30       1.0  0.11288736972933587  0.930602687196213  0.5855603877450477  1.0000
  N   N31       1.0  0.42708588264015657  0.492864163499071  0.1408296476189435  1.0000
  N   N32       1.0  0.6125502629249057  0.4388295354976107  0.06650146837201018  1.0000
  N   N33       1.0  0.7564798832616972  0.24698512246993684  0.2508261490040908  1.0000
  N   N34       1.0  0.318317441156843  0.7256452893965103  0.3761179734959938  1.0000
  N   N35       1.0  0.3228590084051107  0.741788996080842  0.7558654946796324  1.0000
  N   N36       1.0  0.8586506923304571  0.27048977384316697  0.8674545684626905  1.0000
  O   O1        1.0  0.7008609956436305  0.19800793550376733  0.2623598054861914  1.0000
  O   O2        1.0  0.7388837105321927  0.3333788266779861  0.24937083453788486  1.0000
  O   O3        1.0  0.33533308798107003  0.803518425954749  0.36278215998491686  1.0000
  O   O4        1.0  0.37419384583633813  0.6581831875764262  0.3954058992573124  1.0000
  O   O5        1.0  0.25914195975290977  0.7183037361759119  0.7836796539287434  1.0000
  O   O6        1.0  0.3318737160158207  0.8232558935832585  0.7489677961910813  1.0000
  O   O7        1.0  0.8411940404748323  0.3439926370522528  0.8380307380736979  1.0000
  O   O8        1.0  0.9347713057834357  0.2314956444006029  0.8819155462625404  1.0000
