data_image0
_chemical_formula_structural       Zn2H16C12N4Cl4O4
_chemical_formula_sum              "Zn2 H16 C12 N4 Cl4 O4"
_cell_length_a       4.878258995713988
_cell_length_b       9.973150353942565
_cell_length_c       10.378602096029342
_cell_angle_alpha    90.00006905086033
_cell_angle_beta     90.00024138734724
_cell_angle_gamma    102.33932076424776

_space_group_name_H-M_alt    "P 1"
_space_group_IT_number       1

loop_
  _space_group_symop_operation_xyz
  'x, y, z'

loop_
  _atom_site_type_symbol
  _atom_site_label
  _atom_site_symmetry_multiplicity
  _atom_site_fract_x
  _atom_site_fract_y
  _atom_site_fract_z
  _atom_site_occupancy
  Zn  Zn1       1.0  0.9687421842408881  0.06833828779189588  0.23724488948775496  1.0000
  Zn  Zn2       1.0  0.9687428338534971  0.5683354122635008  0.7627514038565195  1.0000
  H   H1        1.0  0.5334415206885835  0.371992277431019  0.05851054737406971  1.0000
  H   H2        1.0  0.5334394118671497  0.8719887886695475  0.9414900591321498  1.0000
  H   H3        1.0  0.5038045130608283  0.26394855274339335  0.19830577539131872  1.0000
  H   H4        1.0  0.5038032568819162  0.7639498746231013  0.8016927203353461  1.0000
  H   H5        1.0  0.8312141101455383  0.3740504086239298  0.1587247230908559  1.0000
  H   H6        1.0  0.831212799897635  0.8740507950919394  0.8412735814018503  1.0000
  H   H7        1.0  0.7073700037800349  0.4354067148527319  0.4169655805483785  1.0000
  H   H8        1.0  0.7073620069290883  0.9354065099493097  0.5830364054508337  1.0000
  H   H9        1.0  0.4700315863233796  0.6562282473593226  0.49073070792436363  1.0000
  H   H10       1.0  0.47002526085007185  0.1562266196354969  0.509268559809037  1.0000
  H   H11       1.0  0.304316827260557  0.5705503272742618  0.09386201879696901  1.0000
  H   H12       1.0  0.3043117320475445  0.07055269338030001  0.9061377868130975  1.0000
  H   H13       1.0  0.08677505959835939  0.7654760663999126  0.3673197470725711  1.0000
  H   H14       1.0  0.08677292162782625  0.2654767740426748  0.6326788930353829  1.0000
  H   H15       1.0  0.07339201379483741  0.7476513793234928  0.1971513344357092  1.0000
  H   H16       1.0  0.07339363047601918  0.24765247701825638  0.802848222164542  1.0000
  C   C1        1.0  0.6037296426544927  0.36356654529025423  0.1574622807333057  1.0000
  C   C2        1.0  0.6037278943602046  0.8635659082597725  0.8425374908349212  1.0000
  C   C3        1.0  0.5888553336809109  0.4971015714395504  0.36342938811130676  1.0000
  C   C4        1.0  0.5888449224822948  0.9970994379422963  0.6365714726771401  1.0000
  C   C5        1.0  0.47412268125285806  0.6051611629344933  0.3989620615328064  1.0000
  C   C6        1.0  0.47411067644470245  0.10515872319320611  0.6010381184972573  1.0000
  C   C7        1.0  0.38247279834394016  0.5628768580040387  0.19113434341331012  1.0000
  C   C8        1.0  0.38246832709106826  0.062877972954098  0.8088665706592054  1.0000
  C   C9        1.0  0.21449462081181286  0.7617510301330627  0.2807590802823086  1.0000
  C   C10       1.0  0.21449085014366176  0.2617509115052954  0.7192407704335011  1.0000
  C   C11       1.0  0.42772561620850524  0.8974852551490783  0.2670677369777152  1.0000
  C   C12       1.0  0.4277235814451643  0.3974841404523204  0.7329317274987446  1.0000
  N   N1        1.0  0.5286983698027043  0.4728504466751316  0.2341103576529378  1.0000
  N   N2        1.0  0.5286917546184  0.9728496357266536  0.7658922836171911  1.0000
  N   N3        1.0  0.3449476698574756  0.643867937923808  0.29054465849685585  1.0000
  N   N4        1.0  0.34493925160123956  0.14386677267933118  0.7094553121852343  1.0000
  Cl  Cl1       1.0  0.9368941195871158  0.13672061119241616  0.0332848673305222  1.0000
  Cl  Cl2       1.0  0.9369020173996248  0.6367253882132006  0.9667114427017083  1.0000
  Cl  Cl3       1.0  0.010698912781563817  0.23059824882529512  0.38904772153649253  1.0000
  Cl  Cl4       1.0  0.010696400041766191  0.7306052917781614  0.6109555459442078  1.0000
  O   O1        1.0  0.33916747743811737  0.0067178340276115  0.251773165681378  1.0000
  O   O2        1.0  0.3391688828865327  0.5067169779085176  0.7482256709272406  1.0000
  O   O3        1.0  0.6867417074307485  0.8934829520044617  0.27219681132232415  1.0000
  O   O4        1.0  0.6867412199749552  0.3934807979733463  0.7278021948550872  1.0000
