data_image0
_chemical_formula_structural       Hf6H72C90S20O32
_chemical_formula_sum              "Hf6 H72 C90 S20 O32"
_cell_length_a       11.471526410463921
_cell_length_b       20.38065495674499
_cell_length_c       33.58903656471049
_cell_angle_alpha    90.50960306967649
_cell_angle_beta     98.10674421245292
_cell_angle_gamma    90.2305664664196

_space_group_name_H-M_alt    "P 1"
_space_group_IT_number       1

loop_
  _space_group_symop_operation_xyz
  'x, y, z'

loop_
  _atom_site_type_symbol
  _atom_site_label
  _atom_site_symmetry_multiplicity
  _atom_site_fract_x
  _atom_site_fract_y
  _atom_site_fract_z
  _atom_site_occupancy
  Hf  Hf1       1.0  0.9867740220452034  0.08163692202872853  0.9549319338578215  1.0000
  Hf  Hf2       1.0  0.041572453691919996  0.8849474483565489  0.0384074316643037  1.0000
  Hf  Hf3       1.0  0.8416397344561799  0.9290536974843496  0.952406881903606  1.0000
  Hf  Hf4       1.0  0.18509114896179574  0.0372133147221732  0.03928078170140029  1.0000
  Hf  Hf5       1.0  0.8755036377852929  0.0295099027907924  0.041103159238673484  1.0000
  Hf  Hf6       1.0  0.15174048436972498  0.9369665518887729  0.9526628081327004  1.0000
  H   H1        1.0  0.0170209204916674  0.13928600934202964  0.032359604920515  1.0000
  H   H2        1.0  0.7904946646071805  0.9015676057099997  0.0314311388364956  1.0000
  H   H3        1.0  0.2798674774500682  0.9132618845771605  0.0302887731607413  1.0000
  H   H4        1.0  0.9677605558250945  0.9788267763185915  0.8937027437464309  1.0000
  H   H5        1.0  0.6397947745859298  0.9946830527670443  0.04151206542328372  1.0000
  H   H6        1.0  0.8037444347546482  0.8463193588766205  0.8855805108290156  1.0000
  H   H7        1.0  0.10982428688441098  0.8246160187754654  0.9049774256774086  1.0000
  H   H8        1.0  0.9270610737614362  0.07606785533174333  0.11823750357166321  1.0000
  H   H9        1.0  0.1872510133052074  0.14149387498535762  0.0946925257843105  1.0000
  H   H10       1.0  0.3998335923260398  0.07210915688605722  0.02642531244963209  1.0000
  H   H11       1.0  0.3641234743988235  0.9890109612578117  0.9922758033017729  1.0000
  H   H12       1.0  0.7973328469223231  0.994537603226981  0.11385533744945059  1.0000
  H   H13       1.0  0.8902340035996872  0.9155583461680408  0.0952605735133574  1.0000
  H   H14       1.0  0.04138135492104309  0.0981364528096407  0.8756853152052742  1.0000
  H   H15       1.0  0.18854561454237737  0.9610458019377361  0.8768653076151907  1.0000
  H   H16       1.0  0.0625949429641892  0.09658496152978562  0.0951885473366261  1.0000
  H   H17       1.0  0.9000845621209663  0.8357775638486229  0.0938748489296017  1.0000
  H   H18       1.0  0.6222438426330043  0.8903909322036231  0.9639645693304787  1.0000
  H   H19       1.0  0.6604425266864381  0.9821730156998072  0.9956259460401783  1.0000
  H   H20       1.0  0.3673886076572899  0.9809028515997655  0.9436991846041707  1.0000
  H   H21       1.0  0.9870011458303978  0.8663737206397573  0.8969056937192477  1.0000
  H   H22       1.0  0.14328113892454303  0.04953724934266291  0.8989579717196962  1.0000
  H   H23       1.0  0.30139740690278666  0.48687312033324304  0.9973634078115053  1.0000
  H   H24       1.0  0.7317315821649756  0.4786680342004533  0.9949701472317969  1.0000
  H   H25       1.0  0.744716214561727  0.09340598111251813  0.7139480621671267  1.0000
  H   H26       1.0  0.4932247483285366  0.08745583463931442  0.6062064343385032  1.0000
  H   H27       1.0  0.3735578705235695  0.08048265721628672  0.7218409948565281  1.0000
  H   H28       1.0  0.5682388091067239  0.9157220867191854  0.2837053547885234  1.0000
  H   H29       1.0  0.43959526359487455  0.9430497575322647  0.3967522577729667  1.0000
  H   H30       1.0  0.1943869947620911  0.9131963023047763  0.2889638927694733  1.0000
  H   H31       1.0  0.7542248987889549  0.0372299644596055  0.492591183402098  1.0000
  H   H32       1.0  0.182732635295153  0.9961502750965396  0.5080697649678996  1.0000
  H   H33       1.0  0.22092059323244934  0.027820627842118008  0.3118861338262279  1.0000
  H   H34       1.0  0.0825457055637884  0.8833987856962368  0.49682984420341814  1.0000
  H   H35       1.0  0.2682042040772146  0.8527752675613912  0.4064954844263298  1.0000
  H   H36       1.0  0.022411133857303898  0.05207692456852439  0.39856098918608746  1.0000
  H   H37       1.0  0.5813092405278866  0.8172615075089594  0.3538700196789648  1.0000
  H   H38       1.0  0.8756156728222635  0.11281720887088655  0.4361858910553664  1.0000
  H   H39       1.0  0.6118415703720501  0.04785596276746421  0.35375269008528687  1.0000
  H   H40       1.0  0.8424410806450948  0.8818988476322718  0.4376239278507512  1.0000
  H   H41       1.0  0.721779877279417  0.9852452485125768  0.6878256502417913  1.0000
  H   H42       1.0  0.8540491353984903  0.152828175831452  0.507769484650872  1.0000
  H   H43       1.0  0.660330599302732  0.170783663446656  0.5972750517090829  1.0000
  H   H44       1.0  0.919922370712271  0.9776637246515848  0.6010119109715858  1.0000
  H   H45       1.0  0.370338998894482  0.20143971468898064  0.6518481110851724  1.0000
  H   H46       1.0  0.045605171086030794  0.9190694337649322  0.5630091204426861  1.0000
  H   H47       1.0  0.30748638163907316  0.9723778552631261  0.649328218220532  1.0000
  H   H48       1.0  0.11013616052041188  0.14829088004548652  0.5645150211997886  1.0000
  H   H49       1.0  0.20834351511465599  0.17846366583445678  0.9170842521954725  1.0000
  H   H50       1.0  0.3978337667316011  0.4367484396140143  0.06449603329196658  1.0000
  H   H51       1.0  0.254905703478414  0.25779670909712854  0.0552538040948036  1.0000
  H   H52       1.0  0.3947668058148182  0.3437349080403038  0.9331814485696199  1.0000
  H   H53       1.0  0.6357073981028447  0.5547437398786246  0.07496759551827381  1.0000
  H   H54       1.0  0.8390590735821988  0.7593639074083784  0.9233189146183491  1.0000
  H   H55       1.0  0.6841414486217587  0.5888738704888398  0.9372087852455806  1.0000
  H   H56       1.0  0.7723048791641954  0.7270681400082211  0.059511430588678096  1.0000
  H   H57       1.0  0.342980467765635  0.8173936075705444  0.9356935969384494  1.0000
  H   H58       1.0  0.40132268646578945  0.555060676067754  0.07681932484423018  1.0000
  H   H59       1.0  0.20598067530457334  0.7002465122338678  0.0436972732526399  1.0000
  H   H60       1.0  0.47445814553650206  0.6406945166381348  0.9471846311075041  1.0000
  H   H61       1.0  0.7394917398712053  0.1623064563824386  0.0679828891248846  1.0000
  H   H62       1.0  0.6253221259465391  0.42924821148191245  0.9262549233076385  1.0000
  H   H63       1.0  0.7894832517612399  0.25614390272427556  0.9409427473839784  1.0000
  H   H64       1.0  0.5941386826047932  0.336227608657552  0.0535530121250929  1.0000
  H   H65       1.0  0.26221162378465823  0.8013254255289578  0.27369232218454437  1.0000
  H   H66       1.0  0.4078192975527628  0.015988944108087804  0.1155888295517897  1.0000
  H   H67       1.0  0.47759554308935037  0.9840791043771588  0.23140886264796018  1.0000
  H   H68       1.0  0.17399950891477534  0.8400359962149508  0.15715891187010558  1.0000
  H   H69       1.0  0.7822479723894274  0.17602864268895504  0.8893742166078269  1.0000
  H   H70       1.0  0.5114425730270682  0.9705986010799845  0.7234603374802973  1.0000
  H   H71       1.0  0.681148696750128  0.9619884674516542  0.8356637269842935  1.0000
  H   H72       1.0  0.6146911458170266  0.18362742860590942  0.7783974997865712  1.0000
  C   C1        1.0  0.8070641669766729  0.16974302584361572  0.9972752451503694  1.0000
  C   C2        1.0  0.199767229042088  0.1771746636152542  0.9945724976041745  1.0000
  C   C3        1.0  0.7712455245073288  0.049001776862482395  0.8868390494227114  1.0000
  C   C4        1.0  0.8463625793355616  0.7839717149522158  0.99747760323406  1.0000
  C   C5        1.0  0.21637535753944084  0.7946695143676407  0.9931534375303315  1.0000
  C   C6        1.0  0.24351790778257504  0.9270018835176189  0.1095176678023719  1.0000
  C   C7        1.0  0.45093804911044794  0.4241929904845492  0.9957816276458757  1.0000
  C   C8        1.0  0.5732520868401068  0.42159552925427585  0.9946822608860089  1.0000
  C   C9        1.0  0.6368014759208265  0.480424478162128  0.9952054570836354  1.0000
  C   C10       1.0  0.5826413734008328  0.5414345536212651  0.9973517049817601  1.0000
  C   C11       1.0  0.45973767769098123  0.5443266452306476  0.9982507858368734  1.0000
  C   C12       1.0  0.3963273514643078  0.48525937133457137  0.997336690424426  1.0000
  C   C13       1.0  0.5623368109783725  0.08843056603560484  0.722414950616205  1.0000
  C   C14       1.0  0.6540224098238667  0.09215713981633661  0.6990168496516843  1.0000
  C   C15       1.0  0.6304633609698697  0.09127463999327291  0.6569658962180611  1.0000
  C   C16       1.0  0.513075927614075  0.08973697447856921  0.6389064800106539  1.0000
  C   C17       1.0  0.42010002587974055  0.0860953500195762  0.6616981807881217  1.0000
  C   C18       1.0  0.4448853340452387  0.08515959183799283  0.7037333807380148  1.0000
  C   C19       1.0  0.3785773125391713  0.9115136882985625  0.2814860279058493  1.0000
  C   C20       1.0  0.49494086021095995  0.9182659174635148  0.3010825849889116  1.0000
  C   C21       1.0  0.5169933842572477  0.929855376061667  0.3425383561564246  1.0000
  C   C22       1.0  0.4223003122630544  0.9329860062895963  0.364526891208186  1.0000
  C   C23       1.0  0.3058990147632201  0.9273914390778797  0.34574534645441457  1.0000
  C   C24       1.0  0.28470642231083326  0.916549192511461  0.3041326429719078  1.0000
  C   C25       1.0  0.9171669323973999  0.0422477853143164  0.5331417779542704  1.0000
  C   C26       1.0  0.03890672672272898  0.02970428148637441  0.5374834952213732  1.0000
  C   C27       1.0  0.087983741087811  0.004489008502027002  0.5047106415022355  1.0000
  C   C28       1.0  0.0196062678504418  0.9907560963631641  0.46760050254061974  1.0000
  C   C29       1.0  0.8978486136479162  0.0029998033598844  0.4632998133678754  1.0000
  C   C30       1.0  0.8490071047955111  0.029033081981808095  0.49590991665677825  1.0000
  C   C31       1.0  0.2133969641217561  0.9377427054233752  0.3717816114714765  1.0000
  C   C32       1.0  0.21207152897513734  0.8960732204432204  0.404583022668497  1.0000
  C   C33       1.0  0.1444057124099913  0.9090580155524537  0.4352589393598763  1.0000
  C   C34       1.0  0.07799764998741669  0.9673682380016614  0.4335771685091814  1.0000
  C   C35       1.0  0.07418358624118329  0.007116309029925099  0.3997144493608644  1.0000
  C   C36       1.0  0.1397821818772726  0.9934280104093175  0.36853557666270836  1.0000
  C   C37       1.0  0.6337113878832241  0.9452967936725614  0.3661379233829365  1.0000
  C   C38       1.0  0.6646638011706328  0.011479361768167  0.3717601852798254  1.0000
  C   C39       1.0  0.7558942357644725  0.03212663852128372  0.4014254891077158  1.0000
  C   C40       1.0  0.8168767260543814  0.9846628327594403  0.42643543499742975  1.0000
  C   C41       1.0  0.7924901958131514  0.9181708045321598  0.4185770648715632  1.0000
  C   C42       1.0  0.701642172792809  0.8974739576088239  0.388759284406845  1.0000
  C   C43       1.0  0.7216776521492747  0.0851036774838647  0.6302029490693712  1.0000
  C   C44       1.0  0.7191737608851269  0.12868978535052378  0.5981167323725316  1.0000
  C   C45       1.0  0.7868674612113293  0.11937259654041552  0.5670183801941491  1.0000
  C   C46       1.0  0.8579802413849079  0.06294320357654472  0.5675804820616364  1.0000
  C   C47       1.0  0.8653834053738976  0.02144640381244761  0.6007332567545518  1.0000
  C   C48       1.0  0.7995487595934917  0.031194302504886202  0.6322994265368392  1.0000
  C   C49       1.0  0.30252684961200055  0.0756201695600396  0.6375048833637678  1.0000
  C   C50       1.0  0.2619053296241276  0.011134350617894003  0.6311666538295242  1.0000
  C   C51       1.0  0.1712116873779195  0.9946461065004614  0.600246528214555  1.0000
  C   C52       1.0  0.1194983814716934  0.044700356276187805  0.575060550350173  1.0000
  C   C53       1.0  0.153028768000631  0.10985789303852297  0.5836614525513825  1.0000
  C   C54       1.0  0.2441622109578745  0.12632792234791176  0.6144438553567824  1.0000
  C   C55       1.0  0.26333147547425984  0.24082966255055993  0.9927090923101574  1.0000
  C   C56       1.0  0.2843408965074162  0.27768173523899975  0.0283047099203699  1.0000
  C   C57       1.0  0.3415182925041194  0.33848982689175244  0.030268468701592607  1.0000
  C   C58       1.0  0.3818639164444946  0.36232635698210214  0.9952684845122235  1.0000
  C   C59       1.0  0.361455084219898  0.3251771720160619  0.9598303332660477  1.0000
  C   C60       1.0  0.30171098138609403  0.2647354222805021  0.9573510011146098  1.0000
  C   C61       1.0  0.6569777888760129  0.6014184100005054  0.9986534492338989  1.0000
  C   C62       1.0  0.7027778451472669  0.6199619778511832  0.9640123813209626  1.0000
  C   C63       1.0  0.7653421813229927  0.6787173060586441  0.9618223419666805  1.0000
  C   C64       1.0  0.7874650651176862  0.7184282353481278  0.9967986688848072  1.0000
  C   C65       1.0  0.7493122597616021  0.697413935676444  0.03233781248431461  1.0000
  C   C66       1.0  0.6829024885112743  0.6401224925115444  0.033815179380951604  1.0000
  C   C67       1.0  0.2823933196220167  0.7319613493487155  0.9926335237963712  1.0000
  C   C68       1.0  0.264582223416582  0.6860718916221417  0.022298659142130396  1.0000
  C   C69       1.0  0.3203941634876486  0.6254916126824527  0.025903950316717297  1.0000
  C   C70       1.0  0.39733744631325146  0.608083999405153  0.9979763941102533  1.0000
  C   C71       1.0  0.41553284751505254  0.6536919743376971  0.9687257599065475  1.0000
  C   C72       1.0  0.3625995190405716  0.7158097657513168  0.9655437444159674  1.0000
  C   C73       1.0  0.7456144025821484  0.2336833122021531  0.9989071164106916  1.0000
  C   C74       1.0  0.7449778990545538  0.2743555015212351  0.9653341536174338  1.0000
  C   C75       1.0  0.6896088661208424  0.33516758212194736  0.9621670646199688  1.0000
  C   C76       1.0  0.6345739279097558  0.357697644399309  0.9948039764434711  1.0000
  C   C77       1.0  0.6364704419819489  0.3180908770333276  0.028476349575555605  1.0000
  C   C78       1.0  0.6892920577577968  0.2559883559653073  0.0315813280496968  1.0000
  C   C79       1.0  0.3537631355109028  0.9069769182359978  0.2370277196076813  1.0000
  C   C80       1.0  0.4121561476037171  0.9511638668375468  0.21494541255656688  1.0000
  C   C81       1.0  0.3863259457437636  0.958086154984521  0.1731487274345227  1.0000
  C   C82       1.0  0.2945107077793025  0.9185369227465545  0.152467043283707  1.0000
  C   C83       1.0  0.24138207350814156  0.8711203199127625  0.1741233154436728  1.0000
  C   C84       1.0  0.26956667950025087  0.8637835221326927  0.2156397205245852  1.0000
  C   C85       1.0  0.7038025432106209  0.06490873358339401  0.8467465233654465  1.0000
  C   C86       1.0  0.6657588003114654  0.010419597785876502  0.8224686040805764  1.0000
  C   C87       1.0  0.6144131600775822  0.016764438885374502  0.7825515762131728  1.0000
  C   C88       1.0  0.5977123502749108  0.08042919378421233  0.7663643388797396  1.0000
  C   C89       1.0  0.6289218816644606  0.1347379860842324  0.7911381548620611  1.0000
  C   C90       1.0  0.6828775855965858  0.1288370889142954  0.8312105653650761  1.0000
  S   S1        1.0  0.14807486960663144  0.8497844774431657  0.47336108110673075  1.0000
  S   S2        1.0  0.1305293228656055  0.0512458577702191  0.3294489240486129  1.0000
  S   S3        1.0  0.7858498490018847  0.11709411183327488  0.4057065148743533  1.0000
  S   S4        1.0  0.6729906528591697  0.8125620298615606  0.3836683795235132  1.0000
  S   S5        1.0  0.7760345692223538  0.17989226795558722  0.5294747873048209  1.0000
  S   S6        1.0  0.8164860879493289  0.9703509735897883  0.66975183599844  1.0000
  S   S7        1.0  0.13116270915531913  0.9110224801567527  0.5945202996260122  1.0000
  S   S8        1.0  0.28468361210477156  0.20972807988584918  0.6203990676345227  1.0000
  S   S9        1.0  0.3675604666384942  0.37764605484975533  0.07780595682979198  1.0000
  S   S10       1.0  0.2921213478688784  0.22281994533235416  0.9110267232993721  1.0000
  S   S11       1.0  0.8159471848726766  0.6948715207813125  0.9157711479106041  1.0000
  S   S12       1.0  0.6337468193947872  0.6205586698861084  0.079839390001851  1.0000
  S   S13       1.0  0.2890885676910031  0.5745227722863148  0.06559698629896359  1.0000
  S   S14       1.0  0.4101191985037218  0.765327017070632  0.9283041840112602  1.0000
  S   S15       1.0  0.6889680868741904  0.3775077872990948  0.91650697185392  1.0000
  S   S16       1.0  0.6787293916598854  0.21605106831555082  0.0770214649536598  1.0000
  S   S17       1.0  0.4754921280995248  0.0148935732452813  0.1521465922380898  1.0000
  S   S18       1.0  0.19571225292671807  0.7998306435768399  0.2372283770107586  1.0000
  S   S19       1.0  0.5838884290161488  0.9437162309506493  0.7541095794177152  1.0000
  S   S20       1.0  0.7138937824376581  0.2030612977379534  0.8576263286138754  1.0000
  O   O1        1.0  0.09223888279910139  0.0923626601936007  0.9011329871625477  1.0000
  O   O2        1.0  0.8699274361039143  0.16111353476613743  0.9689339173023157  1.0000
  O   O3        1.0  0.8530240899860573  0.0900057045570222  0.9018834574146766  1.0000
  O   O4        1.0  0.23596381331516617  0.13972259198780534  0.0241030196609913  1.0000
  O   O5        1.0  0.7503535482697998  0.9949558656330739  0.9023805491980781  1.0000
  O   O6        1.0  0.1125085394646206  0.1652375809946278  0.9674569643644872  1.0000
  O   O7        1.0  0.7961721943476333  0.12677402518708902  0.0240535100521271  1.0000
  O   O8        1.0  0.874156775069167  0.021502431696475803  0.9786271927356295  1.0000
  O   O9        1.0  0.0178335499189046  0.09463722727451081  0.0221778409716222  1.0000
  O   O10       1.0  0.984371404030746  0.9816529579794067  0.9228009492904192  1.0000
  O   O11       1.0  0.1334331995254345  0.028445749789703698  0.9774787932037229  1.0000
  O   O12       1.0  0.3625635917212476  0.030105808779836707  0.03022484244091569  1.0000
  O   O13       1.0  0.6752446774613503  0.014417245704819903  0.019759328102871586  1.0000
  O   O14       1.0  0.03800621817558181  0.9827509504690186  0.0515029648246781  1.0000
  O   O15       1.0  0.8553994336390713  0.9236572484981592  0.021432746426107478  1.0000
  O   O16       1.0  0.011580650419837503  0.8992150770537326  0.9779027500713866  1.0000
  O   O17       1.0  0.20502123937861674  0.9324740702944043  0.0193348997590306  1.0000
  O   O18       1.0  0.6665708432090796  0.9302780236535714  0.9610050092052232  1.0000
  O   O19       1.0  0.8110987733693662  0.8220641184846542  0.9685279559640491  1.0000
  O   O20       1.0  0.9242540363139468  0.797771978569898  0.02765221898491889  1.0000
  O   O21       1.0  0.2068527083963119  0.9854044466975725  0.9019859082745681  1.0000
  O   O22       1.0  0.1557010896358051  0.8041993536423963  0.0216075661773587  1.0000
  O   O23       1.0  0.8627273601158478  0.8759152264916281  0.8993424824712122  1.0000
  O   O24       1.0  0.08040332494632452  0.8688202429673669  0.8994351484550691  1.0000
  O   O25       1.0  0.3481009510541496  0.9575323859490085  0.9672123373403423  1.0000
  O   O26       1.0  0.22319422017226023  0.8364157657240695  0.9648302174909134  1.0000
  O   O27       1.0  0.9473283697491225  0.8755931849305657  0.0945446958169285  1.0000
  O   O28       1.0  0.1582826932752255  0.09657982942034243  0.09345427535623678  1.0000
  O   O29       1.0  0.17826982271846956  0.8812894599032575  0.09187247050491008  1.0000
  O   O30       1.0  0.2647242231814815  0.9810472414924831  0.0928357560522812  1.0000
  O   O31       1.0  0.9425669822786135  0.0909680519228431  0.09213622756661982  1.0000
  O   O32       1.0  0.8125586303488389  0.9754871380151332  0.08854150620498301  1.0000
