data_image0
_chemical_formula_structural       Na4H32C40N8Cl4O16
_chemical_formula_sum              "Na4 H32 C40 N8 Cl4 O16"
_cell_length_a       5.101722956
_cell_length_b       12.499046621375596
_cell_length_c       18.1876700884497
_cell_angle_alpha    89.9989433257007
_cell_angle_beta     90.00035881707501
_cell_angle_gamma    89.99955581840668

_space_group_name_H-M_alt    "P 1"
_space_group_IT_number       1

loop_
  _space_group_symop_operation_xyz
  'x, y, z'

loop_
  _atom_site_type_symbol
  _atom_site_label
  _atom_site_symmetry_multiplicity
  _atom_site_fract_x
  _atom_site_fract_y
  _atom_site_fract_z
  _atom_site_occupancy
  Na  Na1       1.0  0.5342035601479722  0.8721572154037601  0.46598602022091035  1.0000
  Na  Na2       1.0  0.034180303163871904  0.12785542144608536  0.5340271708584794  1.0000
  Na  Na3       1.0  0.03420397183990791  0.6278371645338865  0.9659659493433138  1.0000
  Na  Na4       1.0  0.5341994927205178  0.3721578713423809  0.0340334961601556  1.0000
  H   H1        1.0  0.0929341198208533  0.6526393284226586  0.2403133540235416  1.0000
  H   H2        1.0  0.5928806592437894  0.3473757088758447  0.7596899402411808  1.0000
  H   H3        1.0  0.5928668098101184  0.8473607631808235  0.7403009806684651  1.0000
  H   H4        1.0  0.09286368449262031  0.15261107122093878  0.2596874683742669  1.0000
  H   H5        1.0  0.7894206992239245  0.7922791328379901  0.1973067459014217  1.0000
  H   H6        1.0  0.2894024849520278  0.20772230320183377  0.8027047957088556  1.0000
  H   H7        1.0  0.28936319341614336  0.7077144663410875  0.6972949223693803  1.0000
  H   H8        1.0  0.7893874662367253  0.2922613683362698  0.3026946263194219  1.0000
  H   H9        1.0  0.7724677101975529  0.9696204374238349  0.2651791008666748  1.0000
  H   H10       1.0  0.2724453612970308  0.03038739903037419  0.7348351898587923  1.0000
  H   H11       1.0  0.2724424225257422  0.5303767193684052  0.7651700264498161  1.0000
  H   H12       1.0  0.7724569282688448  0.4696055155315264  0.2348294190536535  1.0000
  H   H13       1.0  0.08039549472009358  0.9968661045874042  0.3699291865618832  1.0000
  H   H14       1.0  0.5803708839065251  0.0031537328558925997  0.630082355048394  1.0000
  H   H15       1.0  0.5804020243800211  0.5031318307116522  0.8699129644455468  1.0000
  H   H16       1.0  0.08041923805273399  0.496856004556406  0.1300886803500632  1.0000
  H   H17       1.0  0.21774483868312444  0.5307481709121546  0.30965923472764706  1.0000
  H   H18       1.0  0.7176738505160359  0.46927726735667347  0.6903374616606399  1.0000
  H   H19       1.0  0.7175807730911501  0.9692489984337697  0.8096606069484906  1.0000
  H   H20       1.0  0.21766542641375253  0.030723635748664394  0.1903382887319367  1.0000
  H   H21       1.0  0.5046459304324671  0.39459620974000836  0.368421021971713  1.0000
  H   H22       1.0  0.004593207674837201  0.6054156276095098  0.6315712758322789  1.0000
  H   H23       1.0  0.0044825445629399  0.10540393593493749  0.8684201949004091  1.0000
  H   H24       1.0  0.5045782227625252  0.8945878999480781  0.1315699036114353  1.0000
  H   H25       1.0  0.8670673355506152  0.45566182455292653  0.4519968726934351  1.0000
  H   H26       1.0  0.3670190818215032  0.5443252104770407  0.5480113699786173  1.0000
  H   H27       1.0  0.36694155128945033  0.04432183518118649  0.9519707537624384  1.0000
  H   H28       1.0  0.8669919757094033  0.9556756014240761  0.0480083482886613  1.0000
  H   H29       1.0  0.9115902894970132  0.6523553584298084  0.4768906605114509  1.0000
  H   H30       1.0  0.4115327151789073  0.34762527593493797  0.5231241800370512  1.0000
  H   H31       1.0  0.4115235481298641  0.8476392361889609  0.9768744383951146  1.0000
  H   H32       1.0  0.9115504524001212  0.1523718011142918  0.0231173095858352  1.0000
  C   C1        1.0  0.23898891742691566  0.7482753770071683  0.3314514707945904  1.0000
  C   C2        1.0  0.7389212995218273  0.2517372599754708  0.6685567718774692  1.0000
  C   C3        1.0  0.738923280248663  0.7517214231007258  0.831440197085584  1.0000
  C   C4        1.0  0.23893401367055134  0.2482616119782648  0.1685548498335905  1.0000
  C   C5        1.0  0.08244863942965  0.7284587265011665  0.2695556922402815  1.0000
  C   C6        1.0  0.5823732318800481  0.2715547105720049  0.7304514507857007  1.0000
  C   C7        1.0  0.5823646083322204  0.7715397956001196  0.769543318885205  1.0000
  C   C8        1.0  0.08237297803615459  0.22843923926229334  0.23044842909575183  1.0000
  C   C9        1.0  0.9132364925973491  0.8079902594690295  0.24469654327359078  1.0000
  C   C10       1.0  0.4131755963669974  0.1920199772272682  0.7553155481597216  1.0000
  C   C11       1.0  0.4131443012446638  0.6920095969083135  0.744683070272437  1.0000
  C   C12       1.0  0.9131697816581835  0.3079750383664929  0.25530922753154783  1.0000
  C   C13       1.0  0.9057223047847243  0.9057967361268382  0.281331802044285  1.0000
  C   C14       1.0  0.40567916876168647  0.09422070125144438  0.7186753409816973  1.0000
  C   C15       1.0  0.405661270491528  0.5942083543404877  0.7813243770965386  1.0000
  C   C16       1.0  0.9056833599003581  0.40577708086254194  0.2186728691147763  1.0000
  C   C17       1.0  0.07469625751647868  0.9205906692481205  0.3407792186153458  1.0000
  C   C18       1.0  0.5746445691373836  0.0794275682944701  0.6592240756493766  1.0000
  C   C19       1.0  0.5746332458036036  0.5794112304391064  0.8407756424288594  1.0000
  C   C20       1.0  0.07467033911683531  0.42057740481619277  0.1592287514819404  1.0000
  C   C21       1.0  0.4120778451360039  0.6642689179414702  0.3631971532982661  1.0000
  C   C22       1.0  0.9119860171074378  0.3357501197359126  0.6368033918512737  1.0000
  C   C23       1.0  0.9119600136808187  0.8357349789605804  0.8631864294122948  1.0000
  C   C24       1.0  0.4119862415377398  0.16425845698545768  0.13680586839169  1.0000
  C   C25       1.0  0.3745490737229956  0.5557306900913161  0.3464127054512717  1.0000
  C   C26       1.0  0.8744793538303313  0.4442875474660255  0.6535900389904157  1.0000
  C   C27       1.0  0.8744173186719095  0.9442757077476498  0.8464036310344129  1.0000
  C   C28       1.0  0.37446213976763687  0.055716928240656195  0.1535848180083121  1.0000
  C   C29       1.0  0.5357732525382984  0.47940719753265876  0.3788841543636324  1.0000
  C   C30       1.0  0.03570368323363479  0.5206006393494532  0.6211141914937599  1.0000
  C   C31       1.0  0.03563268950710351  0.0205875863733311  0.8788767294158859  1.0000
  C   C32       1.0  0.5356893965380535  0.9794050497920279  0.12110512175039641  1.0000
  C   C33       1.0  0.7351925738440954  0.5128340822698617  0.42601608473150077  1.0000
  C   C34       1.0  0.23514373154912244  0.4871625534923609  0.5739921579405518  1.0000
  C   C35       1.0  0.2350813301372838  0.9871560424413771  0.9259965636769466  1.0000
  C   C36       1.0  0.7351216863013902  0.012840594102868898  0.0739825383741533  1.0000
  C   C37       1.0  0.7594786807124693  0.6222204510271325  0.4399601467699484  1.0000
  C   C38       1.0  0.25942749063241877  0.37777778479811264  0.5600502951942588  1.0000
  C   C39       1.0  0.25938727304314574  0.8777753257925481  0.9399395260693167  1.0000
  C   C40       1.0  0.7594110910206453  0.1222229107114288  0.0600456240351903  1.0000
  N   N1        1.0  0.23657690826763664  0.8442873808618074  0.3656993979391316  1.0000
  N   N2        1.0  0.7364996473726606  0.1557276564514467  0.6343033465025627  1.0000
  N   N3        1.0  0.7365031576513772  0.6557107811201631  0.865695821752638  1.0000
  N   N4        1.0  0.23653223594403983  0.3442762540721134  0.1343063728660141  1.0000
  N   N5        1.0  0.6011124663880167  0.6963468982333794  0.4103873649080398  1.0000
  N   N6        1.0  0.1010399310061345  0.30365613783995116  0.5896274756404551  1.0000
  N   N7        1.0  0.10101407393955951  0.8036424653172318  0.9103628954461556  1.0000
  N   N8        1.0  0.6010520778060808  0.1963485704457497  0.0896294023578363  1.0000
  Cl  Cl1       1.0  0.06841877843768168  0.8573160679937075  0.5858139030566178  1.0000
  Cl  Cl2       1.0  0.568400788362986  0.1426965689741806  0.4141948894384697  1.0000
  Cl  Cl3       1.0  0.5684251225852606  0.642698716431525  0.0858015343750367  1.0000
  Cl  Cl4       1.0  0.0684042448446505  0.3572987197015749  0.9141951620132432  1.0000
  O   O1        1.0  0.1741842807906337  0.9468960849770767  0.5416653124868915  1.0000
  O   O2        1.0  0.6741971463588426  0.053110151753479294  0.45833413301657794  1.0000
  O   O3        1.0  0.6742195098182294  0.5531106678255994  0.0416672392042656  1.0000
  O   O4        1.0  0.1741991597847132  0.4468859682317259  0.9583300070070493  1.0000
  O   O5        1.0  0.20802395949589678  0.7603708480434719  0.5644197388683807  1.0000
  O   O6        1.0  0.7080267634783297  0.23963938891841244  0.4355824557502714  1.0000
  O   O7        1.0  0.708052102782233  0.7396418842778869  0.0644123185941297  1.0000
  O   O8        1.0  0.20804370310586504  0.2603563519162364  0.9355843777941503  1.0000
  O   O9        1.0  0.7889497475181174  0.8452475678076469  0.5701516440279093  1.0000
  O   O10       1.0  0.28894433876163816  0.15476746897442686  0.4298708940431055  1.0000
  O   O11       1.0  0.2889699329384428  0.6547712580658569  0.0701178322478881  1.0000
  O   O12       1.0  0.7889496346709847  0.3452269781282666  0.9298788641403918  1.0000
  O   O13       1.0  0.10347491103907909  0.8795700843816476  0.663362043824975  1.0000
  O   O14       1.0  0.603405300433856  0.12044655297987819  0.3366434497318949  1.0000
  O   O15       1.0  0.6034213367700757  0.6204501384448092  0.1633551733737661  1.0000
  O   O16       1.0  0.1033922307314512  0.3795472976735326  0.8366420728375559  1.0000
