data_image0
_chemical_formula_structural       Ni2H30C32N10O10
_chemical_formula_sum              "Ni2 H30 C32 N10 O10"
_cell_length_a       8.397291693893054
_cell_length_b       10.66547852076464
_cell_length_c       10.601811497976989
_cell_angle_alpha    94.63975001350413
_cell_angle_beta     85.4758963339379
_cell_angle_gamma    65.89045563742184

_space_group_name_H-M_alt    "P 1"
_space_group_IT_number       1

loop_
  _space_group_symop_operation_xyz
  'x, y, z'

loop_
  _atom_site_type_symbol
  _atom_site_label
  _atom_site_symmetry_multiplicity
  _atom_site_fract_x
  _atom_site_fract_y
  _atom_site_fract_z
  _atom_site_occupancy
  Ni  Ni1       1.0  0.49999416890570086  0.5000065714194406  0.5000059259936407  1.0000
  Ni  Ni2       1.0  0.500000450423549  0.9999999458186793  0.49999676596728193  1.0000
  H   H1        1.0  0.7373811863943303  0.5736618723415033  0.18045961470895125  1.0000
  H   H2        1.0  0.2626390838080539  0.4263263377738583  0.8195276217032087  1.0000
  H   H3        1.0  0.9307516766371647  0.42181636567640635  0.15390734240726545  1.0000
  H   H4        1.0  0.06925464072858745  0.5781725214445145  0.8460981895919703  1.0000
  H   H5        1.0  0.8913230961327724  0.43236759648323214  0.41056208912528563  1.0000
  H   H6        1.0  0.10867887523895094  0.5676340364271296  0.5894362446819346  1.0000
  H   H7        1.0  0.9885160511904163  0.5319891987080326  0.33448307663341836  1.0000
  H   H8        1.0  0.011481242055317973  0.4680214910010534  0.6655128267983416  1.0000
  H   H9        1.0  0.6302190220181885  0.8300245283550041  0.25100327497388264  1.0000
  H   H10       1.0  0.3697857013368378  0.16998104857417215  0.7489938578373199  1.0000
  H   H11       1.0  0.5153474663695903  0.8261171199720467  0.040470283126353514  1.0000
  H   H12       1.0  0.48463964196744763  0.17390257654317762  0.9595340984487354  1.0000
  H   H13       1.0  0.052097838836253574  0.19016880286375232  0.20100457755540907  1.0000
  H   H14       1.0  0.9479040273739513  0.8098030653732309  0.7990042215215212  1.0000
  H   H15       1.0  0.185486955614337  0.17525180453213812  0.40752409560910513  1.0000
  H   H16       1.0  0.81452042242568  0.824712429899698  0.5924671808927968  1.0000
  H   H17       1.0  0.8090218621182358  0.3714911962945422  0.9105957879784442  1.0000
  H   H18       1.0  0.19097526115722735  0.6285173789864444  0.08939918753824123  1.0000
  H   H19       1.0  0.6083407092445511  0.5286426610254579  0.7727118121432639  1.0000
  H   H20       1.0  0.3916605587657997  0.47136495628425484  0.2272846832932061  1.0000
  H   H21       1.0  0.8209508200760994  0.2353774962802717  0.455296340121997  1.0000
  H   H22       1.0  0.1790485793221635  0.7646230011521737  0.5447126387135272  1.0000
  H   H23       1.0  0.036537390323815096  0.06894718069440842  0.5765993489495714  1.0000
  H   H24       1.0  0.9634783884554422  0.931053357502435  0.423400578530874  1.0000
  H   H25       1.0  0.3005964326659907  0.8109612858579567  0.881121186293349  1.0000
  H   H26       1.0  0.6994046804607662  0.18903722733868733  0.1188762832889907  1.0000
  H   H27       1.0  0.7016252160620412  0.0794804497130883  0.3608890678495341  1.0000
  H   H28       1.0  0.2983769414821397  0.9205163850640619  0.6391130421689655  1.0000
  H   H29       1.0  0.5506151745045785  0.20299940201480376  0.465221517928967  1.0000
  H   H30       1.0  0.44938561206773636  0.7969958078093384  0.5347854506461404  1.0000
  C   C1        1.0  0.707984669709198  0.3923834682598368  0.22689646253697054  1.0000
  C   C2        1.0  0.29201954485053955  0.6076158425086647  0.7730988327642336  1.0000
  C   C3        1.0  0.8134965594400045  0.47982862797900344  0.22348540717528215  1.0000
  C   C4        1.0  0.18650922007260112  0.5201680494747977  0.776515429427299  1.0000
  C   C5        1.0  0.8673779291138924  0.5169846190386523  0.35179118409932647  1.0000
  C   C6        1.0  0.13262473387905516  0.48301825052825365  0.6482099247234387  1.0000
  C   C7        1.0  0.7287225175981928  0.6509117300323342  0.42347786445212426  1.0000
  C   C8        1.0  0.2712773727472424  0.3490937995824979  0.5765178121294882  1.0000
  C   C9        1.0  0.5019179296328459  0.9063068257274411  0.2352040482488463  1.0000
  C   C10       1.0  0.498076457861508  0.09369089297340591  0.7647949765600546  1.0000
  C   C11       1.0  0.4365800682890254  0.9055863215580829  0.11889982358116673  1.0000
  C   C12       1.0  0.5634030921102352  0.0944222366156708  0.8811049314053891  1.0000
  C   C13       1.0  0.27324337250719566  0.010159541320227608  0.10382870221520346  1.0000
  C   C14       1.0  0.7267496060333871  0.9898499919320259  0.8961647533816974  1.0000
  C   C15       1.0  0.18022292157239406  0.10892539574545881  0.20915049830880156  1.0000
  C   C16       1.0  0.8197778851337107  0.8910551405959667  0.7908517582710177  1.0000
  C   C17       1.0  0.2523141446248972  0.10150387292273419  0.3228059315320309  1.0000
  C   C18       1.0  0.747689255834402  0.8984712719535112  0.6771932594919009  1.0000
  C   C19       1.0  0.20125043724937805  0.02438085026700072  0.9825934065613637  1.0000
  C   C20       1.0  0.7987382377411266  0.9756282977648495  0.017407063553122316  1.0000
  C   C21       1.0  0.06171002677369589  0.1105860489229258  0.8297971337288318  1.0000
  C   C22       1.0  0.9382922823075575  0.8894196585963671  0.17020116343806546  1.0000
  C   C23       1.0  0.9406041186537237  0.2066049266799865  0.7543600393134611  1.0000
  C   C24       1.0  0.05939354470589832  0.7933960125153943  0.24564152407036496  1.0000
  C   C25       1.0  0.8183905725692925  0.3386796554767955  0.8091086232097028  1.0000
  C   C26       1.0  0.1816160456395651  0.6613268228811151  0.1908873906158348  1.0000
  C   C27       1.0  0.7042829592770304  0.4253488106012568  0.733092074548864  1.0000
  C   C28       1.0  0.2957119425901524  0.5746555598784867  0.26691351894626086  1.0000
  C   C29       1.0  0.8230246549009479  0.26122893322035173  0.5562742093231139  1.0000
  C   C30       1.0  0.17698524586621994  0.7387812283739522  0.44373002048880766  1.0000
  C   C31       1.0  0.9417875061161568  0.16881404767825361  0.6246773076299236  1.0000
  C   C32       1.0  0.058214134239094266  0.8311839733650357  0.3753267402290917  1.0000
  N   N1        1.0  0.4120298239081991  0.0027030350650179007  0.33548406361914124  1.0000
  N   N2        1.0  0.5879730174486538  0.9972944965031801  0.6645141977681847  1.0000
  N   N3        1.0  0.08497515711139407  0.14439411677089714  0.9512625316624792  1.0000
  N   N4        1.0  0.9150154105019295  0.8556157784424061  0.04873492699584866  1.0000
  N   N5        1.0  0.24708582833660153  0.9225617940869524  0.8833548720609201  1.0000
  N   N6        1.0  0.7529011413190433  0.07744188575387768  0.11665333195623619  1.0000
  N   N7        1.0  0.15885286163910456  0.9758422314399197  0.7854567184523304  1.0000
  N   N8        1.0  0.841155149321345  0.024159344927909412  0.21454201628900907  1.0000
  N   N9        1.0  0.7033324397693548  0.38755985520485586  0.6085548961872931  1.0000
  N   N10       1.0  0.2966629826332794  0.6124435603796812  0.3914515981730348  1.0000
  O   O1        1.0  0.6444637475464816  0.37286401975779876  0.3330127085854286  1.0000
  O   O2        1.0  0.3555387186493704  0.6271509461218442  0.6669865069060776  1.0000
  O   O3        1.0  0.6917725049616834  0.3386374753571531  0.11977218674915954  1.0000
  O   O4        1.0  0.30822739600840543  0.6613607560781529  0.880221606952425  1.0000
  O   O5        1.0  0.5900038262571742  0.6499020258074212  0.48492167458839225  1.0000
  O   O6        1.0  0.41000954998847305  0.3500914219236435  0.5150784806029662  1.0000
  O   O7        1.0  0.7494679713285703  0.7607673826737342  0.41776524973210644  1.0000
  O   O8        1.0  0.25051535123240143  0.23924275006262968  0.582233809522819  1.0000
  O   O9        1.0  0.6380919897189373  0.10042708487145553  0.44908123965335295  1.0000
  O   O10       1.0  0.3619051670764081  0.8995677424105322  0.550920378690968  1.0000
