data_image0
_chemical_formula_structural       Zn16H16C96S16Br8Cl8O52
_chemical_formula_sum              "Zn16 H16 C96 S16 Br8 Cl8 O52"
_cell_length_a       19.695691179491483
_cell_length_b       19.73289479706086
_cell_length_c       33.40733827625686
_cell_angle_alpha    78.97843404278437
_cell_angle_beta     79.0842381672725
_cell_angle_gamma    63.86495410810581

_space_group_name_H-M_alt    "P 1"
_space_group_IT_number       1

loop_
  _space_group_symop_operation_xyz
  'x, y, z'

loop_
  _atom_site_type_symbol
  _atom_site_label
  _atom_site_symmetry_multiplicity
  _atom_site_fract_x
  _atom_site_fract_y
  _atom_site_fract_z
  _atom_site_occupancy
  Zn  Zn1       1.0  0.055699725415493576  0.40027103955618043  0.47797611099493753  1.0000
  Zn  Zn2       1.0  0.9858618737616991  0.4841987228597305  0.5602605639678516  1.0000
  Zn  Zn3       1.0  0.0577535023520852  0.5620595839783106  0.4818203041690126  1.0000
  Zn  Zn4       1.0  0.9001452219000325  0.5548283172521024  0.4802935055715735  1.0000
  Zn  Zn5       1.0  0.6952541588593135  0.3494433690649995  0.2718185878477328  1.0000
  Zn  Zn6       1.0  0.6884120168149083  0.19050949788495308  0.266050265017455  1.0000
  Zn  Zn7       1.0  0.7700982592623403  0.26559151064304126  0.1901075686708609  1.0000
  Zn  Zn8       1.0  0.8473555690165424  0.19301705650430986  0.2721289603627993  1.0000
  Zn  Zn9       1.0  0.2660990195638958  0.7663628463210654  0.6894964010375446  1.0000
  Zn  Zn10      1.0  0.34894786891494783  0.6976766507032294  0.7718103060016972  1.0000
  Zn  Zn11      1.0  0.19175181847781173  0.8488106470620309  0.7713489799090142  1.0000
  Zn  Zn12      1.0  0.19283390077972476  0.6875389619876556  0.7680524370000299  1.0000
  Zn  Zn13      1.0  0.5603761144209898  0.060487981685404944  0.9839840926091624  1.0000
  Zn  Zn14      1.0  0.40134682508391956  0.054530456797912956  0.9775133173241385  1.0000
  Zn  Zn15      1.0  0.5569136892945892  0.9014025841945992  0.9789931696786097  1.0000
  Zn  Zn16      1.0  0.482186897887935  0.9817479072975456  0.05996650224118135  1.0000
  H   H1        1.0  0.7505811330142435  0.448269810265266  0.3488940172350894  1.0000
  H   H2        1.0  3.767249025799946e-05  0.30203186506901153  0.4007414417577024  1.0000
  H   H3        1.0  0.2019139895312207  0.699854997862296  0.6015171892283248  1.0000
  H   H4        1.0  0.049206717334435296  0.5514767721085931  0.6478397962350471  1.0000
  H   H5        1.0  0.46372757757933397  0.23984175075854341  0.34116640051374253  1.0000
  H   H6        1.0  0.4799177291567247  0.7028489856775405  0.6010006589693617  1.0000
  H   H7        1.0  0.20376700188717925  0.979152278039983  0.6010280563874275  1.0000
  H   H8        1.0  0.9465424589150115  0.9702468357449872  0.34754473537544334  1.0000
  H   H9        1.0  0.6476278717037898  0.1487507226115454  0.04966292308893121  1.0000
  H   H10       1.0  0.6020560362060648  0.10115176602088385  0.2004341102666629  1.0000
  H   H11       1.0  0.546597774266921  0.7700949931668287  0.14869085598809312  1.0000
  H   H12       1.0  0.16141368668917977  0.14262928817117873  0.040115203518460915  1.0000
  H   H13       1.0  0.30238095198948395  0.9998876124044354  0.9011366310900611  1.0000
  H   H14       1.0  0.44658583528717327  0.751366772320821  0.8489973490122508  1.0000
  H   H15       1.0  0.3008608394709427  0.2809260262122776  0.9019637289114116  1.0000
  H   H16       1.0  0.7874497750144583  0.011113341372869514  0.9083332191364945  1.0000
  C   C1        1.0  0.061889432687003386  0.31650578009232067  0.561583033994033  1.0000
  C   C2        1.0  0.07016308836843169  0.5718469536103539  0.5675465866245945  1.0000
  C   C3        1.0  0.18337821127979476  0.4394032021992374  0.4384422349206361  1.0000
  C   C4        1.0  0.935665099642051  0.6843678506999284  0.43871207991073646  1.0000
  C   C5        1.0  0.9292184253268515  0.43195392489141665  0.4313206029432877  1.0000
  C   C6        1.0  0.8174806972345365  0.5610141548803182  0.5631808206540043  1.0000
  C   C7        1.0  0.5658603810015778  0.3112336953173552  0.3112843182340654  1.0000
  C   C8        1.0  0.6827973738310078  0.18098957098973043  0.1798336783830266  1.0000
  C   C9        1.0  0.6900906244663503  0.4330445873314233  0.1884277355421204  1.0000
  C   C10       1.0  0.9358494581098922  0.18708591520946524  0.18983819480681063  1.0000
  C   C11       1.0  0.8206085706974093  0.317509869788658  0.319179193466006  1.0000
  C   C12       1.0  0.8098556059466587  0.06540019330589793  0.31101534581519275  1.0000
  C   C13       1.0  0.4331951727504374  0.6896672575786053  0.6880101356512327  1.0000
  C   C14       1.0  0.3158361188412967  0.8225121384211743  0.8191587764971473  1.0000
  C   C15       1.0  0.18818958984124376  0.9333666422945012  0.6878855052950569  1.0000
  C   C16       1.0  0.06573067164470808  0.8091429779176523  0.8113358100939365  1.0000
  C   C17       1.0  0.18107910176887998  0.6792162792957795  0.6818732762415749  1.0000
  C   C18       1.0  0.3151186748601376  0.5662427010245992  0.81196840300845  1.0000
  C   C19       1.0  0.4379574005723582  0.18369064625953505  0.9386427632448145  1.0000
  C   C20       1.0  0.43310582933922587  0.928654627045489  0.9309770250123748  1.0000
  C   C21       1.0  0.6846213105954033  0.9403206105974461  0.9391859157561129  1.0000
  C   C22       1.0  0.5613107305015034  0.815583088532186  0.06191938318450246  1.0000
  C   C23       1.0  0.5679316652791754  0.06792177930620356  0.0702482324876286  1.0000
  C   C24       1.0  0.3150198961904279  0.06138499858150226  0.0602590080157981  1.0000
  C   C25       1.0  0.8987360731197852  0.4057393055893783  0.40219193992451346  1.0000
  C   C26       1.0  0.8516974343702727  0.34437611110625693  0.34763854788228343  1.0000
  C   C27       1.0  0.8274027377459416  0.4474111740786311  0.3870036368814311  1.0000
  C   C28       1.0  0.9233148031482088  0.30300410271742323  0.362537990960611  1.0000
  C   C29       1.0  0.8056026279048254  0.41613025483334093  0.360412735946163  1.0000
  C   C30       1.0  0.9449769296823332  0.3341480135899387  0.3892568001280594  1.0000
  C   C31       1.0  0.10017391786990257  0.6009899631246183  0.5953986355384941  1.0000
  C   C32       1.0  0.15093200566744258  0.6503511420971576  0.6539523515265984  1.0000
  C   C33       1.0  0.14401871832336607  0.6435537756862572  0.58236559408045  1.0000
  C   C34       1.0  0.10705244924338328  0.6078121805233394  0.6669846593194677  1.0000
  C   C35       1.0  0.16816746569158167  0.6671042151584171  0.6116043861268351  1.0000
  C   C36       1.0  0.08290197104971499  0.58428159032114  0.6377414874557417  1.0000
  C   C37       1.0  0.30466490430163157  0.45449885355074554  0.400940336569235  1.0000
  C   C38       1.0  0.4465294685926224  0.29656924229230686  0.3490646070081098  1.0000
  C   C39       1.0  0.2585333428231138  0.4156478315210208  0.41393640016035965  1.0000
  C   C40       1.0  0.4911375966184293  0.3366099168555508  0.3364277071312429  1.0000
  C   C41       1.0  0.3783816366101432  0.3394440304651382  0.37269058609488337  1.0000
  C   C42       1.0  0.37288293459388905  0.4112416485472182  0.3774479718455055  1.0000
  C   C43       1.0  0.725755743443983  0.5752629015654236  0.6310470379147406  1.0000
  C   C44       1.0  0.5242811951030789  0.6736588122572084  0.621215580863712  1.0000
  C   C45       1.0  0.743326974530582  0.5847216077185706  0.5886078335571341  1.0000
  C   C46       1.0  0.5084965404270179  0.6638095911462399  0.6635542452272105  1.0000
  C   C47       1.0  0.6036695212789027  0.6413152883919934  0.6092207601712475  1.0000
  C   C48       1.0  0.6462752343412604  0.6075044589253408  0.6428616022165983  1.0000
  C   C49       1.0  0.0762409066889518  0.22526341337071187  0.629653221083771  1.0000
  C   C50       1.0  0.1743698752815916  0.02381321390476638  0.6209267794572497  1.0000
  C   C51       1.0  0.08602039930201498  0.2423806210638516  0.5871440009935754  1.0000
  C   C52       1.0  0.16356305094262066  0.008508795042409591  0.663264621298069  1.0000
  C   C53       1.0  0.14243622004333636  0.10299669319728369  0.6085264394594604  1.0000
  C   C54       1.0  0.10818130556468467  0.14597929575504756  0.6418851399470427  1.0000
  C   C55       1.0  0.8406654346085174  0.8012678969703797  0.3971266100705861  1.0000
  C   C56       1.0  0.9022874310082968  0.9497519860748009  0.3522079648671124  1.0000
  C   C57       1.0  0.9091353255604556  0.7587949125236193  0.4136629675180502  1.0000
  C   C58       1.0  0.8337172255647829  0.9907742894981552  0.33604223625415836  1.0000
  C   C59       1.0  0.9050178476196179  0.8804413932524751  0.3745598481069337  1.0000
  C   C60       1.0  0.838204379443482  0.8705875404458676  0.37483062314134225  1.0000
  C   C61       1.0  0.6543723321761447  0.15376835130961558  0.150207820488518  1.0000
  C   C62       1.0  0.5956747654175416  0.09579775331535943  0.0998826183374391  1.0000
  C   C63       1.0  0.6669324659946766  0.16737575975738372  0.10692589985561801  1.0000
  C   C64       1.0  0.5826949265954793  0.0826153515449591  0.1431693776565268  1.0000
  C   C65       1.0  0.6377523932682506  0.13829923163455507  0.08296246650908762  1.0000
  C   C66       1.0  0.612078557767326  0.11148349898009956  0.16713586388537743  1.0000
  C   C67       1.0  0.6742995236920989  0.5239011931595314  0.12025626938785196  1.0000
  C   C68       1.0  0.5758879427528496  0.7253466760919733  0.1288424702596984  1.0000
  C   C69       1.0  0.6650667050920163  0.5069992548695974  0.16278747466566307  1.0000
  C   C70       1.0  0.5863789770969987  0.7404801260375036  0.086479598727081  1.0000
  C   C71       1.0  0.608070950641732  0.6462182755101935  0.1412970420242061  1.0000
  C   C72       1.0  0.6420660085081166  0.6031435188941426  0.10795546751327127  1.0000
  C   C73       1.0  0.08337819199640958  0.12317911599764386  0.1780868656848895  1.0000
  C   C74       1.0  0.1694877595891882  0.1256934859154057  0.0724240140247403  1.0000
  C   C75       1.0  0.0110345990845389  0.16218017902964016  0.16552809674124797  1.0000
  C   C76       1.0  0.24079050934351193  0.08653225207347494  0.0857084210829768  1.0000
  C   C77       1.0  0.11183995303542815  0.13918160156119797  0.1061300943890444  1.0000
  C   C78       1.0  0.1409195305084765  0.10992830740892148  0.1442867654610396  1.0000
  C   C79       1.0  0.3429528108266382  0.8528168049496538  0.8478973463030285  1.0000
  C   C80       1.0  0.4058960671761298  0.8983613974194636  0.9023027128007682  1.0000
  C   C81       1.0  0.3019838255555314  0.9240242787873495  0.8630036667121387  1.0000
  C   C82       1.0  0.44689463696469994  0.8271301010810459  0.8872071553402918  1.0000
  C   C83       1.0  0.3339953346860938  0.9450171611740923  0.8895873351891198  1.0000
  C   C84       1.0  0.4148763345864523  0.8061660511164062  0.860603108723417  1.0000
  C   C85       1.0  0.40962783203386266  0.44780819885408346  0.8532520446023001  1.0000
  C   C86       1.0  0.34573251187670445  0.3005464877289297  0.8974856722924897  1.0000
  C   C87       1.0  0.34137544972287504  0.4913207998467115  0.8366539038346587  1.0000
  C   C88       1.0  0.4141294048825088  0.2585397324445039  0.9137235856686343  1.0000
  C   C89       1.0  0.343929843940316  0.3697421428762126  0.8753279573832415  1.0000
  C   C90       1.0  0.4112316151211885  0.37855213986274794  0.8752751827683695  1.0000
  C   C91       1.0  0.9443028486754413  0.794843183126275  0.8494280704170478  1.0000
  C   C92       1.0  0.8040360473737492  0.9542814736647499  0.9007650035270132  1.0000
  C   C93       1.0  0.9908412748460831  0.833110410550908  0.8359864638937323  1.0000
  C   C94       1.0  0.7590090062560861  0.9148071605007426  0.9138764102647698  1.0000
  C   C95       1.0  0.8717658005727386  0.9106102493307231  0.8771520104977101  1.0000
  C   C96       1.0  0.8764609409738142  0.8388525625666715  0.8728992020103873  1.0000
  S   S1        1.0  0.2992790542632803  0.325894530736768  0.3973532301965292  1.0000
  S   S2        1.0  0.4511313462719002  0.4261012620197348  0.3530380888716991  1.0000
  S   S3        1.0  0.6621180480886224  0.6329984707242242  0.5632575737649291  1.0000
  S   S4        1.0  0.5891649807903931  0.6154465455848945  0.6890688687151396  1.0000
  S   S5        1.0  0.1346370802943682  0.16089429709914774  0.5623099209238022  1.0000
  S   S6        1.0  0.11493910335624948  0.08943051488091672  0.6883373297093555  1.0000
  S   S7        1.0  0.9704468754448639  0.8039529346451386  0.4017371643563266  1.0000
  S   S8        1.0  0.7722374074564228  0.9461027879478789  0.3477142643490367  1.0000
  S   S9        1.0  0.6163887550663956  0.5885209999923829  0.1875698657498148  1.0000
  S   S10       1.0  0.6349220231204313  0.6595081952969507  0.06145472174260651  1.0000
  S   S11       1.0  0.013761569030862095  0.18285260260147848  0.11226630678878279  1.0000
  S   S12       1.0  0.23872732753942214  0.0659317370638206  0.13884278021553342  1.0000
  S   S13       1.0  0.2792426538742703  0.44701604826560254  0.8481308536933767  1.0000
  S   S14       1.0  0.4765271476074345  0.3022279434043256  0.9023355942302589  1.0000
  S   S15       1.0  0.9510364714544293  0.9232497546807463  0.8520480623702582  1.0000
  S   S16       1.0  0.7979781448005382  0.824985082205266  0.8977740558827565  1.0000
  Br  Br1       1.0  0.2846121872738223  0.551986404432121  0.41167149059985053  1.0000
  Br  Br2       1.0  0.7945849735252536  0.5266080413508617  0.6703012331243343  1.0000
  Br  Br3       1.0  0.027593884496496898  0.29425536858727236  0.6686496112685063  1.0000
  Br  Br4       1.0  0.7588087817480939  0.7746149322424212  0.40166208358618855  1.0000
  Br  Br5       1.0  0.7220569188725319  0.45470851454465566  0.08132901372331253  1.0000
  Br  Br6       1.0  0.10757634600209798  0.09048644730720667  0.23223028396891007  1.0000
  Br  Br7       1.0  0.49253498517376926  0.47282641644387263  0.8488362967093934  1.0000
  Br  Br8       1.0  0.9636358780929014  0.6973967544327091  0.8390341802350251  1.0000
  Cl  Cl1       1.0  0.7631489814574266  0.5367772175265483  0.39881195079359333  1.0000
  Cl  Cl2       1.0  0.9884931526633522  0.2145035525447481  0.34982930319555555  1.0000
  Cl  Cl3       1.0  0.17135966874774766  0.6690438139680379  0.5316815409935601  1.0000
  Cl  Cl4       1.0  0.0797610469681445  0.5821202322563648  0.7176360363976996  1.0000
  Cl  Cl5       1.0  0.7163398222334506  0.21917274665001665  0.08050346754559708  1.0000
  Cl  Cl6       1.0  0.5317335127500087  0.032376187138197475  0.16964219048294643  1.0000
  Cl  Cl7       1.0  0.2130894867968038  0.9892493683434154  0.8506832130710437  1.0000
  Cl  Cl8       1.0  0.535975807048537  0.7620650202362493  0.8992882923386675  1.0000
  O   O1        1.0  0.0007545521974207999  0.4989234296500484  0.4998955182214501  1.0000
  O   O2        1.0  0.0778763738631767  0.3147634762620583  0.5226402999930214  1.0000
  O   O3        1.0  0.0348176577888353  0.5311210796725944  0.585163960458175  1.0000
  O   O4        1.0  0.15380130316616197  0.5058581764401426  0.4493851740350437  1.0000
  O   O5        1.0  0.027524248953284296  0.37547319670113666  0.5802071776836186  1.0000
  O   O6        1.0  0.15439150394085024  0.39076562991619546  0.4464715952481271  1.0000
  O   O7        1.0  0.08172767995115039  0.5897318293605591  0.5291155965389364  1.0000
  O   O8        1.0  0.0034653743611770004  0.6580387489724372  0.44835041246182783  1.0000
  O   O9        1.0  0.8865558233192488  0.4957967326744495  0.44407168612759307  1.0000
  O   O10       1.0  0.8898087952321987  0.6526799708641917  0.44871280817575615  1.0000
  O   O11       1.0  0.9958436223656975  0.3874382241925143  0.4409754232006761  1.0000
  O   O12       1.0  0.8771498747812174  0.526770492463761  0.5814234928405142  1.0000
  O   O13       1.0  0.8148838952733609  0.5775944404077431  0.5242997059053421  1.0000
  O   O14       1.0  0.7489841759879495  0.2504414341958991  0.250295742304985  1.0000
  O   O15       1.0  0.5971994688622572  0.35778569594982196  0.30341852512437845  1.0000
  O   O16       1.0  0.6625439179005638  0.1662960484923062  0.2179609743562878  1.0000
  O   O17       1.0  0.7268910583808503  0.3740418930249375  0.169974000982414  1.0000
  O   O18       1.0  0.59246744411562  0.2453459642437961  0.2996548512214972  1.0000
  O   O19       1.0  0.6725426669517772  0.43488611920869136  0.22731820305616424  1.0000
  O   O20       1.0  0.7245707001333271  0.21588919083431776  0.1649578675399397  1.0000
  O   O21       1.0  0.8787724396020664  0.22430286737553448  0.16932850962479756  1.0000
  O   O22       1.0  0.8611837212501355  0.2515864364255122  0.3084885515393977  1.0000
  O   O23       1.0  0.9334937361676408  0.16978666858415178  0.22865377722176564  1.0000
  O   O24       1.0  0.7553747115958842  0.36338553895041764  0.3081077482681067  1.0000
  O   O25       1.0  0.7436406192237396  0.09351317950331875  0.2991642567913572  1.0000
  O   O26       1.0  0.8574612790092643  0.09525382172174801  0.3033835431618712  1.0000
  O   O27       1.0  0.2502257681250626  0.7503313640307423  0.749828107188506  1.0000
  O   O28       1.0  0.3750895826890286  0.7240657734679131  0.6683604756555399  1.0000
  O   O29       1.0  0.36232813398761  0.7578676802887114  0.8077920311253379  1.0000
  O   O30       1.0  0.17092887835190848  0.9334432641713731  0.7267993661156779  1.0000
  O   O31       1.0  0.433256250430901  0.675090872878172  0.727031380829935  1.0000
  O   O32       1.0  0.22423149211184784  0.8753249402712411  0.6684392494644343  1.0000
  O   O33       1.0  0.24964099665911013  0.862705677560491  0.8085100403519476  1.0000
  O   O34       1.0  0.0935476883068986  0.8587344503720256  0.8025190134714464  1.0000
  O   O35       1.0  0.1684635870978326  0.6619457554739299  0.720284646149743  1.0000
  O   O36       1.0  0.0964680089476602  0.7421594602155819  0.8010132060341347  1.0000
  O   O37       1.0  0.2174817615349554  0.7190361085194751  0.6644025659119566  1.0000
  O   O38       1.0  0.3598867268836372  0.5992721701907439  0.8034233744624331  1.0000
  O   O39       1.0  0.248199600668343  0.5916538179220366  0.8012276948934415  1.0000
  O   O40       1.0  0.4997290717489804  0.0005706874316757366  0.9998050322495329  1.0000
  O   O41       1.0  0.5041489028516111  0.1561988580428633  0.9504676011066308  1.0000
  O   O42       1.0  0.3880804427323383  0.9946534440567805  0.9411222177516836  1.0000
  O   O43       1.0  0.6542686007344756  0.8929321619967965  0.9475777302957199  1.0000
  O   O44       1.0  0.3909420766778097  0.15309859674213297  0.9461890816874146  1.0000
  O   O45       1.0  0.657145248872034  0.006540236084518338  0.9504959606530435  1.0000
  O   O46       1.0  0.49807879085359014  0.88692717628615  0.9428472466714625  1.0000
  O   O47       1.0  0.57963576496288  0.8159730095988277  0.023034940258746455  1.0000
  O   O48       1.0  0.52997248299976  0.02908540463966604  0.0851695420349117  1.0000
  O   O49       1.0  0.5237120934327775  0.873428000581086  0.08139111981286361  1.0000
  O   O50       1.0  0.5851402772428428  0.08573483565694318  0.032078183480727794  1.0000
  O   O51       1.0  0.3148900517163042  0.07783376816371394  0.021391648957219893  1.0000
  O   O52       1.0  0.373290554631687  0.02489676033751207  0.0798243731580897  1.0000
