data_image0
_chemical_formula_structural       Zn2H32C36N6O10
_chemical_formula_sum              "Zn2 H32 C36 N6 O10"
_cell_length_a       10.870627234183077
_cell_length_b       15.884477094670215
_cell_length_c       16.834486625201205
_cell_angle_alpha    87.48798083841488
_cell_angle_beta     89.73566405069974
_cell_angle_gamma    87.50761709645177

_space_group_name_H-M_alt    "P 1"
_space_group_IT_number       1

loop_
  _space_group_symop_operation_xyz
  'x, y, z'

loop_
  _atom_site_type_symbol
  _atom_site_label
  _atom_site_symmetry_multiplicity
  _atom_site_fract_x
  _atom_site_fract_y
  _atom_site_fract_z
  _atom_site_occupancy
  Zn  Zn1       1.0  0.5100791567812948  0.5920091050438574  0.5063710162172442  1.0000
  Zn  Zn2       1.0  0.5214820933219001  0.4173904227232157  0.49782853576301295  1.0000
  H   H1        1.0  0.9005821204303428  0.6242929635679033  0.44009801653334085  1.0000
  H   H2        1.0  0.8944751505891374  0.5363910742907834  0.38002895142069093  1.0000
  H   H3        1.0  0.41270449069391196  0.3849424732622708  0.2728240141056376  1.0000
  H   H4        1.0  0.6931853095253186  0.7270684945967005  0.49591687085932534  1.0000
  H   H5        1.0  0.6900353015853112  0.8874031158513774  0.4918356541875823  1.0000
  H   H6        1.0  0.6944327497122912  0.13371462436477802  0.3996298369466374  1.0000
  H   H7        1.0  0.6712852521930016  0.2932464237691619  0.4061805320940409  1.0000
  H   H8        1.0  0.31685987611380984  0.723871886054084  0.5287906608010362  1.0000
  H   H9        1.0  0.3958151537986438  0.11656674574300752  0.5685331114774641  1.0000
  H   H10       1.0  0.2974433885085901  0.8844805535102226  0.5293165733472665  1.0000
  H   H11       1.0  0.38834249281005373  0.2762460923871756  0.5700919714429062  1.0000
  H   H12       1.0  0.13047515292333137  0.38412341511248366  0.5587606968856635  1.0000
  H   H13       1.0  0.10925504515400059  0.5223045647948013  0.3737884420357887  1.0000
  H   H14       1.0  0.11468413387579092  0.6187990483800193  0.42178758360829255  1.0000
  H   H15       1.0  0.8973096963660795  0.6052761052346015  0.5908114370692772  1.0000
  H   H16       1.0  0.10955876260676688  0.6187882768283475  0.5711665622849937  1.0000
  H   H17       1.0  0.9162841534937839  0.3752221260479871  0.5505956018207315  1.0000
  H   H18       1.0  0.920874318620143  0.38859920330569514  0.4463649144722695  1.0000
  H   H19       1.0  0.13610032523132526  0.3837879851953758  0.4543434820053705  1.0000
  H   H20       1.0  0.3032149032192207  0.726591808960535  0.701468416046211  1.0000
  H   H21       1.0  0.45600807811331373  0.6812697444635133  0.7171316723166969  1.0000
  H   H22       1.0  0.35684963120502283  0.7027261732283991  0.8008796752500091  1.0000
  H   H23       1.0  0.9215384166065307  0.5029098261652083  0.6347622702466043  1.0000
  H   H24       1.0  0.1586652687204193  0.31205651925543526  0.10438185202878712  1.0000
  H   H25       1.0  0.24957562356630794  0.35682499686387814  0.0244183221849923  1.0000
  H   H26       1.0  0.1575116851150824  0.4243993196963842  0.08568234335797341  1.0000
  H   H27       1.0  0.13291163248494797  0.5248914653183834  0.6291485772091719  1.0000
  H   H28       1.0  0.2914334134782449  0.5809036411758937  0.8889311172962737  1.0000
  H   H29       1.0  0.39797279542488445  0.6460602011801627  0.1005024945315398  1.0000
  H   H30       1.0  0.4692483618775967  0.6506132881538633  0.24274631656745538  1.0000
  H   H31       1.0  0.5305580154407606  0.35207310582467244  0.7566522357926432  1.0000
  H   H32       1.0  0.49084850598082846  0.3409776842419704  0.9045566643396654  1.0000
  C   C1        1.0  0.5013002076240411  0.5146149438726438  0.34767960852192914  1.0000
  C   C2        1.0  0.44153746738790295  0.592247889263689  0.21789329866760454  1.0000
  C   C3        1.0  0.34560986563374746  0.5316005722047024  0.8599764807821657  1.0000
  C   C4        1.0  0.7545327960524231  0.5060859277005535  0.5095299675882573  1.0000
  C   C5        1.0  0.3666024894465565  0.5370551652583161  0.7782766520315152  1.0000
  C   C6        1.0  0.39382336925162054  0.461728869124947  0.9054606817894426  1.0000
  C   C7        1.0  0.43845154361677163  0.47367332921226074  0.7410572029260296  1.0000
  C   C8        1.0  0.47907020147933815  0.4018958155979959  0.786681244693398  1.0000
  C   C9        1.0  0.45706155947799937  0.3953726423972982  0.8679879843135296  1.0000
  C   C10       1.0  0.45309723190838713  0.2413296188731735  0.5328284261076917  1.0000
  C   C11       1.0  0.45773058003511113  0.15403449950866843  0.5320529281721847  1.0000
  C   C12       1.0  0.13521382080203637  0.5081584354986647  0.5014767544907885  1.0000
  C   C13       1.0  0.5459944975848288  0.11446548670510033  0.483479235213224  1.0000
  C   C14       1.0  0.6253311165830554  0.1637567250858751  0.43737753884423825  1.0000
  C   C15       1.0  0.6132245797675607  0.2511125597532314  0.44099152837449657  1.0000
  C   C16       1.0  0.4752991766929284  0.4809787869139868  0.6551386424426087  1.0000
  C   C17       1.0  0.6061399449904811  0.8530264876176475  0.5001379779823267  1.0000
  C   C18       1.0  0.6082900353033975  0.7654941314953804  0.5022813667387922  1.0000
  C   C19       1.0  0.49222890102262074  0.8966408652223166  0.5092274235385759  1.0000
  C   C20       1.0  0.39601518032471  0.7634951758948957  0.5214585572429515  1.0000
  C   C21       1.0  0.3859463265389992  0.8510509237693425  0.5212661469636332  1.0000
  C   C22       1.0  0.2750167655004531  0.5118483658117795  0.4971837467670286  1.0000
  C   C23       1.0  0.0857196019179582  0.5522450512683009  0.5758136128161767  1.0000
  C   C24       1.0  0.9365200595967166  0.5591867746875606  0.4339421020899438  1.0000
  C   C25       1.0  0.0786882922263388  0.5551652199267066  0.4271108822794432  1.0000
  C   C26       1.0  0.9446159776093025  0.5436597094072156  0.5827397893079438  1.0000
  C   C27       1.0  0.9519328131588692  0.41529396059625173  0.5016743871180369  1.0000
  C   C28       1.0  0.8950720230319932  0.505136243383106  0.507064956975654  1.0000
  C   C29       1.0  0.36038583411295383  0.6825309887900205  0.7390429009115352  1.0000
  C   C30       1.0  0.2140558222175599  0.36526468259464207  0.0849013455299215  1.0000
  C   C31       1.0  0.09398252203968842  0.41675776714002677  0.5042821706569927  1.0000
  C   C32       1.0  0.45209175168294974  0.5166458346332163  0.26444990558918857  1.0000
  C   C33       1.0  0.41056713108434906  0.44231751923615553  0.2348748288298809  1.0000
  C   C34       1.0  0.3622190553133606  0.4401168158695725  0.15819960248078505  1.0000
  C   C35       1.0  0.36704767470461525  0.5140275209255806  0.10709520044030543  1.0000
  C   C36       1.0  0.3997723513848683  0.590100801852067  0.1404669124540447  1.0000
  N   N1        1.0  0.3587386297934998  0.5201950966813768  0.023875739378631505  1.0000
  N   N2        1.0  0.38738132891625554  0.4524287465387431  0.9891436404341224  1.0000
  N   N3        1.0  0.5294958539209488  0.28862107917295543  0.48824861953476545  1.0000
  N   N4        1.0  0.5630382795831536  0.025578115841533102  0.47919558330388423  1.0000
  N   N5        1.0  0.47525891778700924  0.9854614891924457  0.509371305160741  1.0000
  N   N6        1.0  0.5051702480651983  0.7218465590203849  0.5121939871345234  1.0000
  O   O1        1.0  0.49878890457776476  0.5838759752227317  0.38312763774564473  1.0000
  O   O2        1.0  0.31327413989693287  0.36576962150002157  0.14048852923661312  1.0000
  O   O3        1.0  0.5395717918986095  0.44288313599378165  0.3770691894013468  1.0000
  O   O4        1.0  0.6977414454883898  0.5781832970623311  0.5054552568130148  1.0000
  O   O5        1.0  0.7031674224346319  0.43559006758612634  0.5149802021180891  1.0000
  O   O6        1.0  0.5025988495830304  0.553262723726064  0.6267236250559521  1.0000
  O   O7        1.0  0.480129066927425  0.412580438868595  0.6180268745558096  1.0000
  O   O8        1.0  0.3212471887000987  0.5827719560843149  0.5082996171721563  1.0000
  O   O9        1.0  0.33632178113232675  0.44431947324734017  0.4821871727028154  1.0000
  O   O10       1.0  0.309758236493586  0.6014260985437405  0.7323943234867019  1.0000
