data_image0
_chemical_formula_structural       Sr2H22Pt2C38N14
_chemical_formula_sum              "Sr2 H22 Pt2 C38 N14"
_cell_length_a       8.689447428516193
_cell_length_b       8.689507172209495
_cell_length_c       13.480478742292961
_cell_angle_alpha    80.48706572357084
_cell_angle_beta     80.48740801669847
_cell_angle_gamma    75.33524782002996

_space_group_name_H-M_alt    "P 1"
_space_group_IT_number       1

loop_
  _space_group_symop_operation_xyz
  'x, y, z'

loop_
  _atom_site_type_symbol
  _atom_site_label
  _atom_site_symmetry_multiplicity
  _atom_site_fract_x
  _atom_site_fract_y
  _atom_site_fract_z
  _atom_site_occupancy
  Sr  Sr1       1.0  0.8942209706649463  0.1057783051391752  0.250000894982044  1.0000
  Sr  Sr2       1.0  0.10577094407756958  0.8942254836111871  0.7499991263206311  1.0000
  H   H1        1.0  0.273268816768784  0.7267349821739089  0.2499997249455603  1.0000
  H   H2        1.0  0.7267332897019754  0.2732653048660012  0.7500010446624826  1.0000
  H   H3        1.0  0.3148283640539304  0.5331688622025439  0.4052833441006669  1.0000
  H   H4        1.0  0.4668337759284142  0.6851746578473127  0.09471537081078907  1.0000
  H   H5        1.0  0.6851708076419171  0.4668289728713119  0.5947150502989089  1.0000
  H   H6        1.0  0.5331686274194071  0.3148292388194561  0.9052849693879139  1.0000
  H   H7        1.0  0.3355180029266975  0.36323342891221705  0.5176022555935589  1.0000
  H   H8        1.0  0.6367701827397383  0.6644825848396962  0.9823972250800564  1.0000
  H   H9        1.0  0.6644785584926254  0.6367607899362541  0.48239904872009026  1.0000
  H   H10       1.0  0.36323802178912246  0.3355213459866491  0.017599506378473996  1.0000
  H   H11       1.0  0.39437345692715553  0.1691321558257428  0.6704344987690476  1.0000
  H   H12       1.0  0.8308717507132142  0.6056269000312611  0.8295662929871455  1.0000
  H   H13       1.0  0.6056257221815782  0.8308608851753193  0.3295666472805152  1.0000
  H   H14       1.0  0.16914170940290055  0.39437469528686353  0.17043308482509192  1.0000
  H   H15       1.0  0.6592182524053384  0.9646305961212673  0.6655413192285734  1.0000
  H   H16       1.0  0.03537147538266076  0.34078047156137364  0.8344593866116767  1.0000
  H   H17       1.0  0.3407812235804569  0.0353660545066603  0.3344593974116492  1.0000
  H   H18       1.0  0.9646399554154995  0.6592199125257138  0.16554183106404713  1.0000
  H   H19       1.0  0.8446167965389151  0.959539202213783  0.5034753050461872  1.0000
  H   H20       1.0  0.04045588567105799  0.1553806931792749  0.9965252544210301  1.0000
  H   H21       1.0  0.1553844347875568  0.04045987437101672  0.4965256938127424  1.0000
  H   H22       1.0  0.9595465149854262  0.844618399321412  0.003476355986712983  1.0000
  Pt  Pt1       1.0  0.4999939721699391  3.0161138440009267e-06  7.236146565486501e-06  1.0000
  Pt  Pt2       1.0  2.2820783839783927e-06  0.500002487888196  0.4999923450954284  1.0000
  C   C1        1.0  0.6343103686008363  0.9791115587795572  0.10847328474963548  1.0000
  C   C2        1.0  0.0208922762459096  0.36568476111301607  0.39152439435498115  1.0000
  C   C3        1.0  0.36567437238290507  0.0208934652742769  0.8915422259131844  1.0000
  C   C4        1.0  0.9791102798285395  0.6343177997083346  0.6084560464702236  1.0000
  C   C5        1.0  0.3758461346228045  0.624156613359375  0.2499993323338288  1.0000
  C   C6        1.0  0.6241562508773412  0.37584246400135873  0.7500000559124942  1.0000
  C   C7        1.0  0.39947684524571514  0.5149885910981028  0.3368377833051426  1.0000
  C   C8        1.0  0.4850131079464859  0.6005264187883483  0.16316050065218224  1.0000
  C   C9        1.0  0.6005234957801376  0.48500925989164045  0.6631612226432537  1.0000
  C   C10       1.0  0.5149860866491452  0.39947624063820086  0.8368395864202468  1.0000
  C   C11       1.0  0.5324917678378044  0.3837734863230864  0.33486727212085293  1.0000
  C   C12       1.0  0.6162262980371621  0.46750895220213107  0.1651321039164557  1.0000
  C   C13       1.0  0.46750741396226636  0.6162243588440646  0.6651326037196768  1.0000
  C   C14       1.0  0.38377346472147184  0.5324912979593607  0.8348667018734871  1.0000
  C   C15       1.0  0.5613614181793379  0.2665930515401698  0.4278977673194362  1.0000
  C   C16       1.0  0.7334073127391533  0.43863827553696666  0.07210199052531861  1.0000
  C   C17       1.0  0.43863689352855306  0.733403588218529  0.5721030784924466  1.0000
  C   C18       1.0  0.2665956537195627  0.5613632068181004  0.9278963276704246  1.0000
  C   C19       1.0  0.4492386065494855  0.2743346684699119  0.5158510433479151  1.0000
  C   C20       1.0  0.725668181896715  0.5507630068350765  0.984148128052169  1.0000
  C   C21       1.0  0.5507596950541824  0.7256619611954847  0.48414832102302796  1.0000
  C   C22       1.0  0.27433887351057956  0.449240928261979  0.0158509547394345  1.0000
  C   C23       1.0  0.48150207908064147  0.16526805722073587  0.6021426374235048  1.0000
  C   C24       1.0  0.8347352098110721  0.5184991019621351  0.8978575995145092  1.0000
  C   C25       1.0  0.5184956415644704  0.8347261674503202  0.3978577969980109  1.0000
  C   C26       1.0  0.1652768019456516  0.48150368711927877  0.10214254811063483  1.0000
  C   C27       1.0  0.6267116499178228  0.051052002771271504  0.5996856476451953  1.0000
  C   C28       1.0  0.948948729102085  0.37328894770492843  0.9003155231196017  1.0000
  C   C29       1.0  0.3732892794794793  0.9489434591400112  0.4003150399026012  1.0000
  C   C30       1.0  0.05106124828456871  0.6267126250987971  0.09968572364855531  1.0000
  C   C31       1.0  0.7312007657762719  0.049176090712570904  0.5092635233832681  1.0000
  C   C32       1.0  0.9508219530235419  0.26879735746151573  0.9907377153433073  1.0000
  C   C33       1.0  0.2687998744874136  0.9508205707845931  0.49073706408530166  1.0000
  C   C34       1.0  0.04918365133302417  0.7312029672327469  0.009263407470235973  1.0000
  C   C35       1.0  0.3044562106559566  0.014253755963217398  0.09974402775729628  1.0000
  C   C36       1.0  0.9857449046167728  0.6955396816566264  0.4002563248122896  1.0000
  C   C37       1.0  0.6955331618482532  0.9857416830487724  0.9002705437550773  1.0000
  C   C38       1.0  0.014254779999426074  0.3044652919245578  0.5997293592410743  1.0000
  N   N1        1.0  0.7170244179185729  0.968618688500037  0.17087590291880156  1.0000
  N   N2        1.0  0.031385869308671495  0.2829750171406502  0.3291266286474936  1.0000
  N   N3        1.0  0.2829620454018452  0.031383927064673904  0.829136715848925  1.0000
  N   N4        1.0  0.9686164784659327  0.7170288240129707  0.6708655636260231  1.0000
  N   N5        1.0  0.6387607454212229  0.3612390974330779  0.24999950882170202  1.0000
  N   N6        1.0  0.36123930647102054  0.6387599531425395  0.7499993970474674  1.0000
  N   N7        1.0  0.7001636867273504  0.1520798554072869  0.4250367922561011  1.0000
  N   N8        1.0  0.8479168691945276  0.29983592825669797  0.0749632095965325  1.0000
  N   N9        1.0  0.29983666945483384  0.8479180107224024  0.5749644358537082  1.0000
  N   N10       1.0  0.15208347957477733  0.7001667319457854  0.9250352668632972  1.0000
  N   N11       1.0  0.18542769218321095  0.0238633097152103  0.15618913321645067  1.0000
  N   N12       1.0  0.9761266003275466  0.8145687009103424  0.3438103494324806  1.0000
  N   N13       1.0  0.8145563762428407  0.9761200119335316  0.8438206768055565  1.0000
  N   N14       1.0  0.023867579984667493  0.18543984813813102  0.6561785139517083  1.0000
