data_image0
_chemical_formula_structural       Cd2H16C16N12O8
_chemical_formula_sum              "Cd2 H16 C16 N12 O8"
_cell_length_a       4.8897272720039755
_cell_length_b       8.74855346966102
_cell_length_c       12.418852212528698
_cell_angle_alpha    91.47756671440871
_cell_angle_beta     90.00004352744423
_cell_angle_gamma    89.9998591993335

_space_group_name_H-M_alt    "P 1"
_space_group_IT_number       1

loop_
  _space_group_symop_operation_xyz
  'x, y, z'

loop_
  _atom_site_type_symbol
  _atom_site_label
  _atom_site_symmetry_multiplicity
  _atom_site_fract_x
  _atom_site_fract_y
  _atom_site_fract_z
  _atom_site_occupancy
  Cd  Cd1       1.0  4.772266706000008e-07  0.999999611066613  0.500000873396651  1.0000
  Cd  Cd2       1.0  0.5000031989491306  0.5000002175971333  0.999998101153622  1.0000
  H   H1        1.0  0.5462020011003902  0.3284723324055889  0.5059087948674303  1.0000
  H   H2        1.0  0.046203556581566815  0.1715285724061246  0.9940894048425902  1.0000
  H   H3        1.0  0.45379730703430704  0.6715300463278452  0.4940897047924154  1.0000
  H   H4        1.0  0.9538018868696411  0.828471519487863  0.005909059545913902  1.0000
  H   H5        1.0  0.25511008161598175  0.2569473356285883  0.3198667668081967  1.0000
  H   H6        1.0  0.7551133254829169  0.2430517895102398  0.18013212473773169  1.0000
  H   H7        1.0  0.7448851363225727  0.7430504783372955  0.6801332729109434  1.0000
  H   H8        1.0  0.24488598265853062  0.7569471545201552  0.8198655167116797  1.0000
  H   H9        1.0  0.3376866040659366  0.5452681411222573  0.2730212777589429  1.0000
  H   H10       1.0  0.8376849139804321  0.9547301656712083  0.2269798173432918  1.0000
  H   H11       1.0  0.6623147491823858  0.4547308207072193  0.7269795848992828  1.0000
  H   H12       1.0  0.16231234906021547  0.0452687961610465  0.7730210453143584  1.0000
  H   H13       1.0  0.0858706716812208  0.679574275553293  0.3191849514517031  1.0000
  H   H14       1.0  0.5858694855509299  0.8204243691845718  0.1808152684422311  1.0000
  H   H15       1.0  0.9141286364650086  0.32042353840981264  0.6808150882680052  1.0000
  H   H16       1.0  0.414125732384136  0.17957574051683173  0.8191864171533751  1.0000
  C   C1        1.0  0.7163484119830914  0.3470589393724808  0.4514525067969899  1.0000
  C   C2        1.0  0.21634919890630044  0.15294138634013876  0.0485471969262647  1.0000
  C   C3        1.0  0.2836488510535418  0.6529411569771854  0.5485467628925065  1.0000
  C   C4        1.0  0.7836521543412545  0.8470575710392225  0.951452860429832  1.0000
  C   C5        1.0  0.076582667792664  0.3073095659254292  0.3581424468695644  1.0000
  C   C6        1.0  0.576581970404071  0.19269095427820562  0.1418580233554607  1.0000
  C   C7        1.0  0.9234166403510644  0.6926893914553177  0.6418576104862481  1.0000
  C   C8        1.0  0.4234193828392421  0.8073102943865538  0.8581428745749661  1.0000
  C   C9        1.0  0.11714665382506695  0.5673616899741774  0.2792064009343704  1.0000
  C   C10       1.0  0.6171470944329089  0.9326369122365323  0.2207938276422681  1.0000
  C   C11       1.0  0.8828546994217347  0.43263726295506194  0.7207928511195901  1.0000
  C   C12       1.0  0.3828501686059981  0.06736319746347873  0.7792078579536151  1.0000
  C   C13       1.0  0.9881685282324144  0.5729140713864779  0.1664233976659233  1.0000
  C   C14       1.0  0.488168650703365  0.9270851697625633  0.33357695154558803  1.0000
  C   C15       1.0  0.011828734804211602  0.42708602496318093  0.8335758720235731  1.0000
  C   C16       1.0  0.5118265672309478  0.0729149354887255  0.6664239287478821  1.0000
  N   N1        1.0  0.9045431739625515  0.2369986649034957  0.4244263431513602  1.0000
  N   N2        1.0  0.4045414821777271  0.2630025483394789  0.075573430452117  1.0000
  N   N3        1.0  0.09545817928000133  0.7630025793111485  0.5755737494769377  1.0000
  N   N4        1.0  0.595459871065053  0.7369975391071719  0.9244242286336829  1.0000
  N   N5        1.0  0.9944126673076497  0.45255657305955305  0.3463919451980003  1.0000
  N   N6        1.0  0.4944120747565251  0.04744337456921951  0.1536078357180557  1.0000
  N   N7        1.0  0.005586640831296601  0.5474435143884834  0.6536057138875151  1.0000
  N   N8        1.0  0.505583143181049  0.9525555917145497  0.8463938322414464  1.0000
  N   N9        1.0  0.7632218548044137  0.47985930374298386  0.404959744342662  1.0000
  N   N10       1.0  0.2632233159176068  0.020140953785094996  0.0950391670910236  1.0000
  N   N11       1.0  0.23677745333203148  0.520141927122694  0.5950379323789576  1.0000
  N   N12       1.0  0.7367739471197796  0.9798591470146863  0.9049609079006017  1.0000
  O   O1        1.0  0.13348468018105564  0.6262491264087515  0.0923052457888645  1.0000
  O   O2        1.0  0.633481646953527  0.8737517448748591  0.4076958278972  1.0000
  O   O3        1.0  0.8665248534718372  0.37375440463560483  0.9076948821127644  1.0000
  O   O4        1.0  0.36651766119498325  0.1262460824385983  0.5923066277289024  1.0000
  O   O5        1.0  0.7412775482113078  0.5285839506192359  0.1587075079018518  1.0000
  O   O6        1.0  0.24127748998426315  0.971415626228314  0.3412927727706077  1.0000
  O   O7        1.0  0.25872585012954374  0.471418419211183  0.8412893811543043  1.0000
  O   O8        1.0  0.7587238632670933  0.028583353401629107  0.6587113110961411  1.0000
