data_image0
_chemical_formula_structural       Cu2H16C16N8O8
_chemical_formula_sum              "Cu2 H16 C16 N8 O8"
_cell_length_a       8.198292834536883
_cell_length_b       8.198315878626016
_cell_length_c       9.193039484041186
_cell_angle_alpha    85.31133703480106
_cell_angle_beta     85.31127806275407
_cell_angle_gamma    80.88620271944293

_space_group_name_H-M_alt    "P 1"
_space_group_IT_number       1

loop_
  _space_group_symop_operation_xyz
  'x, y, z'

loop_
  _atom_site_type_symbol
  _atom_site_label
  _atom_site_symmetry_multiplicity
  _atom_site_fract_x
  _atom_site_fract_y
  _atom_site_fract_z
  _atom_site_occupancy
  Cu  Cu1       1.0  0.6583563326555578  0.34164325621217967  0.7500003035914348  1.0000
  Cu  Cu2       1.0  0.3416495137961634  0.6583516253796872  0.24999978231483774  1.0000
  H   H1        1.0  0.1979047272676908  0.20790544867521282  0.027874381155306986  1.0000
  H   H2        1.0  0.79209842118604  0.8020950045552124  0.47212714961535346  1.0000
  H   H3        1.0  0.8020985271648228  0.7920980949794865  0.9721252565074537  1.0000
  H   H4        1.0  0.2078960261857787  0.19790229275073293  0.5278714241136273  1.0000
  H   H5        1.0  0.8612255603819605  0.18082686460680006  0.030778405663788512  1.0000
  H   H6        1.0  0.819180871364331  0.1387714380775051  0.46922605336334305  1.0000
  H   H7        1.0  0.13877569221801883  0.8191816294002121  0.969224277607005  1.0000
  H   H8        1.0  0.18081499558328315  0.8612246285204462  0.5307735941986991  1.0000
  H   H9        1.0  0.2627895157004829  0.35902603825519447  0.7755192312463707  1.0000
  H   H10       1.0  0.6409722586944326  0.7372099999853601  0.7244805393543319  1.0000
  H   H11       1.0  0.7372114897671126  0.6409762551049735  0.224481752601811  1.0000
  H   H12       1.0  0.35902321592824643  0.26278854221967396  0.2755178665865827  1.0000
  H   H13       1.0  0.005168223611207193  0.43850630493269444  0.636826567022112  1.0000
  H   H14       1.0  0.5614907775804878  0.9948304773381124  0.8631734761926639  1.0000
  H   H15       1.0  0.9948342014321836  0.5614947577194798  0.3631754906591241  1.0000
  H   H16       1.0  0.43851017748362864  0.0051643781383746  0.13682697285008064  1.0000
  C   C1        1.0  0.47609248250332575  0.418765202266293  0.040982470299802294  1.0000
  C   C2        1.0  0.5812350177930057  0.5239065497029073  0.4590160937946237  1.0000
  C   C3        1.0  0.5239047046996248  0.5812457432276688  0.9590148932492826  1.0000
  C   C4        1.0  0.41875311974825985  0.4760919533290533  0.5409828568510023  1.0000
  C   C5        1.0  0.10700189275684832  0.25001380122325395  0.9487094789673877  1.0000
  C   C6        1.0  0.7499912319056747  0.8929971682119553  0.551294195931554  1.0000
  C   C7        1.0  0.8929964736865939  0.7499897197162679  0.0512937846715502  1.0000
  C   C8        1.0  0.2500077167945208  0.10700263308324758  0.4487049482662897  1.0000
  C   C9        1.0  0.9412507806463281  0.2380296097228936  0.9490426174979092  1.0000
  C   C10       1.0  0.7619768867704407  0.05874672183703918  0.550961844016598  1.0000
  C   C11       1.0  0.05875086314573247  0.7619764075436419  0.05096021978077661  1.0000
  C   C12       1.0  0.23801878458112924  0.9412505831311505  0.4490377265414907  1.0000
  C   C13       1.0  0.009317539756501991  0.3717764745319271  0.7434903663135373  1.0000
  C   C14       1.0  0.6282236908823009  0.9906823322293616  0.7565104247338256  1.0000
  C   C15       1.0  0.9906824373273931  0.6282245727957585  0.2565096977094684  1.0000
  C   C16       1.0  0.37177790024058766  0.0093162448866906  0.2434897025129601  1.0000
  N   N1        1.0  0.8825440711458724  0.31461857650266706  0.8201950726180272  1.0000
  N   N2        1.0  0.6853845053803906  0.11745369171246269  0.6798064077547397  1.0000
  N   N3        1.0  0.11745693432173002  0.6853837168575081  0.17980591123014733  1.0000
  N   N4        1.0  0.31461728133853467  0.8825436470333511  0.32019379649599244  1.0000
  N   N5        1.0  0.1468707438731371  0.3345821862932609  0.8184732181648045  1.0000
  N   N6        1.0  0.665418131022733  0.853128793718568  0.6815275227176089  1.0000
  N   N7        1.0  0.8531314833085233  0.6654201124623498  0.1815265872860152  1.0000
  N   N8        1.0  0.33457895877178595  0.14686727940821948  0.3184720340603136  1.0000
  O   O1        1.0  0.5161380945901611  0.28394575631457997  0.9829154227028525  1.0000
  O   O2        1.0  0.7160540974347996  0.48386003704784025  0.517083127749615  1.0000
  O   O3        1.0  0.4838694027098854  0.7160540793485309  0.01707220987380959  1.0000
  O   O4        1.0  0.2839464250965023  0.5161298663526421  0.48292533338567983  1.0000
  O   O5        1.0  0.39577385261683423  0.434898351146856  0.16619834949228363  1.0000
  O   O6        1.0  0.5651012611404056  0.6042277510399003  0.33380010472052396  1.0000
  O   O7        1.0  0.6042261131386084  0.5651026848468347  0.833790838398386  1.0000
  O   O8        1.0  0.4348968649677331  0.39576957605317625  0.6662079851752055  1.0000
