data_image0
_chemical_formula_structural       Cu4H16C28S4N12O4
_chemical_formula_sum              "Cu4 H16 C28 S4 N12 O4"
_cell_length_a       5.067781283906469
_cell_length_b       8.484765142461463
_cell_length_c       19.572222577168773
_cell_angle_alpha    87.80007281581034
_cell_angle_beta     82.56848345661277
_cell_angle_gamma    72.60062449892347

_space_group_name_H-M_alt    "P 1"
_space_group_IT_number       1

loop_
  _space_group_symop_operation_xyz
  'x, y, z'

loop_
  _atom_site_type_symbol
  _atom_site_label
  _atom_site_symmetry_multiplicity
  _atom_site_fract_x
  _atom_site_fract_y
  _atom_site_fract_z
  _atom_site_occupancy
  Cu  Cu1       1.0  0.5228772230089124  0.5563453337688385  0.9486427706561003  1.0000
  Cu  Cu2       1.0  0.027351299508538207  0.44418513125163633  0.051344317609341814  1.0000
  Cu  Cu3       1.0  0.8283680868127586  0.9443452723951752  0.4486787066682539  1.0000
  Cu  Cu4       1.0  0.22157915376176626  0.0560926331330123  0.5512907118136852  1.0000
  H   H1        1.0  0.7364772708339664  0.8097172693294681  0.9935679844168134  1.0000
  H   H2        1.0  0.5415602481534166  0.1907600409230668  0.0063346205328898226  1.0000
  H   H3        1.0  0.29704778583753466  0.6906344887658946  0.4936792289353562  1.0000
  H   H4        1.0  0.4789878569639114  0.30992833150730087  0.5064107903443685  1.0000
  H   H5        1.0  0.022502142455565043  0.0594898542867099  0.8159734823981424  1.0000
  H   H6        1.0  0.895960601446113  0.9387675966252969  0.18404428902137235  1.0000
  H   H7        1.0  0.8296064674652183  0.4385900999587308  0.31598905733066834  1.0000
  H   H8        1.0  0.588623977445728  0.5592845676385139  0.6840473076163534  1.0000
  H   H9        1.0  0.9834504432839141  0.013727611609383001  0.9427190327728779  1.0000
  H   H10       1.0  0.9404902311904808  0.986137173744673  0.05738160385199366  1.0000
  H   H11       1.0  0.7471521158439529  0.4858931034636598  0.4426667910683264  1.0000
  H   H12       1.0  0.6754656076096666  0.5137136673227687  0.5572894793984702  1.0000
  H   H13       1.0  0.5885332158571187  0.6947437238881662  0.8017040287042221  1.0000
  H   H14       1.0  0.08461706251566173  0.3058453128222709  0.1980373227399213  1.0000
  H   H15       1.0  0.03283098646367952  0.8060992462189062  0.3018994573724569  1.0000
  H   H16       1.0  0.14021561757724757  0.19462823026940868  0.69830431744262  1.0000
  C   C1        1.0  0.782685600287195  0.8916181871662943  0.6161790821815246  1.0000
  C   C2        1.0  0.2894361648916118  0.10863515286700927  0.3837645707429758  1.0000
  C   C3        1.0  0.4235826266417251  0.6085012105184049  0.11622100820937223  1.0000
  C   C4        1.0  0.14861149801953416  0.3918496790631138  0.8838129163558434  1.0000
  C   C5        1.0  0.7614629153334539  0.8331379412892519  0.9382833339872718  1.0000
  C   C6        1.0  0.5335527919746924  0.16711476405664877  0.06162848777464802  1.0000
  C   C7        1.0  0.3445582194563528  0.667021582694673  0.43838836766941824  1.0000
  C   C8        1.0  0.4488127785650918  0.33324371894881477  0.561712621332866  1.0000
  C   C9        1.0  0.9214385447789862  0.9706165347005111  0.8394281509742855  1.0000
  C   C10       1.0  0.7303427621026087  0.028394721753393498  0.16053913944887202  1.0000
  C   C11       1.0  0.6404418242590137  0.528240250943071  0.3394963827482301  1.0000
  C   C12       1.0  0.5106486502645567  0.4705487985350914  0.6605884570312169  1.0000
  C   C13       1.0  0.808670769961296  0.8805847364566546  0.798436554809811  1.0000
  C   C14       1.0  0.48651352350986343  0.1189800316816374  0.20143414080218494  1.0000
  C   C15       1.0  0.4378242843164839  0.618942546595278  0.2985684946917431  1.0000
  C   C16       1.0  0.3568748494669408  0.3805568764232207  0.7015646175593204  1.0000
  C   C17       1.0  0.8982329648218866  0.9451019090866097  0.9100627130433877  1.0000
  C   C18       1.0  0.7533129062338376  0.05457876624530661  0.08993826570474543  1.0000
  C   C19       1.0  0.5926823787885946  0.5544265789963916  0.4100942780620116  1.0000
  C   C20       1.0  0.5575453079072686  0.4451356920849676  0.5899453156176904  1.0000
  C   C21       1.0  0.675453741244148  0.770014627543972  0.8308415623948449  1.0000
  C   C22       1.0  0.27593996969027057  0.2302365360478476  0.16895367884310283  1.0000
  C   C23       1.0  0.19480267875160695  0.7303574249673161  0.3310221590140899  1.0000
  C   C24       1.0  0.25603227702605846  0.26998405155225674  0.6691578308395593  1.0000
  C   C25       1.0  0.8388981630986474  0.9027504980386567  0.724358498527252  1.0000
  C   C26       1.0  0.46469038838132093  0.09719722758561028  0.2755447811313303  1.0000
  C   C27       1.0  0.4903393683677352  0.5970894232195575  0.22446724898114923  1.0000
  C   C28       1.0  0.31317105106830245  0.40270396393875535  0.7756408485312675  1.0000
  S   S1        1.0  0.6491463343805038  0.8477009247894003  0.5463374322885527  1.0000
  S   S2        1.0  0.04257752442366317  0.15271153274697008  0.4536710630353086  1.0000
  S   S3        1.0  0.24656853384959015  0.6525227381106191  0.046326769989462925  1.0000
  S   S4        1.0  0.9452882115503204  0.3479243011408498  0.9536343243279147  1.0000
  N   N1        1.0  0.9627958191464007  0.9757069817153975  0.6211366960945028  1.0000
  N   N2        1.0  0.5588345744619901  0.024824953628048305  0.37881720409018266  1.0000
  N   N3        1.0  0.6880658274518154  0.5247810860238715  0.12119393539472163  1.0000
  N   N4        1.0  0.33379443675191617  0.47584096901587003  0.8788556443651955  1.0000
  N   N5        1.0  0.6526952789882399  0.7465124263198748  0.8995112970842669  1.0000
  N   N6        1.0  0.29906204976255424  0.2539585219696647  0.10029003510111782  1.0000
  N   N7        1.0  0.14901514414484762  0.7540383037019253  0.3996877706364899  1.0000
  N   N8        1.0  0.3016427899358334  0.2464810358690031  0.6004827883864934  1.0000
  N   N9        1.0  0.996524309014731  0.9824858065530081  0.6898408477152246  1.0000
  N   N10       1.0  0.6678448413705952  0.017939056714695305  0.3100979898887672  1.0000
  N   N11       1.0  0.7281867078806882  0.5178849904895914  0.18992476057547952  1.0000
  N   N12       1.0  0.4364134906717396  0.48240399926444877  0.8101576372802057  1.0000
  O   O1        1.0  0.6986922104141018  0.840194821547705  0.681820459814837  1.0000
  O   O2        1.0  0.21933207536049784  0.15972621982686522  0.31809280177676413  1.0000
  O   O3        1.0  0.2876505380059412  0.6595316743428938  0.18188113253996363  1.0000
  O   O4        1.0  0.13026301911290972  0.34033134050317676  0.8181581694577317  1.0000
