data_image0
_chemical_formula_structural       Fe6H18C42O18
_chemical_formula_sum              "Fe6 H18 C42 O18"
_cell_length_a       6.681054920531836
_cell_length_b       21.98583705774254
_cell_length_c       21.99028487792761
_cell_angle_alpha    120.00480741806477
_cell_angle_beta     89.9986581959644
_cell_angle_gamma    90.01820317105236

_space_group_name_H-M_alt    "P 1"
_space_group_IT_number       1

loop_
  _space_group_symop_operation_xyz
  'x, y, z'

loop_
  _atom_site_type_symbol
  _atom_site_label
  _atom_site_symmetry_multiplicity
  _atom_site_fract_x
  _atom_site_fract_y
  _atom_site_fract_z
  _atom_site_occupancy
  Fe  Fe1       1.0  0.8509368677325712  0.6640960974815542  0.29091603466380905  1.0000
  Fe  Fe2       1.0  0.1844012325722915  0.6268226301227601  0.33586054296796425  1.0000
  Fe  Fe3       1.0  0.5176953836353988  0.7090452096233762  0.3731795824400451  1.0000
  Fe  Fe4       1.0  0.1490660697584403  0.33589910319253835  0.6268269109004835  1.0000
  Fe  Fe5       1.0  0.4823044852527474  0.29094669818321955  0.6641396888577447  1.0000
  Fe  Fe6       1.0  0.8156013433429123  0.37317490187940877  0.7090426056688202  1.0000
  H   H1        1.0  0.5688261546849489  0.5407809697162094  0.08772747136897158  1.0000
  H   H2        1.0  0.9031875621620031  0.5469924105430053  0.45918182610935093  1.0000
  H   H3        1.0  0.2359115510154552  0.9123438656088041  0.4531821731489601  1.0000
  H   H4        1.0  0.43119207948443966  0.45921988324235485  0.5469456131237039  1.0000
  H   H5        1.0  0.7640809894494112  0.08764834981121784  0.5408507258098396  1.0000
  H   H6        1.0  0.09682351500507022  0.45301712741090944  0.9121905620287623  1.0000
  H   H7        1.0  0.991629997528797  0.4500993245740404  0.005043293056935753  1.0000
  H   H8        1.0  0.32614456152654725  0.55480756559556  0.549786007173239  1.0000
  H   H9        1.0  0.6588177213156996  0.9949203517149459  0.4450805049151188  1.0000
  H   H10       1.0  0.0083701403592613  0.5499179016514902  0.5549553076197286  1.0000
  H   H11       1.0  0.34115763807313465  0.005077378599651215  0.4501497010308029  1.0000
  H   H12       1.0  0.6738673809209316  0.44519968335436727  0.9949739345468274  1.0000
  H   H13       1.0  0.857150390778422  0.506215769888513  0.12592696449733157  1.0000
  H   H14       1.0  0.19151008089087898  0.6195987449505795  0.49377894504372233  1.0000
  H   H15       1.0  0.5244236501806938  0.8739790931966239  0.3802367787438215  1.0000
  H   H16       1.0  0.1428441550995885  0.4937946409530554  0.619717867085683  1.0000
  H   H17       1.0  0.4755565321499802  0.12601647554518536  0.5062483382984624  1.0000
  H   H18       1.0  0.8084891496559408  0.38040534874868825  0.8741774706264638  1.0000
  C   C1        1.0  0.1361111046410528  0.5521610136891439  0.17617900626122227  1.0000
  C   C2        1.0  0.4702515612950222  0.6240260856566594  0.44785670761229585  1.0000
  C   C3        1.0  0.8032997435886459  0.823775001076939  0.37592305974569507  1.0000
  C   C4        1.0  0.8638963232838748  0.4478423254297113  0.6240172469285241  1.0000
  C   C5        1.0  0.1966908242398375  0.17621836303487723  0.5521578087630274  1.0000
  C   C6        1.0  0.5297513413132506  0.3759739455048603  0.8238294509019113  1.0000
  C   C7        1.0  0.3417139398743458  0.5609743101636938  0.1638035156956691  1.0000
  C   C8        1.0  0.6758176918940819  0.602848961635793  0.4390304014669156  1.0000
  C   C9        1.0  0.0088574882424197  0.836183524560191  0.3971712943452348  1.0000
  C   C10       1.0  0.6582902749877207  0.4390221735398754  0.6028329955160815  1.0000
  C   C11       1.0  0.991137918242508  0.16380988930401227  0.5610010472088193  1.0000
  C   C12       1.0  0.3241716087892854  0.3971582702046131  0.8361863832465275  1.0000
  C   C13       1.0  0.4126957124322388  0.5309008839789726  0.09429819101557517  1.0000
  C   C14       1.0  0.7470512305134634  0.5634187194782001  0.46909903857226726  1.0000
  C   C15       1.0  0.07986450690290779  0.9057103418224699  0.43663580587981715  1.0000
  C   C16       1.0  0.5873201482909707  0.4691038715568467  0.5633986873040513  1.0000
  C   C17       1.0  0.92013053998717  0.09428114786036448  0.5309323398526331  1.0000
  C   C18       1.0  0.2529402575303834  0.4365884252983249  0.9056762357420355  1.0000
  C   C19       1.0  0.2923395664529806  0.4904073021520219  0.03607109223781182  1.0000
  C   C20       1.0  0.6268887560715298  0.5456658367578909  0.5095942692221983  1.0000
  C   C21       1.0  0.9595636196760609  0.963926498166714  0.45432254071783973  1.0000
  C   C22       1.0  0.7076642263711292  0.5095994136662654  0.5456724484144929  1.0000
  C   C23       1.0  0.0404248170479278  0.03606809117908226  0.4903957948332049  1.0000
  C   C24       1.0  0.3731229144649005  0.45434746750201044  0.9639365595206685  1.0000
  C   C25       1.0  0.08954813555289581  0.4825590022296994  0.04927114976071326  1.0000
  C   C26       1.0  0.4240646461908923  0.5666514819545512  0.5174135457510901  1.0000
  C   C27       1.0  0.7567976397330369  0.9507036434516466  0.43326770110881113  1.0000
  C   C28       1.0  0.910458845616688  0.517457295187384  0.5667169645580189  1.0000
  C   C29       1.0  0.24318142062896445  0.04928782116491698  0.482559092805964  1.0000
  C   C30       1.0  0.5759457255972293  0.43334840666863506  0.9507457411762275  1.0000
  C   C31       1.0  0.01360929333066  0.5129201824162025  0.11663944640119446  1.0000
  C   C32       1.0  0.3479354297446661  0.6036779711356459  0.4870725085515417  1.0000
  C   C33       1.0  0.6808313436564292  0.8833084000464239  0.39623027979320824  1.0000
  C   C34       1.0  0.9864116588003782  0.48708354595925824  0.6037298045030397  1.0000
  C   C35       1.0  0.31915845146204463  0.11668814797249641  0.5129223149507354  1.0000
  C   C36       1.0  0.6520577203020609  0.3963313720909267  0.8834033385306697  1.0000
  C   C37       1.0  0.48691248297367207  0.5994190494358875  0.2198982202269308  1.0000
  C   C38       1.0  0.8207036792152352  0.6205038559260317  0.4005524936703965  1.0000
  C   C39       1.0  0.1539183194353981  0.7800868635882311  0.37954236956068166  1.0000
  C   C40       1.0  0.5130874199276221  0.4005758785634652  0.6204803093934714  1.0000
  C   C41       1.0  0.8460777857906264  0.21990162373953118  0.5994725959960121  1.0000
  C   C42       1.0  0.17930269940931962  0.3794958341551505  0.7800509232348888  1.0000
  O   O1        1.0  0.0530096407392193  0.5782593965991367  0.23978259944891536  1.0000
  O   O2        1.0  0.3869469192240517  0.6615340470960261  0.42177752702584576  1.0000
  O   O3        1.0  0.7200761085328793  0.7601730378253323  0.33839278657538335  1.0000
  O   O4        1.0  0.9469969186794742  0.4217379133377648  0.6615241760504561  1.0000
  O   O5        1.0  0.2799223812195422  0.2398218806330162  0.5782308872714808  1.0000
  O   O6        1.0  0.613042938645286  0.3384616240294774  0.7602459452677409  1.0000
  O   O7        1.0  0.44395311584941777  0.6145073566256585  0.2841012819053931  1.0000
  O   O8        1.0  0.7774147825575639  0.6695630018979485  0.3854224113139326  1.0000
  O   O9        1.0  0.11071243670450312  0.7158676667672453  0.33046673591216813  1.0000
  O   O10       1.0  0.5560544333245048  0.38548080399699813  0.6695835467088502  1.0000
  O   O11       1.0  0.8892969407287694  0.28412709455595575  0.6146224919945383  1.0000
  O   O12       1.0  0.22259312871025122  0.33044158311598426  0.7158715322213425  1.0000
  O   O13       1.0  0.657295074512497  0.6173713170879366  0.20818288881999095  1.0000
  O   O14       1.0  0.9910796967037996  0.590873775473611  0.38259348630109014  1.0000
  O   O15       1.0  0.3243230288547281  0.7918045602867636  0.4091726859782981  1.0000
  O   O16       1.0  0.34270641204053476  0.3826322589843512  0.5908189972955995  1.0000
  O   O17       1.0  0.675668268811137  0.2081845362525172  0.6173813097967555  1.0000
  O   O18       1.0  0.008919437113576102  0.40912403894382987  0.7917210241884478  1.0000
