data_image0
_chemical_formula_structural       Zn4H64C88N16O4
_chemical_formula_sum              "Zn4 H64 C88 N16 O4"
_cell_length_a       11.542980302672587
_cell_length_b       13.40712171500881
_cell_length_c       15.412872645714767
_cell_angle_alpha    90.00010738822644
_cell_angle_beta     98.74804175162791
_cell_angle_gamma    90.00005795367622

_space_group_name_H-M_alt    "P 1"
_space_group_IT_number       1

loop_
  _space_group_symop_operation_xyz
  'x, y, z'

loop_
  _atom_site_type_symbol
  _atom_site_label
  _atom_site_symmetry_multiplicity
  _atom_site_fract_x
  _atom_site_fract_y
  _atom_site_fract_z
  _atom_site_occupancy
  Zn  Zn1       1.0  0.11941535552188041  0.9136434442887165  0.5661467364739039  1.0000
  Zn  Zn2       1.0  0.38058379919276325  0.41364347898024784  0.433853251325715  1.0000
  Zn  Zn3       1.0  0.8805832390932976  0.08635644524711948  0.4338533806012563  1.0000
  Zn  Zn4       1.0  0.6194165485958861  0.5863564105558652  0.566146416817311  1.0000
  H   H1        1.0  0.5350249093161992  0.5924303092154518  0.8425944041436892  1.0000
  H   H2        1.0  0.9649757643028563  0.09243056787568799  0.15740550419103266  1.0000
  H   H3        1.0  0.4649771913959455  0.40756958032233104  0.1574061126553588  1.0000
  H   H4        1.0  0.0350237067121455  0.9075700675335838  0.8425953616098525  1.0000
  H   H5        1.0  0.7077340226155613  0.4667666305557743  0.895429582652298  1.0000
  H   H6        1.0  0.7922663543902002  0.9667664979969003  0.1045696051706386  1.0000
  H   H7        1.0  0.2922663254236539  0.533234004851188  0.1045687879032542  1.0000
  H   H8        1.0  0.2077339930240498  0.033234137413558094  0.8954320093552894  1.0000
  H   H9        1.0  0.8715982496303099  0.3742374331645378  0.8148216429173302  1.0000
  H   H10       1.0  0.6284011076938256  0.8742365862996306  0.185176628835805  1.0000
  H   H11       1.0  0.1284012218840829  0.625762456369692  0.1851766277065749  1.0000
  H   H12       1.0  0.37159836344559233  0.12576330323669538  0.8148235881703342  1.0000
  H   H13       1.0  0.9178349573640291  0.37180125862644786  0.6514586384918246  1.0000
  H   H14       1.0  0.5821643960629289  0.871800723320696  0.3485402776497111  1.0000
  H   H15       1.0  0.08216539067461072  0.6281986309082653  0.3485397320630526  1.0000
  H   H16       1.0  0.4178341983016837  0.1281984203442903  0.6514611370129302  1.0000
  H   H17       1.0  0.9733519562539216  0.36914132951203266  0.4909567017148929  1.0000
  H   H18       1.0  0.5266473930537784  0.8691403456969198  0.5090422096156146  1.0000
  H   H19       1.0  0.026650144333238802  0.6308585600264534  0.509044463878233  1.0000
  H   H20       1.0  0.47335032541155186  0.1308587979640876  0.4909558611456788  1.0000
  H   H21       1.0  0.8859865921648052  0.4590575182492173  0.3380451155948307  1.0000
  H   H22       1.0  0.6140128963787744  0.9590569392119972  0.6619539583543811  1.0000
  H   H23       1.0  0.11401550879674721  0.5409416254149234  0.6619541036153862  1.0000
  H   H24       1.0  0.38598482183599003  0.04094145857816048  0.3380454099943861  1.0000
  H   H25       1.0  0.6996931882762  0.5763927842505153  0.2877512971628136  1.0000
  H   H26       1.0  0.800305707459863  0.07639260272760141  0.7122483823048283  1.0000
  H   H27       1.0  0.3003062831126257  0.42360635941216873  0.7122476222544947  1.0000
  H   H28       1.0  0.1996928870291654  0.9236057950644392  0.2877523835630598  1.0000
  H   H29       1.0  0.5150075813122541  0.6878304329614336  0.23176192374397428  1.0000
  H   H30       1.0  0.9849923636348947  0.1878305319013832  0.7682374084018946  1.0000
  H   H31       1.0  0.4849936431250584  0.3121687107022241  0.7682371955352778  1.0000
  H   H32       1.0  0.0150053543304693  0.8121686117624234  0.2317632575356967  1.0000
  H   H33       1.0  0.34192344852844775  0.7698748975948602  0.3099646468844455  1.0000
  H   H34       1.0  0.158076360083399  0.2698737992041059  0.690035180831849  1.0000
  H   H35       1.0  0.6580777757850241  0.2301257378139852  0.6900351211902276  1.0000
  H   H36       1.0  0.8419213578813896  0.7301245985874446  0.3099654851050672  1.0000
  H   H37       1.0  0.2930125200043392  0.7707648771665347  0.4727327495693459  1.0000
  H   H38       1.0  0.20698728973657413  0.2707649625597739  0.5272683773457486  1.0000
  H   H39       1.0  0.7069887043079744  0.22923426649781212  0.5272670185039771  1.0000
  H   H40       1.0  0.7930113045030467  0.7292341811059087  0.4727336861109707  1.0000
  H   H41       1.0  0.4964177736731159  0.8410338699915981  0.7332418412903934  1.0000
  H   H42       1.0  0.0035830215282785997  0.3410332185232861  0.2667588638462419  1.0000
  H   H43       1.0  0.5035816974668778  0.15896676541697013  0.2667583757164138  1.0000
  H   H44       1.0  0.996417326260371  0.658966671012827  0.7332408042967914  1.0000
  H   H45       1.0  0.37046086916789994  0.8638605449589603  0.7845962885144858  1.0000
  H   H46       1.0  0.12953908498201366  0.3638606379242971  0.21540370918106788  1.0000
  H   H47       1.0  0.629538601971518  0.13613934457735866  0.21540392849164647  1.0000
  H   H48       1.0  0.870461262806643  0.6361392516118158  0.7845959589619653  1.0000
  H   H49       1.0  0.49106595268950315  0.7934488253871094  0.8404116899986676  1.0000
  H   H50       1.0  0.0089338923024158  0.29344869376519966  0.1595888291473173  1.0000
  H   H51       1.0  0.5089343948497388  0.20655181002264558  0.15958927573318965  1.0000
  H   H52       1.0  0.991066455361242  0.7065511957716095  0.8404114877897868  1.0000
  H   H53       1.0  0.34613104113695675  0.6573062181108823  0.863640293496253  1.0000
  H   H54       1.0  0.15386859303708184  0.15730541615082663  0.1363599794277732  1.0000
  H   H55       1.0  0.6538684300036124  0.3426951631699353  0.13635992351122883  1.0000
  H   H56       1.0  0.8461317545021602  0.8426952192589352  0.8636409863040768  1.0000
  H   H57       1.0  0.2272437703182675  0.7213698110992297  0.79980292534529  1.0000
  H   H58       1.0  0.272755963309244  0.2213699953757313  0.2001961658539884  1.0000
  H   H59       1.0  0.7727557011961252  0.2786300784350003  0.20019534527862248  1.0000
  H   H60       1.0  0.7272443843549894  0.7786306400333274  0.7998041510837837  1.0000
  H   H61       1.0  0.2617909760359182  0.5970768990413617  0.7720199527353485  1.0000
  H   H62       1.0  0.23821031792206077  0.09707711319531849  0.2279804111235251  1.0000
  H   H63       1.0  0.738210248151411  0.40292224462368853  0.22798046413205236  1.0000
  H   H64       1.0  0.7617900298671715  0.9029235222130433  0.772019257020176  1.0000
  C   C1        1.0  0.3907503638103265  0.7018046736959177  0.5830122256883286  1.0000
  C   C2        1.0  0.10925021579558353  0.20180592882854137  0.4169882276464207  1.0000
  C   C3        1.0  0.6092508603775785  0.2981952158413819  0.4169881911797475  1.0000
  C   C4        1.0  0.8907492552194186  0.7981947065807301  0.5830126381544644  1.0000
  C   C5        1.0  0.3171892775835802  0.7380660346074562  0.6458336980463599  1.0000
  C   C6        1.0  0.18281223482178893  0.23806647236951756  0.3541662720051946  1.0000
  C   C7        1.0  0.6828119467293164  0.2619338549291469  0.3541660700276381  1.0000
  C   C8        1.0  0.8171881127174531  0.7619341630402373  0.6458346937266626  1.0000
  C   C9        1.0  0.381082229720043  0.7111453933878377  0.7370147537803078  1.0000
  C   C10       1.0  0.11891836447474452  0.21114632543548584  0.2629850676532755  1.0000
  C   C11       1.0  0.6189172414199504  0.2888552420207375  0.2629854632264994  1.0000
  C   C12       1.0  0.8810819833150562  0.7888550558451183  0.7370146004911007  1.0000
  C   C13       1.0  0.47591122608124437  0.6421365627318207  0.7132698024667121  1.0000
  C   C14       1.0  0.024088384727683404  0.14213597200826197  0.286729794228286  1.0000
  C   C15       1.0  0.5240873686589252  0.35786332680331867  0.2867296658143772  1.0000
  C   C16       1.0  0.9759128394590633  0.8578624257845391  0.71327062263844  1.0000
  C   C17       1.0  0.5502767165422997  0.5872434470243418  0.7745830922354386  1.0000
  C   C18       1.0  0.9497239491693963  0.08724309298191457  0.22541615792393097  1.0000
  C   C19       1.0  0.44972363124634995  0.41275644251177107  0.2254165759075875  1.0000
  C   C20       1.0  0.0502763983686947  0.9127560506833486  0.7745848078065761  1.0000
  C   C21       1.0  0.6439049284069326  0.5259007001818502  0.759552939865145  1.0000
  C   C22       1.0  0.8560956423152463  0.025900297396461294  0.2404461993524691  1.0000
  C   C23       1.0  0.35609541950729107  0.47409993522580857  0.2404460794844852  1.0000
  C   C24       1.0  0.1439055816226684  0.974099592142231  0.7595555151037557  1.0000
  C   C25       1.0  0.7181816626400561  0.46971872334246695  0.8265805455036171  1.0000
  C   C26       1.0  0.7818178422873316  0.9697179840458076  0.1734191965208964  1.0000
  C   C27       1.0  0.2818186851486004  0.530281166193646  0.17341912263940878  1.0000
  C   C28       1.0  0.2181825051263431  0.030281905492401496  0.8265824180043566  1.0000
  C   C29       1.0  0.8007589640427141  0.4228816676843436  0.7860049658642154  1.0000
  C   C30       1.0  0.6992404686078757  0.922881690068017  0.2139933938654579  1.0000
  C   C31       1.0  0.19924050747110297  0.5771174759776372  0.21399330475901482  1.0000
  C   C32       1.0  0.30075987905578233  0.07711819946879218  0.7860069230716462  1.0000
  C   C33       1.0  0.7776131119491794  0.45080999940594063  0.6943133356062745  1.0000
  C   C34       1.0  0.722386363948715  0.9508102391833543  0.3056850746335087  1.0000
  C   C35       1.0  0.22238898913909824  0.5491913818742445  0.3056852348118895  1.0000
  C   C36       1.0  0.2776131071918543  0.04919114209746309  0.6943151423739733  1.0000
  C   C37       1.0  0.844944761258141  0.42246159361897634  0.630705103296691  1.0000
  C   C38       1.0  0.6550546707416203  0.9224611661109633  0.3692932556728579  1.0000
  C   C39       1.0  0.1550547100074198  0.5775397876611449  0.3692944649167202  1.0000
  C   C40       1.0  0.34494567717202784  0.07753872342445325  0.6307057636760973  1.0000
  C   C41       1.0  0.8281584458617246  0.45153111634042625  0.5424589667519085  1.0000
  C   C42       1.0  0.6718410310274693  0.9515308933031147  0.4575400935857131  1.0000
  C   C43       1.0  0.1718436548515712  0.548470264941855  0.45754155004848224  1.0000
  C   C44       1.0  0.3281575637127006  0.048468996232024594  0.542459374695369  1.0000
  C   C45       1.0  0.8990016825698605  0.419369066397401  0.47803521436248525  1.0000
  C   C46       1.0  0.6009977443913429  0.9193689206614192  0.5219644366024666  1.0000
  C   C47       1.0  0.1010004182684341  0.5806323148841841  0.5219646536438347  1.0000
  C   C48       1.0  0.39899997345018084  0.0806317147475752  0.47803687813055257  1.0000
  C   C49       1.0  0.8539246165330923  0.46436072331461276  0.40055850822908934  1.0000
  C   C50       1.0  0.6460748802230186  0.964360783371866  0.5994405753118315  1.0000
  C   C51       1.0  0.14607748442961818  0.5356399120940196  0.5994407109824778  1.0000
  C   C52       1.0  0.35392371426773656  0.035639852036915394  0.4005601905580818  1.0000
  C   C53       1.0  0.7545240604846768  0.5230272797286019  0.4171624643611125  1.0000
  C   C54       1.0  0.7454756291386815  0.023026772186419492  0.5828372185227693  1.0000
  C   C55       1.0  0.24547804072859236  0.4769741015508869  0.5828354572629735  1.0000
  C   C56       1.0  0.25452208857727504  0.9769731173510292  0.4171647450036531  1.0000
  C   C57       1.0  0.6797029905355246  0.5774445274967375  0.35468906977575193  1.0000
  C   C58       1.0  0.8202959068284914  0.0774434733458023  0.6453106115932387  1.0000
  C   C59       1.0  0.3202973573792748  0.4225568537831703  0.6453099495745533  1.0000
  C   C60       1.0  0.17970181113744846  0.9225564161902466  0.3546900543450278  1.0000
  C   C61       1.0  0.5799174285490453  0.6308101659008684  0.3677773543868241  1.0000
  C   C62       1.0  0.9200824281011535  0.130809170005044  0.6322218746337853  1.0000
  C   C63       1.0  0.4200802897901426  0.36918748601634377  0.6322213651671902  1.0000
  C   C64       1.0  0.07991967260868191  0.8691877360437485  0.3677786421625626  1.0000
  C   C65       1.0  0.5036650330071525  0.6841973581845834  0.30038695746987537  1.0000
  C   C66       1.0  0.9963357825865912  0.18419508163262321  0.6996137656223524  1.0000
  C   C67       1.0  0.4963379444803735  0.31580402309678113  0.6996123616733384  1.0000
  C   C68       1.0  0.0036619352532057  0.8158033161596306  0.30038754910864185  1.0000
  C   C69       1.0  0.41626612664134643  0.7255858135096319  0.33958689705576717  1.0000
  C   C70       1.0  0.08373449003781272  0.22558458697420036  0.6604123016980807  1.0000
  C   C71       1.0  0.5837359743207814  0.2744140760267583  0.6604123221551248  1.0000
  C   C72       1.0  0.9162641045762072  0.774413810817144  0.3395878153757366  1.0000
  C   C73       1.0  0.43876076101901873  0.6973979176607229  0.4309966642637306  1.0000
  C   C74       1.0  0.06123981176207851  0.19739796664812556  0.569003781100072  1.0000
  C   C75       1.0  0.5612413396913923  0.30259973426032627  0.5690038525332923  1.0000
  C   C76       1.0  0.9387605355266048  0.8026019228907798  0.43099848221925896  1.0000
  C   C77       1.0  0.37004596942741586  0.7250660871142999  0.49437713512681813  1.0000
  C   C78       1.0  0.12995376967422348  0.22506680507479615  0.5056232603460131  1.0000
  C   C79       1.0  0.6299552547599064  0.2749330565507505  0.5056232817405827  1.0000
  C   C80       1.0  0.8700448248153803  0.7749323385894937  0.4943775055225501  1.0000
  C   C81       1.0  0.438490978305019  0.8089360248924391  0.7762338902250718  1.0000
  C   C82       1.0  0.06150889079460601  0.30893682280683515  0.22376600813712594  1.0000
  C   C83       1.0  0.5615084929593905  0.19106386464319058  0.22376567798698943  1.0000
  C   C84       1.0  0.9384914568696346  0.6910638126022235  0.7762343088006531  1.0000
  C   C85       1.0  0.2993400125126229  0.6685591004973971  0.7967889792676104  1.0000
  C   C86       1.0  0.2006605156115171  0.1685592288194755  0.20321141393968387  1.0000
  C   C87       1.0  0.7006603352760337  0.3314407890387159  0.20321068887541568  1.0000
  C   C88       1.0  0.7993407085769634  0.8314414065900734  0.7967890029290672  1.0000
  N   N1        1.0  0.4799899638821827  0.6442644439878292  0.6258920057679589  1.0000
  N   N2        1.0  0.0200096502219154  0.14426403779391708  0.37410759477558736  1.0000
  N   N3        1.0  0.5200103839064667  0.3557354455482836  0.3741076623750672  1.0000
  N   N4        1.0  0.9799898209175029  0.8557358517424088  0.6258926222305448  1.0000
  N   N5        1.0  0.6809953246594772  0.5123250103093681  0.6804129130492099  1.0000
  N   N6        1.0  0.8190043485171328  0.012325491603661497  0.3195861016858572  1.0000
  N   N7        1.0  0.3190041467299238  0.4876748792255583  0.3195860063687733  1.0000
  N   N8        1.0  0.18099775194560408  0.9876751438077631  0.6804157127020146  1.0000
  N   N9        1.0  0.7416449128180957  0.5147974132970815  0.5040650669777591  1.0000
  N   N10       1.0  0.758353887536906  0.014796729869594596  0.4959345010908295  1.0000
  N   N11       1.0  0.25835718827134  0.48520545972759516  0.4959335034417549  1.0000
  N   N12       1.0  0.2416438301796262  0.9852039055400963  0.5040674624362609  1.0000
  N   N13       1.0  0.5384618802435526  0.640088137783927  0.4467207615354667  1.0000
  N   N14       1.0  0.9615388672977546  0.1400870078845315  0.5532785841957093  1.0000
  N   N15       1.0  0.46154022071857537  0.3599117517524632  0.5532784576754253  1.0000
  N   N16       1.0  0.0384606037160964  0.8599121357802415  0.44672228160382593  1.0000
  O   O1        1.0  0.22308286990620022  0.7834895982102025  0.6314403614829018  1.0000
  O   O2        1.0  0.2769178364391536  0.28349089432827407  0.3685589419953814  1.0000
  O   O3        1.0  0.7769183544066963  0.21651029132639363  0.3685594065910962  1.0000
  O   O4        1.0  0.7230825111006709  0.71651048695373  0.6314420237371507  1.0000
