data_image0
_chemical_formula_structural       Cd5H16C12N28Cl2O2
_chemical_formula_sum              "Cd5 H16 C12 N28 Cl2 O2"
_cell_length_a       8.02918330185636
_cell_length_b       8.43549287742706
_cell_length_c       13.27161150187769
_cell_angle_alpha    93.48256735477038
_cell_angle_beta     107.44376039311881
_cell_angle_gamma    108.47448692481726

_space_group_name_H-M_alt    "P 1"
_space_group_IT_number       1

loop_
  _space_group_symop_operation_xyz
  'x, y, z'

loop_
  _atom_site_type_symbol
  _atom_site_label
  _atom_site_symmetry_multiplicity
  _atom_site_fract_x
  _atom_site_fract_y
  _atom_site_fract_z
  _atom_site_occupancy
  Cd  Cd1       1.0  3.7916838166842766e-06  0.999999804911617  5.771610318617011e-07  1.0000
  Cd  Cd2       1.0  0.4972899552170631  0.6936465036713242  0.8960231030354533  1.0000
  Cd  Cd3       1.0  0.5027129564139798  0.30635198602725205  0.10397651008030813  1.0000
  Cd  Cd4       1.0  0.045676039932132595  0.4966974873579488  0.6424369036055424  1.0000
  Cd  Cd5       1.0  0.9543229603942082  0.5033010218038284  0.3575627502342797  1.0000
  H   H1        1.0  0.4393190525203964  0.4238976926219493  0.6623236112658475  1.0000
  H   H2        1.0  0.5606803244818579  0.57610843245493  0.33767413216043707  1.0000
  H   H3        1.0  0.5252262639327014  0.28960400554608867  0.7406192855861491  1.0000
  H   H4        1.0  0.47476870386892517  0.7104008728826585  0.2593791144580564  1.0000
  H   H5        1.0  0.451851755790031  0.19572583959994458  0.5486476906367059  1.0000
  H   H6        1.0  0.5481479287367322  0.804277747662475  0.4513515221169371  1.0000
  H   H7        1.0  0.6054383717977458  0.39455650794194247  0.536362611103371  1.0000
  H   H8        1.0  0.39456211950508896  0.6054458049295162  0.4636367017407962  1.0000
  H   H9        1.0  0.5987631607519434  0.9915059044740814  0.6109628237450622  1.0000
  H   H10       1.0  0.40123341382363975  0.0084964386119282  0.38903954319501105  1.0000
  H   H11       1.0  0.6831549336767466  0.12393748950939448  0.7381248213048011  1.0000
  H   H12       1.0  0.316846235048324  0.8760699149018903  0.2618778171679991  1.0000
  H   H13       1.0  0.8665299744463796  0.9352098681796193  0.718344263697844  1.0000
  H   H14       1.0  0.1334634928892982  0.06479122535429842  0.2816597507427474  1.0000
  H   H15       1.0  0.9352188507708873  0.04907351750762961  0.6213879574042308  1.0000
  H   H16       1.0  0.06477604787934155  0.9509212071915554  0.3786138223808563  1.0000
  C   C1        1.0  0.725580667135347  0.5332568160365125  0.7567640061856266  1.0000
  C   C2        1.0  0.27441982687876293  0.4667454914592711  0.24323379997262148  1.0000
  C   C3        1.0  0.5613959340970994  0.3845944203843388  0.6900266404240298  1.0000
  C   C4        1.0  0.4386024484689415  0.6154091697820333  0.3099715814470088  1.0000
  C   C5        1.0  0.5820329059900118  0.3032435705537395  0.59071325330234  1.0000
  C   C6        1.0  0.41796758666845346  0.6967587396298852  0.40928530619886766  1.0000
  C   C7        1.0  0.7163890446642468  0.10060829446180718  0.6651952071855618  1.0000
  C   C8        1.0  0.28361063443996687  0.8993953035519625  0.3348070189399266  1.0000
  C   C9        1.0  0.8949649715573146  0.059549911433535406  0.6930580393180037  1.0000
  C   C10       1.0  0.10503141671377153  0.9404486196631652  0.3069441528144026  1.0000
  C   C11       1.0  0.0553322115053234  0.18566752365968847  0.7802568629502034  1.0000
  C   C12       1.0  0.9446688989134416  0.8143297055193414  0.2197431285197879  1.0000
  N   N1        1.0  0.9019098107855399  0.5765093937695625  0.755712113259868  1.0000
  N   N2        1.0  0.09809149000463442  0.4234916393352605  0.24428579298890438  1.0000
  N   N3        1.0  0.006198052353980409  0.7162557252385684  0.830011733301859  1.0000
  N   N4        1.0  0.9938040525009983  0.2837440388509691  0.1699877797233711  1.0000
  N   N5        1.0  0.897063136639062  0.7555841431988738  0.8750766065055017  1.0000
  N   N6        1.0  0.1029371670036312  0.24441436037111688  0.12492328487395808  1.0000
  N   N7        1.0  0.7208677226801683  0.6449725748743019  0.8314132628862438  1.0000
  N   N8        1.0  0.2791356868468  0.3550271809356147  0.1685857343356645  1.0000
  N   N9        1.0  0.15891922629794666  0.3383203753651999  0.7679705403831958  1.0000
  N   N10       1.0  0.8410807684646002  0.6616806687070849  0.23202863501187207  1.0000
  N   N11       1.0  0.2906176709389712  0.4102571252278082  0.8636612031353791  1.0000
  N   N12       1.0  0.7093839400869868  0.5897413646868799  0.1363366657548326  1.0000
  N   N13       1.0  0.2688077751165636  0.30699401310732805  0.9323872381553358  1.0000
  N   N14       1.0  0.7311938345537571  0.6930044794952009  0.06761138407782853  1.0000
  N   N15       1.0  0.12173383153331943  0.16575458960412703  0.8827378175642265  1.0000
  N   N16       1.0  0.8782713764946452  0.8342464321010042  0.11726230798937821  1.0000
  N   N17       1.0  0.3222339551621474  0.7248544442226289  0.7307221716193765  1.0000
  N   N18       1.0  0.6777658519402652  0.2751427905481876  0.269277582310977  1.0000
  N   N19       1.0  0.3124496020617259  0.864073246931454  0.7201189393232141  1.0000
  N   N20       1.0  0.687550700225337  0.13592525932637048  0.2798817053992053  1.0000
  N   N21       1.0  0.30340219575676036  0.9966371553391369  0.7084209870469351  1.0000
  N   N22       1.0  0.6965986003593089  0.003362625093536999  0.2915813018105098  1.0000
  N   N23       1.0  0.6900866984147028  0.0011910455811943005  0.9252898279050896  1.0000
  N   N24       1.0  0.30991813700426013  0.9988023521453256  0.074709948033167  1.0000
  N   N25       1.0  0.6562257222561598  0.12287604986874359  0.9502366960397026  1.0000
  N   N26       1.0  0.34377650653009795  0.8771173590413497  0.049762604819285586  1.0000
  N   N27       1.0  0.6259816850698101  0.24580851889428598  0.9711575136469719  1.0000
  N   N28       1.0  0.3740205437164478  0.7541848900158143  0.028841787212016412  1.0000
  Cl  Cl1       1.0  0.8920524910375532  0.662069656491319  0.5052550560264564  1.0000
  Cl  Cl2       1.0  0.10794750101371874  0.3379313929566409  0.4947456260545309  1.0000
  O   O1        1.0  0.7383268999700405  0.24577526345814957  0.612487963971212  1.0000
  O   O2        1.0  0.2616717887648791  0.7542257915815964  0.3875124805701446  1.0000
