data_image0
_chemical_formula_structural       Zn2H20C38N4O8
_chemical_formula_sum              "Zn2 H20 C38 N4 O8"
_cell_length_a       13.132419908609942
_cell_length_b       13.999012431628644
_cell_length_c       15.405228055098487
_cell_angle_alpha    89.73302727226192
_cell_angle_beta     90.92634919970816
_cell_angle_gamma    82.62091033204116

_space_group_name_H-M_alt    "P 1"
_space_group_IT_number       1

loop_
  _space_group_symop_operation_xyz
  'x, y, z'

loop_
  _atom_site_type_symbol
  _atom_site_label
  _atom_site_symmetry_multiplicity
  _atom_site_fract_x
  _atom_site_fract_y
  _atom_site_fract_z
  _atom_site_occupancy
  Zn  Zn1       1.0  0.49364170266188284  0.6025316913107159  0.4999128874545277  1.0000
  Zn  Zn2       1.0  0.501085313902081  0.3986426279580542  0.4981151422409907  1.0000
  H   H1        1.0  0.18385004862542334  0.3737906827573382  0.5055538056775291  1.0000
  H   H2        1.0  0.8114649749818525  0.6160715012479868  0.49457721303322427  1.0000
  H   H3        1.0  0.36553319655154587  0.2646367798193765  0.5724500754227648  1.0000
  H   H4        1.0  0.5516864643129862  0.7484493949461635  0.37646166931853026  1.0000
  H   H5        1.0  0.35634205264035756  0.0875540728068742  0.5754116809090206  1.0000
  H   H6        1.0  0.5524738612475562  0.9258482660867456  0.3697854529156571  1.0000
  H   H7        1.0  0.1627578263181277  0.6819887566541709  0.4913257426923678  1.0000
  H   H8        1.0  0.8327463410358502  0.30833257054759866  0.515104238488874  1.0000
  H   H9        1.0  0.024279028012777815  0.29457117436869135  0.5146848803151299  1.0000
  H   H10       1.0  0.9711079725030061  0.6955094065706859  0.49086665091505916  1.0000
  H   H11       1.0  0.48183610986496467  0.6552379150943961  0.05345497478344189  1.0000
  H   H12       1.0  0.45170457322747376  0.36479033102884273  0.9417695348955846  1.0000
  H   H13       1.0  0.5476820877535787  0.353478293142075  0.22618452852262994  1.0000
  H   H14       1.0  0.5696593426578431  0.632287099418626  0.7743801401424264  1.0000
  H   H15       1.0  0.5560814311972919  0.346344185902822  0.0648303035985194  1.0000
  H   H16       1.0  0.5837979304271528  0.6312762831216004  0.9357926839296623  1.0000
  H   H17       1.0  0.6352867697464504  0.050455927643867  0.42670700053822225  1.0000
  H   H18       1.0  0.43489454350253715  0.9397667636384739  0.6310452599260045  1.0000
  H   H19       1.0  0.631247901970113  0.22997977541954376  0.4290981448217153  1.0000
  H   H20       1.0  0.43793550128677333  0.7603577035340693  0.6255188030305874  1.0000
  C   C1        1.0  0.5053447402177015  0.5058129428473918  0.32839366147661037  1.0000
  C   C2        1.0  0.4995301348757906  0.5041801585757283  0.6696011558396009  1.0000
  C   C3        1.0  0.511838385247131  0.5063732369435529  0.2309267328328275  1.0000
  C   C4        1.0  0.5059661420788332  0.4996106888682233  0.7670196222530734  1.0000
  C   C5        1.0  0.5336592960312316  0.4190003306180045  0.1870335986721585  1.0000
  C   C6        1.0  0.5444833340563733  0.5739910206172779  0.8122832687294517  1.0000
  C   C7        1.0  0.5372603208012379  0.415490091288767  0.096931776717291  1.0000
  C   C8        1.0  0.5511742802088546  0.5734495901448965  0.9023895953939203  1.0000
  C   C9        1.0  0.5183592413739859  0.5003051293271739  0.046789260017909784  1.0000
  C   C10       1.0  0.517458940792409  0.4984981541487769  0.9509269708416423  1.0000
  C   C11       1.0  0.5729590530865779  0.09525049528414088  0.4584876423960224  1.0000
  C   C12       1.0  0.46072721466524774  0.9003417113487585  0.5729384179896256  1.0000
  C   C13       1.0  0.5717285413789099  0.19448777544550913  0.4596939461888425  1.0000
  C   C14       1.0  0.4624616557087506  0.8009992611354587  0.5708122721645168  1.0000
  C   C15       1.0  0.422830028563304  0.21424540365372743  0.5403635264343051  1.0000
  C   C16       1.0  0.5279650059763838  0.793625354971084  0.4316841692697793  1.0000
  C   C17       1.0  0.419075708060511  0.11549562333779308  0.5423069730728187  1.0000
  C   C18       1.0  0.528525698422186  0.8927361661033474  0.4289088187343068  1.0000
  C   C19       1.0  0.4951756310790429  0.05368640846328529  0.5004868729703063  1.0000
  C   C20       1.0  0.4946539758109267  0.9483534466771032  0.500776129251129  1.0000
  C   C21       1.0  0.697022564204687  0.4717102928639107  0.5026745111232955  1.0000
  C   C22       1.0  0.2984416507808305  0.5182224309196427  0.49689924440698957  1.0000
  C   C23       1.0  0.18364579322909694  0.5263528146146327  0.4983746478368686  1.0000
  C   C24       1.0  0.8118266500684754  0.4637639643771294  0.504104006322514  1.0000
  C   C25       1.0  0.977601217474941  0.36489415215709897  0.5102864310530321  1.0000
  C   C26       1.0  0.017895548126673988  0.6252037747947484  0.49469957131366016  1.0000
  C   C27       1.0  0.8720783889829065  0.3720683391528397  0.510348029222598  1.0000
  C   C28       1.0  0.12341227368051483  0.6181646401021651  0.49476087102781446  1.0000
  C   C29       1.0  0.8591606151118328  0.5463982635870294  0.4990753955134224  1.0000
  C   C30       1.0  0.13631867349093346  0.4436506391053283  0.5031188495988203  1.0000
  C   C31       1.0  0.9673664018085191  0.5414484568324197  0.4995068997695497  1.0000
  C   C32       1.0  0.028159155932463924  0.4485888692411989  0.5045501565056156  1.0000
  C   C33       1.0  0.49811977596770873  0.5881708624134917  0.0901961834917202  1.0000
  C   C34       1.0  0.4800056855202186  0.4231057109833145  0.9060588045584408  1.0000
  C   C35       1.0  0.4952170921620365  0.5921694303599525  0.18122482656742275  1.0000
  C   C36       1.0  0.47472544595009947  0.42242560970479553  0.8148716366933114  1.0000
  C   C37       1.0  0.4754418693257705  0.6867527453229554  0.21710775153475476  1.0000
  C   C38       1.0  0.4342175969874589  0.34248321540406584  0.7754225503351221  1.0000
  N   N1        1.0  0.497733611374592  0.2528746225740832  0.4995880125987497  1.0000
  N   N2        1.0  0.4956107806200194  0.7485778525971015  0.501348635072631  1.0000
  N   N3        1.0  0.4612741795420234  0.7685913231868327  0.23439499999364696  1.0000
  N   N4        1.0  0.3993794399727832  0.27390385337097456  0.752518542181349  1.0000
  O   O1        1.0  0.48630042254689  0.5871619386889931  0.3650159911849683  1.0000
  O   O2        1.0  0.48791480740246845  0.4265618304805657  0.6307135924836442  1.0000
  O   O3        1.0  0.5187571315724071  0.423805885812591  0.36552209196260316  1.0000
  O   O4        1.0  0.5067458873356685  0.5855159063202535  0.6347207249757288  1.0000
  O   O5        1.0  0.6477000950075721  0.5556399640466408  0.49258072642292916  1.0000
  O   O6        1.0  0.34666930944900554  0.434360677027307  0.48514288432167507  1.0000
  O   O7        1.0  0.6568599660294366  0.39397499694880617  0.5113662263145926  1.0000
  O   O8        1.0  0.3395516245593413  0.5951087976414372  0.5074701245763648  1.0000
