data_image0
_chemical_formula_structural       Cu3H22C12S2N32O12
_chemical_formula_sum              "Cu3 H22 C12 S2 N32 O12"
_cell_length_a       6.671105030713182
_cell_length_b       10.822405044983025
_cell_length_c       12.155500290907167
_cell_angle_alpha    99.91492188542097
_cell_angle_beta     104.83767326336059
_cell_angle_gamma    90.11860444159751

_space_group_name_H-M_alt    "P 1"
_space_group_IT_number       1

loop_
  _space_group_symop_operation_xyz
  'x, y, z'

loop_
  _atom_site_type_symbol
  _atom_site_label
  _atom_site_symmetry_multiplicity
  _atom_site_fract_x
  _atom_site_fract_y
  _atom_site_fract_z
  _atom_site_occupancy
  Cu  Cu1       1.0  0.9999985554374576  1.0188608214990747e-06  6.164211541083206e-07  1.0000
  Cu  Cu2       1.0  0.5000004579272356  0.5000003984902079  8.066164625018667e-07  1.0000
  Cu  Cu3       1.0  0.5000004390612746  0.5000003040905199  0.49999928602537863  1.0000
  H   H1        1.0  0.9809489038066063  0.2360531220299009  0.25233128149993433  1.0000
  H   H2        1.0  0.019054954539989014  0.7639456297357797  0.7476682560535794  1.0000
  H   H3        1.0  0.5766971924394965  0.1354570389411052  0.35962000322755483  1.0000
  H   H4        1.0  0.42330680733491016  0.8645418188072468  0.6403836821613212  1.0000
  H   H5        1.0  0.9574891804289862  0.83292513470586  0.3633522522162452  1.0000
  H   H6        1.0  0.042508504250115216  0.16707363794483854  0.6366472996670469  1.0000
  H   H7        1.0  0.8321602224311634  0.442659828083215  0.3538952409381155  1.0000
  H   H8        1.0  0.16783573443607477  0.5573370455254362  0.6461030058858059  1.0000
  H   H9        1.0  0.8704648019543767  0.5596390741249236  0.2773466355777644  1.0000
  H   H10       1.0  0.12953771151311597  0.44036159772359434  0.7226546289835414  1.0000
  H   H11       1.0  0.342505830329209  0.9192235665613638  0.3451519067576926  1.0000
  H   H12       1.0  0.657494927040858  0.0807751850485658  0.6548472231771714  1.0000
  H   H13       1.0  0.33230343775071697  0.8359005687666538  0.2045644798327829  1.0000
  H   H14       1.0  0.6676912204708855  0.16409914261210906  0.7954348002733413  1.0000
  H   H15       1.0  0.5289099633047698  0.2758982773568022  0.49958510520048105  1.0000
  H   H16       1.0  0.4710924756437008  0.7241014556078864  0.5004160235193427  1.0000
  H   H17       1.0  0.20529074583463816  0.3003605309803348  0.9911776169822705  1.0000
  H   H18       1.0  0.794707013363485  0.6996391805541932  0.008822070742503683  1.0000
  H   H19       1.0  0.0400460432038088  0.3813585355629029  0.9197668436795329  1.0000
  H   H20       1.0  0.9599501372204884  0.6186411546972082  0.08023181066884182  1.0000
  H   H21       1.0  0.7687064571997199  0.3147971302943872  0.5094687063166817  1.0000
  H   H22       1.0  0.23129597141108593  0.6852034779645207  0.49053006954341083  1.0000
  C   C1        1.0  0.5509710497672771  0.5089032879648059  0.25546255652826494  1.0000
  C   C2        1.0  0.4490281288289637  0.49109544237070685  0.7445355400301993  1.0000
  C   C3        1.0  0.7719419303153005  0.4758142492515206  0.27212064619688203  1.0000
  C   C4        1.0  0.2280574359422118  0.5241855047539516  0.7278809044713557  1.0000
  C   C5        1.0  0.7926783942626942  0.37959452392814075  0.17284262488828975  1.0000
  C   C6        1.0  0.2073130242820014  0.6204024342330072  0.8271583287759443  1.0000
  C   C7        1.0  0.04306082393979692  0.9081738776034527  0.2231204253687197  1.0000
  C   C8        1.0  0.9569365523255583  0.09182201480618352  0.776876230288892  1.0000
  C   C9        1.0  0.27444051435613653  0.9179344832350295  0.25278870987341423  1.0000
  C   C10       1.0  0.7255620736303781  0.08206712749730372  0.7472126905293808  1.0000
  C   C11       1.0  0.3409700718432731  0.0332519593631702  0.21736053727565977  1.0000
  C   C12       1.0  0.6590356916387918  0.9667505904087361  0.7826414065872672  1.0000
  S   S1        1.0  0.14424337335806567  0.24323948159154438  0.46435277093007  1.0000
  S   S2        1.0  0.8557590373048498  0.7567602301766173  0.5356475282226757  1.0000
  N   N1        1.0  0.42975711894981566  0.5305644896781773  0.15475277412545557  1.0000
  N   N2        1.0  0.5702392387980808  0.46943709954610563  0.8452469814729685  1.0000
  N   N3        1.0  0.24043829224662966  0.5566057912736823  0.17225220162752217  1.0000
  N   N4        1.0  0.7595612409968169  0.44339673699018073  0.8277480974310338  1.0000
  N   N5        1.0  0.24656110595253009  0.5513943351414028  0.2795017059135391  1.0000
  N   N6        1.0  0.7534399032601585  0.4486072543165207  0.7204986611128563  1.0000
  N   N7        1.0  0.4393331238846515  0.5204542855103256  0.3336969164450637  1.0000
  N   N8        1.0  0.5606678853280371  0.47954730394759804  0.6663034505813317  1.0000
  N   N9        1.0  0.6938403992088453  0.37674799460377534  0.06152668161717403  1.0000
  N   N10       1.0  0.3061605817182809  0.6232535736576139  0.9384728558421431  1.0000
  N   N11       1.0  0.7433205525791988  0.27130184424054693  0.9989307006037936  1.0000
  N   N12       1.0  0.2566804104000298  0.7286988275300886  0.0010703601481907353  1.0000
  N   N13       1.0  0.8694356418995355  0.21061422148973455  0.06841843013809522  1.0000
  N   N14       1.0  0.130563742305867  0.789386429006491  0.9315815972374896  1.0000
  N   N15       1.0  0.9038034758761523  0.2772682416425027  0.17675428387014594  1.0000
  N   N16       1.0  0.096199009305785  0.7227324090094739  0.8232461511240888  1.0000
  N   N17       1.0  0.25796857780470356  0.06911231681547747  0.11656032521658236  1.0000
  N   N18       1.0  0.7420337403912923  0.9308855595781083  0.8834413613873341  1.0000
  N   N19       1.0  0.3492803901373023  0.18142168955901639  0.11770819460449643  1.0000
  N   N20       1.0  0.6507218714875761  0.8185761444415005  0.8822918328652779  1.0000
  N   N21       1.0  0.48719925724828533  0.21488751038823747  0.21506627511538315  1.0000
  N   N22       1.0  0.5128032279336523  0.7851131402637391  0.7849341598788444  1.0000
  N   N23       1.0  0.4843078075868377  0.12341483804510739  0.277168334088053  1.0000
  N   N24       1.0  0.5156897177165618  0.8765829321321731  0.7228285932525298  1.0000
  N   N25       1.0  0.9174572253700077  0.9406724371521236  0.1289037885461469  1.0000
  N   N26       1.0  0.0825422154065265  0.05932825573716371  0.8710978979635801  1.0000
  N   N27       1.0  0.7195882395878568  0.9258719249055999  0.13534466690622085  1.0000
  N   N28       1.0  0.28041098524184355  0.07412772311720062  0.8646527359266618  1.0000
  N   N29       1.0  0.721733587197228  0.8836119497958209  0.22914568644769426  1.0000
  N   N30       1.0  0.2782655913990126  0.11638678053969188  0.7708524101107772  1.0000
  N   N31       1.0  0.9214345262662037  0.8721933604793152  0.2846453845778002  1.0000
  N   N32       1.0  0.0785664546609226  0.12780820778207416  0.7153541528815242  1.0000
  O   O1        1.0  0.3433992503986047  0.1905002919104319  0.5198298957089025  1.0000
  O   O2        1.0  0.656604813557159  0.8095003800159615  0.4801715726617248  1.0000
  O   O3        1.0  0.9915967079998963  0.23353482619375396  0.5361208013769315  1.0000
  O   O4        1.0  0.008401274755293299  0.7664677019922266  0.463879293872296  1.0000
  O   O5        1.0  0.0537728958485175  0.16523549919769204  0.3466876848691174  1.0000
  O   O6        1.0  0.946229635566873  0.8347660691415728  0.6533120563995286  1.0000
  O   O7        1.0  0.1711253294837363  0.3756773060804618  0.4541648786555614  1.0000
  O   O8        1.0  0.828874324512192  0.6243270787545113  0.5458348625188948  1.0000
  O   O9        1.0  0.6216744914325006  0.32818422898257876  0.4693895118633692  1.0000
  O   O10       1.0  0.3783263404565886  0.6718154615111657  0.5306097539129839  1.0000
  O   O11       1.0  0.1815517701041145  0.3512780795530971  0.9302733169572124  1.0000
  O   O12       1.0  0.8184460918985934  0.6487225920617874  0.06972733617611485  1.0000
