data_image0
_chemical_formula_structural       Sm4Ag4H32C56N8O32
_chemical_formula_sum              "Sm4 Ag4 H32 C56 N8 O32"
_cell_length_a       9.140370518301568
_cell_length_b       11.914878777384232
_cell_length_c       17.009766820407147
_cell_angle_alpha    108.3409502725663
_cell_angle_beta     89.99607099548552
_cell_angle_gamma    112.59457775483244

_space_group_name_H-M_alt    "P 1"
_space_group_IT_number       1

loop_
  _space_group_symop_operation_xyz
  'x, y, z'

loop_
  _atom_site_type_symbol
  _atom_site_label
  _atom_site_symmetry_multiplicity
  _atom_site_fract_x
  _atom_site_fract_y
  _atom_site_fract_z
  _atom_site_occupancy
  Sm  Sm1       1.0  0.800896133477458  0.9674610594740326  0.4243665054000445  1.0000
  Sm  Sm2       1.0  0.8334039049395301  0.032556192573252894  0.07567283309806072  1.0000
  Sm  Sm3       1.0  0.19910330322993988  0.0325430216135771  0.5756346990279513  1.0000
  Sm  Sm4       1.0  0.16660310964072517  0.9674411689889693  0.9243287173001067  1.0000
  Ag  Ag1       1.0  0.4059620204219739  0.6524022570566073  0.865309825568467  1.0000
  Ag  Ag2       1.0  0.7537924651681536  0.3475695137654497  0.6347446001677783  1.0000
  Ag  Ag3       1.0  0.5940387339007812  0.3475978978781951  0.13468819855317088  1.0000
  Ag  Ag4       1.0  0.2462259525610335  0.6524462631480928  0.36526259956684026  1.0000
  H   H1        1.0  0.3392549145550134  0.764657739621235  0.734868517844838  1.0000
  H   H2        1.0  0.5754146437452048  0.23579135670165385  0.7655410456756899  1.0000
  H   H3        1.0  0.6607530971362011  0.23534817277044343  0.2651289570723634  1.0000
  H   H4        1.0  0.4245867135358452  0.7642078167799866  0.23445618338289628  1.0000
  H   H5        1.0  0.4946137704508544  0.8781869184963963  0.6414380249798556  1.0000
  H   H6        1.0  0.6171999736644195  0.12199778302835532  0.8587261897085413  1.0000
  H   H7        1.0  0.5053987370193553  0.12182579197553878  0.3585620601873104  1.0000
  H   H8        1.0  0.3827943419523123  0.8780004365442906  0.14127142615780744  1.0000
  H   H9        1.0  0.8909208446959838  0.8014258825985007  0.7127582995555245  1.0000
  H   H10       1.0  0.09014457810870619  0.19859304625787638  0.787014383239253  1.0000
  H   H11       1.0  0.10908532110696  0.19857415433605038  0.2872349958375509  1.0000
  H   H12       1.0  0.9098527225631443  0.8014023938843521  0.21298734986609702  1.0000
  H   H13       1.0  0.7149397782727789  0.6780757686883802  0.7946259411008044  1.0000
  H   H14       1.0  0.0375842485131344  0.3221568050921988  0.705366601012763  1.0000
  H   H15       1.0  0.285066283282532  0.321926246455284  0.205369535597427  1.0000
  H   H16       1.0  0.9624214410006429  0.6778444676602006  0.29463753856684605  1.0000
  H   H17       1.0  0.2037748838179424  0.6423750951601973  0.01544579334465368  1.0000
  H   H18       1.0  0.56138411844136  0.35753053800404894  0.48469923741039633  1.0000
  H   H19       1.0  0.7962194690544138  0.3576231992255927  0.9845547781462473  1.0000
  H   H20       1.0  0.4386179163092477  0.6424678036507173  0.5153031078342424  1.0000
  H   H21       1.0  0.08714145534199251  0.48672016418850456  0.0933307957441016  1.0000
  H   H22       1.0  0.6000646639133365  0.5132099256356212  0.40691061026215186  1.0000
  H   H23       1.0  0.9128531432812607  0.5132742485922037  0.9066683687610322  1.0000
  H   H24       1.0  0.3999257961383265  0.4867805892167638  0.5930865559157256  1.0000
  H   H25       1.0  0.3218169362615981  0.2565180412201896  0.9448976932488621  1.0000
  H   H26       1.0  0.06561628419397895  0.7435538181526978  0.5549586338892993  1.0000
  H   H27       1.0  0.6781752877159661  0.7434781845004039  0.05509715007912773  1.0000
  H   H28       1.0  0.934377815408233  0.2564461551896215  0.44503229640854164  1.0000
  H   H29       1.0  0.4168362439734281  0.41163975844974493  0.8707893515336667  1.0000
  H   H30       1.0  0.00563520518814179  0.588600977422473  0.6291943548318103  1.0000
  H   H31       1.0  0.5831606098352606  0.5883613469924993  0.129208285238775  1.0000
  H   H32       1.0  0.9943673500738869  0.4114137081971662  0.3708079111532215  1.0000
  C   C1        1.0  0.46038862670631897  0.7721614502262142  0.7263209164177554  1.0000
  C   C2        1.0  0.6890526507387946  0.22823742419930668  0.7739431512887123  1.0000
  C   C3        1.0  0.5396202185495936  0.2278483141854507  0.27367678328953104  1.0000
  C   C4        1.0  0.31095081308367867  0.7717637730596393  0.22605803255805057  1.0000
  C   C5        1.0  0.548587372354362  0.8370672759572386  0.6755662032802051  1.0000
  C   C6        1.0  0.7122883018779831  0.16320076129022706  0.8245855592404256  1.0000
  C   C7        1.0  0.4514236687883511  0.16294250409735866  0.32443208766028425  1.0000
  C   C8        1.0  0.2877119909897273  0.836798471701776  0.1754140342636603  1.0000
  C   C9        1.0  0.7066264693382464  0.8499406015447659  0.6703100076793903  1.0000
  C   C10       1.0  0.8573577274693632  0.1501686978487839  0.8296634418596869  1.0000
  C   C11       1.0  0.29338045558625936  0.1500653254693844  0.32968805830857667  1.0000
  C   C12       1.0  0.14263942424810244  0.8498286307267833  0.1703369258013581  1.0000
  C   C13       1.0  0.768145953053981  0.7925874395781776  0.7140257182099887  1.0000
  C   C14       1.0  0.9762797307156956  0.20754195567172215  0.7859020271566666  1.0000
  C   C15       1.0  0.23185913343337458  0.20741262694147616  0.2859687593787683  1.0000
  C   C16       1.0  0.023719162884660062  0.7924544815666078  0.21410109224493107  1.0000
  C   C17       1.0  0.6708031847588528  0.725256627306045  0.7609016171369732  1.0000
  C   C18       1.0  0.9463052334250648  0.27496965230470477  0.7391309373204606  1.0000
  C   C19       1.0  0.3292048194812409  0.2747492701230101  0.23909526665531902  1.0000
  C   C20       1.0  0.0536993618708834  0.7250316201075434  0.2608732022050049  1.0000
  C   C21       1.0  0.8088591985768474  0.9211766630381532  0.6174681790255008  1.0000
  C   C22       1.0  0.8880805850961622  0.07876936988812838  0.8824439849038229  1.0000
  C   C23       1.0  0.1911428358633884  0.07882823593417498  0.38252731825396324  1.0000
  C   C24       1.0  0.11191667832005686  0.921225995440956  0.11755479257697492  1.0000
  C   C25       1.0  0.22500853361363224  0.5546001545177716  0.0017040506872234753  1.0000
  C   C26       1.0  0.6704276563207114  0.4453714345041533  0.4984275152666911  1.0000
  C   C27       1.0  0.7749843529312342  0.44539520945069455  0.9982947265769939  1.0000
  C   C28       1.0  0.3295715646825456  0.5546278430355754  0.5015738515579855  1.0000
  C   C29       1.0  0.1619092504047401  0.4689454535627603  0.045112310317655585  1.0000
  C   C30       1.0  0.6927991541187808  0.5310267894238764  0.45504944814924647  1.0000
  C   C31       1.0  0.838083144880585  0.5310489286123781  0.9548856718293665  1.0000
  C   C32       1.0  0.3071963972190517  0.4689695270929589  0.5449489420906346  1.0000
  C   C33       1.0  0.1916017281802098  0.35689050031140107  0.02413422199038709  1.0000
  C   C34       1.0  0.8346802927824227  0.6431224651407559  0.4759175351074774  1.0000
  C   C35       1.0  0.8083906373006188  0.6431038220132237  0.9758613956569919  1.0000
  C   C36       1.0  0.1653130328640984  0.35687377588262587  0.524077899399565  1.0000
  C   C37       1.0  0.2912707729585762  0.3397418390125182  0.9636054292284584  1.0000
  C   C38       1.0  0.9517474273079287  0.6602913861167963  0.5363389125377085  1.0000
  C   C39       1.0  0.7087203642522724  0.6602544013305475  0.03639000517029699  1.0000
  C   C40       1.0  0.04824937434287341  0.3397096145870434  0.46365458636035584  1.0000
  C   C41       1.0  0.3465584215074955  0.42751493872790286  0.9216673391696661  1.0000
  C   C42       1.0  0.9193442041945515  0.5726018337216202  0.5783348320938303  1.0000
  C   C43       1.0  0.6534352762486931  0.572484232372652  0.0783298895099094  1.0000
  C   C44       1.0  0.08065713794199783  0.4274060548382437  0.42166482380366693  1.0000
  C   C45       1.0  0.10467920958610216  0.2507662201019371  0.05853300132198309  1.0000
  C   C46       1.0  0.8537136737916241  0.7492222977970895  0.4415352699539525  1.0000
  C   C47       1.0  0.8953209345694759  0.7492261563199205  0.9414616176490684  1.0000
  C   C48       1.0  0.1462727218893392  0.2507710260708079  0.5584589611805982  1.0000
  C   C49       1.0  0.48188287882942393  0.929317415667306  0.9730325901802603  1.0000
  C   C50       1.0  0.5527096484166237  0.07063542916301908  0.5270833591093549  1.0000
  C   C51       1.0  0.5181163796717101  0.07067319168208999  0.0269681231802394  1.0000
  C   C52       1.0  0.447306886236788  0.9293765851661601  0.47292716253049605  1.0000
  C   C53       1.0  0.7154587759561649  0.9266610369715448  0.2273988959844075  1.0000
  C   C54       1.0  0.7889469397943499  0.07353065352126718  0.27272579089321886  1.0000
  C   C55       1.0  0.2845344380597297  0.07333935498423469  0.7726085857567925  1.0000
  C   C56       1.0  0.21105067344628017  0.9264697846830214  0.7272834644392887  1.0000
  N   N1        1.0  0.5202727481348931  0.7168308744106967  0.7685572244281857  1.0000
  N   N2        1.0  0.8042346095355271  0.283526176493936  0.7316358134657792  1.0000
  N   N3        1.0  0.4797336706278231  0.28317404088488013  0.23143886419276072  1.0000
  N   N4        1.0  0.19577457088478672  0.7164798858641888  0.26836757275467704  1.0000
  N   N5        1.0  0.3124509937020008  0.5326796158856623  0.9391267155002582  1.0000
  N   N6        1.0  0.7799719327626277  0.4673784355762293  0.560943472257897  1.0000
  N   N7        1.0  0.6875427115053014  0.4673195701775156  0.0608711043042334  1.0000
  N   N8        1.0  0.22003004958785516  0.5326285463436093  0.4390583442010937  1.0000
  O   O1        1.0  0.7353022024219908  0.9216940019073828  0.5544666317931473  1.0000
  O   O2        1.0  0.8139479185222669  0.0781868455199159  0.945436509250108  1.0000
  O   O3        1.0  0.2647082655669237  0.07831681945089737  0.4455348187100371  1.0000
  O   O4        1.0  0.18604938960070425  0.9218086095849427  0.05456581498015108  1.0000
  O   O5        1.0  0.9590235446075964  0.971277030318333  0.6394704998601526  1.0000
  O   O6        1.0  0.9879403015363193  0.0285580295146275  0.8604065773766365  1.0000
  O   O7        1.0  0.040987638280625995  0.028722101336818205  0.3605249563110037  1.0000
  O   O8        1.0  0.01205054552725939  0.9714354453401839  0.13959356522359198  1.0000
  O   O9        1.0  0.008799811595970717  0.2667097584733469  0.11037362918644793  1.0000
  O   O10       1.0  0.7417487401848105  0.733177305580284  0.3897483159438622  1.0000
  O   O11       1.0  0.9912003549129835  0.7332826628363945  0.8896227631593377  1.0000
  O   O12       1.0  0.2582351022278289  0.2668240351821609  0.6102587781774105  1.0000
  O   O13       1.0  0.12115882124839317  0.14357031811606896  0.03025181387477009  1.0000
  O   O14       1.0  0.9774798792270186  0.8564856744981739  0.46977904579571833  1.0000
  O   O15       1.0  0.8788454763810165  0.8564259861593794  0.9697459856733559  1.0000
  O   O16       1.0  0.022514004671052107  0.14350949529627138  0.5302120468988107  1.0000
  O   O17       1.0  0.362329199696198  0.8718325310127707  0.9160045173428415  1.0000
  O   O18       1.0  0.4906308365327304  0.1279851718111047  0.584146991941438  1.0000
  O   O19       1.0  0.6376733861652041  0.12815816713285944  0.0839997429295494  1.0000
  O   O20       1.0  0.5093712427505183  0.872024192308828  0.4158729661953018  1.0000
  O   O21       1.0  0.5738911938027657  0.8805767516031225  0.9893318582110526  1.0000
  O   O22       1.0  0.6936269285853669  0.1194342882392476  0.5109178548590521  1.0000
  O   O23       1.0  0.42611731715174267  0.11941485522346079  0.010670241824705301  1.0000
  O   O24       1.0  0.3063675951102594  0.8805796526080479  0.48909307362833937  1.0000
  O   O25       1.0  0.7006919989838066  0.8553432080684186  0.2710768094754812  1.0000
  O   O26       1.0  0.8454888238054606  0.14490531359633246  0.22907271896861664  1.0000
  O   O27       1.0  0.29929066724860587  0.1446579677649495  0.7289237822176348  1.0000
  O   O28       1.0  0.15453246752233715  0.8551009021297916  0.7709365790965279  1.0000
  O   O29       1.0  0.6714250387766115  0.8899015523618484  0.14942003729670006  1.0000
  O   O30       1.0  0.7817048125383649  0.11020697938330667  0.35070556828763  1.0000
  O   O31       1.0  0.3285749785357126  0.11010150238471539  0.8505785986935097  1.0000
  O   O32       1.0  0.21828400994616723  0.8897846362831106  0.6492971218984425  1.0000
