data_image0
_chemical_formula_structural       Ni4H60C56N4O26
_chemical_formula_sum              "Ni4 H60 C56 N4 O26"
_cell_length_a       10.073326109333896
_cell_length_b       13.136849907216352
_cell_length_c       15.088309806651232
_cell_angle_alpha    77.34092105114942
_cell_angle_beta     77.72006920238464
_cell_angle_gamma    67.629017235894

_space_group_name_H-M_alt    "P 1"
_space_group_IT_number       1

loop_
  _space_group_symop_operation_xyz
  'x, y, z'

loop_
  _atom_site_type_symbol
  _atom_site_label
  _atom_site_symmetry_multiplicity
  _atom_site_fract_x
  _atom_site_fract_y
  _atom_site_fract_z
  _atom_site_occupancy
  Ni  Ni1       1.0  0.02146747031924437  0.5761174975029345  0.344472649119794  1.0000
  Ni  Ni2       1.0  0.9785374087116026  0.4238792181708675  0.6555285342359838  1.0000
  Ni  Ni3       1.0  0.7401341996716438  0.7990983012752509  0.2582602225723818  1.0000
  Ni  Ni4       1.0  0.2598530973922095  0.20091260826045243  0.7417409832437372  1.0000
  H   H1        1.0  0.35285633264545885  0.6844719187251155  0.02994901266766457  1.0000
  H   H2        1.0  0.6471507717895051  0.31551982422506336  0.970051419797329  1.0000
  H   H3        1.0  0.6111955683993741  0.637122313552851  0.9565883466967193  1.0000
  H   H4        1.0  0.38880887033431577  0.36287100342192247  0.04341749722382097  1.0000
  H   H5        1.0  0.49165588139241123  0.5092771524619691  0.2888410638796159  1.0000
  H   H6        1.0  0.508352049733169  0.4907195536664729  0.7111596691685663  1.0000
  H   H7        1.0  0.7497012826059118  0.4678983156804931  0.21765302696213948  1.0000
  H   H8        1.0  0.2503028294349434  0.5321000780027418  0.7823473019283966  1.0000
  H   H9        1.0  0.8276289730796761  0.46770753891662764  0.9240864398644745  1.0000
  H   H10       1.0  0.17238502194071972  0.5323006821032195  0.0759172665160222  1.0000
  H   H11       1.0  0.7346862606545769  0.4106535484512719  0.4084138884807161  1.0000
  H   H12       1.0  0.2653026362521302  0.589344856175984  0.5915906805196868  1.0000
  H   H13       1.0  0.8104310752319249  0.23260942879618093  0.4896610153297161  1.0000
  H   H14       1.0  0.18955608265938653  0.7673906202394887  0.5103448378798845  1.0000
  H   H15       1.0  0.8971479246150268  0.0426442794349811  0.4452940314831224  1.0000
  H   H16       1.0  0.10285452397629767  0.9573556973519997  0.5547108959031206  1.0000
  H   H17       1.0  0.37885854514014744  0.28398831772758365  0.44592515949504025  1.0000
  H   H18       1.0  0.6211457320067808  0.716002724503049  0.5540691905084785  1.0000
  H   H19       1.0  0.46852402584349306  0.09576398201005529  0.39966868323246973  1.0000
  H   H20       1.0  0.5314820046799296  0.9042320937826605  0.6003218401078882  1.0000
  H   H21       1.0  0.2447216767637099  0.39004329280895433  0.2581076600835246  1.0000
  H   H22       1.0  0.7552744258274016  0.6099568992437056  0.7418875622010503  1.0000
  H   H23       1.0  0.3522844181599962  0.2546034821496974  0.18031518200946553  1.0000
  H   H24       1.0  0.6477128122463469  0.7453942112802138  0.819680327687017  1.0000
  H   H25       1.0  0.2506608881130957  0.16658372530538662  0.18837624156252283  1.0000
  H   H26       1.0  0.7493343680161072  0.8334139254443613  0.8116222197682391  1.0000
  H   H27       1.0  0.4067254615525967  0.1178775345023411  0.24573039168704716  1.0000
  H   H28       1.0  0.5932687121008939  0.8821225780873545  0.7542697708037167  1.0000
  H   H29       1.0  0.1220565657490482  0.1958900232465268  0.44019417218918017  1.0000
  H   H30       1.0  0.8779418475150252  0.8041142223627488  0.5598052735238426  1.0000
  H   H31       1.0  0.23909525236751955  0.0808107673519984  0.3846793279799813  1.0000
  H   H32       1.0  0.7609034612691089  0.9191927066877026  0.6153168992505016  1.0000
  H   H33       1.0  0.06500887165783809  0.1603478762146437  0.3502485234253854  1.0000
  H   H34       1.0  0.9349851613189838  0.8396547563378787  0.6497498758363279  1.0000
  H   H35       1.0  0.42495035439455353  0.8562123271616572  0.33164193560430283  1.0000
  H   H36       1.0  0.5750340668877527  0.14378694758886468  0.6683618122876496  1.0000
  H   H37       1.0  0.3919306656440327  0.9145482459826082  0.09135929401703179  1.0000
  H   H38       1.0  0.608069353259836  0.08544830168612089  0.9086525827109496  1.0000
  H   H39       1.0  0.21360543936813767  0.0163087944439724  0.1131230264140797  1.0000
  H   H40       1.0  0.7864011937912636  0.9836862645604822  0.8868775355897965  1.0000
  H   H41       1.0  0.2349641494718142  0.8733882072237973  0.11782288315190928  1.0000
  H   H42       1.0  0.7650413709855358  0.12660933814246528  0.8821780542973626  1.0000
  H   H43       1.0  0.130523538113465  0.84373297304559  0.2850671871366971  1.0000
  H   H44       1.0  0.8694543274751111  0.1562672149745836  0.7149340512799469  1.0000
  H   H45       1.0  0.08228122424332436  0.9892374300938511  0.28384141703781307  1.0000
  H   H46       1.0  0.9176983439720416  0.01077692811705329  0.7161550033191801  1.0000
  H   H47       1.0  0.19461029733557922  0.8910638195226638  0.36412033137593613  1.0000
  H   H48       1.0  0.8053688115634116  0.10894287163313979  0.635887494486461  1.0000
  H   H49       1.0  0.13116382090572648  0.5407999721719888  0.4935288030357796  1.0000
  H   H50       1.0  0.8688348473913904  0.45920353865051305  0.5064654356227862  1.0000
  H   H51       1.0  0.9855620596290249  0.6358161527987604  0.5027949597163115  1.0000
  H   H52       1.0  0.014444026688963186  0.364182283564638  0.49720241753994543  1.0000
  H   H53       1.0  0.024189109390832207  0.7438021964486977  0.24115083354649874  1.0000
  H   H54       1.0  0.9757974531655549  0.25619029588027326  0.7588604594527766  1.0000
  H   H55       1.0  0.9252921314316462  0.7952343081412466  0.3428345385473294  1.0000
  H   H56       1.0  0.07471496720638267  0.20475262784102452  0.6571568260869967  1.0000
  H   H57       1.0  0.7364789188544022  0.9273928049413058  0.10617864237860185  1.0000
  H   H58       1.0  0.2635190746358731  0.0725989298621599  0.8938251295810744  1.0000
  H   H59       1.0  0.7293660606892448  0.9866848400656701  0.1862935079999701  1.0000
  H   H60       1.0  0.2706182540487916  0.013321210742823598  0.813702394579586  1.0000
  C   C1        1.0  0.25262412001148954  0.6296796509021121  0.20881131687225013  1.0000
  C   C2        1.0  0.7473895393651446  0.3703178690098453  0.7911884197567787  1.0000
  C   C3        1.0  0.4068595677549992  0.6006522917122438  0.16399804915518956  1.0000
  C   C4        1.0  0.5931564720635264  0.39934441348375327  0.8360001573581426  1.0000
  C   C5        1.0  0.4407866383017874  0.6364981487652912  0.07029456889211619  1.0000
  C   C6        1.0  0.55922780783613  0.36349527126188264  0.929702482572779  1.0000
  C   C7        1.0  0.5850078744124119  0.6100846535042166  0.029732489070923365  1.0000
  C   C8        1.0  0.4150004628779199  0.3899111952281089  0.9702696654958416  1.0000
  C   C9        1.0  0.5191655285409027  0.5379379036557665  0.2162269115923863  1.0000
  C   C10       1.0  0.4808435152867361  0.4620563161108605  0.7837734460104072  1.0000
  C   C11       1.0  0.6630237193390939  0.5150606790331268  0.17604585726542143  1.0000
  C   C12       1.0  0.3369837405109236  0.48493934314959114  0.8239550053216576  1.0000
  C   C13       1.0  0.6984143841977969  0.5513738906522079  0.08220167849449918  1.0000
  C   C14       1.0  0.30158997355985667  0.4486285874730881  0.9178018483149373  1.0000
  C   C15       1.0  0.8515833211353722  0.5275835623140352  0.039898903104926844  1.0000
  C   C16       1.0  0.14841775317185577  0.4724215188850564  0.9600993336392348  1.0000
  C   C17       1.0  0.9021286000248598  0.4841653619789879  0.9572125980955164  1.0000
  C   C18       1.0  0.09787926523785023  0.5158404930390361  0.042786480698872316  1.0000
  C   C19       1.0  0.9523235671296177  0.5440916153856605  0.08217132705144081  1.0000
  C   C20       1.0  0.04768033837170546  0.45591844714999036  0.9178255843562441  1.0000
  C   C21       1.0  0.908937571129421  0.5972439354492066  0.1674906463971908  1.0000
  C   C22       1.0  0.09107170254977594  0.4027610712518523  0.8325090409559408  1.0000
  C   C23       1.0  0.6952525026063797  0.6182895947762646  0.4090910777944146  1.0000
  C   C24       1.0  0.30473673926032063  0.3817146917300389  0.5909090559840848  1.0000
  C   C25       1.0  0.5924455026435849  0.5602177254959173  0.46023917258553126  1.0000
  C   C26       1.0  0.40755509068509355  0.4397815841725361  0.5397575336648046  1.0000
  C   C27       1.0  0.6319702508961953  0.44891838508491594  0.4503038991532761  1.0000
  C   C28       1.0  0.36802022923605904  0.5510809073576792  0.549696959551575  1.0000
  C   C29       1.0  0.5418913829917001  0.3866594863291155  0.4887481163528804  1.0000
  C   C30       1.0  0.45810719147239354  0.613333127210552  0.5112527582710767  1.0000
  C   C31       1.0  0.5890273599304052  0.27174019862871995  0.4698062384722803  1.0000
  C   C32       1.0  0.4109564587159155  0.7282600929100695  0.5301874707561467  1.0000
  C   C33       1.0  0.735407343097819  0.20256249114957817  0.4697350086627948  1.0000
  C   C34       1.0  0.26457677705986526  0.7974442454019481  0.5302687524004313  1.0000
  C   C35       1.0  0.7839958672294786  0.09688246622597767  0.4452246104193947  1.0000
  C   C36       1.0  0.21600630000851595  0.9031225504866567  0.554776790508754  1.0000
  C   C37       1.0  0.49256479364591144  0.23129455148652056  0.44617183453506465  1.0000
  C   C38       1.0  0.5074294497765024  0.768700692830599  0.5538225744115408  1.0000
  C   C39       1.0  0.5421319312796554  0.12653413757101362  0.4199326908312173  1.0000
  C   C40       1.0  0.45787095181188403  0.873464430947088  0.5800585081595955  1.0000
  C   C41       1.0  0.6885272309869349  0.0587482637630714  0.41809205927146564  1.0000
  C   C42       1.0  0.31147135242808593  0.9412601275929404  0.5819072700739552  1.0000
  C   C43       1.0  0.7461053849008722  0.9495797472940807  0.38306379935144724  1.0000
  C   C44       1.0  0.2539007769829739  0.0504186277646497  0.6169368921913262  1.0000
  C   C45       1.0  0.1931416561289296  0.34316307530247053  0.3151149036690342  1.0000
  C   C46       1.0  0.8068569970550075  0.656840447780965  0.6848786721322284  1.0000
  C   C47       1.0  0.3131407192993407  0.19141712285436094  0.22590087103144899  1.0000
  C   C48       1.0  0.686855413518117  0.8085830446764317  0.7740956769677325  1.0000
  C   C49       1.0  0.15805786627212376  0.16501733867897878  0.3743344710811413  1.0000
  C   C50       1.0  0.8419368081312014  0.8349861235660042  0.625663682274066  1.0000
  C   C51       1.0  0.42655711190302986  0.8777375780218788  0.25670680430933157  1.0000
  C   C52       1.0  0.573445413006219  0.1222556472289966  0.7433046426747012  1.0000
  C   C53       1.0  0.2838940355154875  0.9292926836984703  0.1314075274487294  1.0000
  C   C54       1.0  0.7161088390118807  0.07070401381704268  0.868595281826714  1.0000
  C   C55       1.0  0.1692237091131971  0.9077023329916472  0.2941223487003057  1.0000
  C   C56       1.0  0.8307630918589266  0.09230281727434428  0.705876663764684  1.0000
  N   N1        1.0  0.22247000157717164  0.23707547147653685  0.3068687687062948  1.0000
  N   N2        1.0  0.7775238604966433  0.7629297055606867  0.6931265416117612  1.0000
  N   N3        1.0  0.29836090910956875  0.9064341146363116  0.2284746729788623  1.0000
  N   N4        1.0  0.701641809627958  0.0935651151029617  0.771525710210227  1.0000
  O   O1        1.0  0.15893127949465935  0.7193743697121988  0.1753230608143069  1.0000
  O   O2        1.0  0.8410715918787159  0.2806113569548713  0.8246903615703546  1.0000
  O   O3        1.0  0.22604912138412908  0.5617281523440808  0.2789569496415538  1.0000
  O   O4        1.0  0.7739322765256559  0.438284487892801  0.7210421636500612  1.0000
  O   O5        1.0  0.8142361375803944  0.6946656849976948  0.16349140844682358  1.0000
  O   O6        1.0  0.18577472196730574  0.305334045638169  0.8365242495506421  1.0000
  O   O7        1.0  0.9762548101584441  0.5379546359328627  0.23415499378550206  1.0000
  O   O8        1.0  0.023739773952605948  0.4620628066914776  0.7658492474319729  1.0000
  O   O9        1.0  0.8271139833495413  0.5695470994296482  0.4233031790988449  1.0000
  O   O10       1.0  0.1728811662353991  0.4304573273780719  0.5766874369195278  1.0000
  O   O11       1.0  0.6446441829296106  0.7067367978720256  0.35459567029793965  1.0000
  O   O12       1.0  0.3553683381767384  0.2932608233091969  0.6453989135751925  1.0000
  O   O13       1.0  0.8691876484412189  0.8815801364783552  0.402890034635213  1.0000
  O   O14       1.0  0.1308184266696486  0.11842259276298957  0.5970992719657887  1.0000
  O   O15       1.0  0.6692658372399691  0.9343503886494627  0.3328063774237792  1.0000
  O   O16       1.0  0.3307730325701214  0.0656204747060869  0.6671924850274848  1.0000
  O   O17       1.0  0.11466635055523255  0.38934083294596894  0.3821583559149744  1.0000
  O   O18       1.0  0.8853359349451893  0.6106702495597317  0.6178286669317217  1.0000
  O   O19       1.0  0.5423763695021149  0.8737150125726173  0.2034537139542608  1.0000
  O   O20       1.0  0.45763443034496737  0.12627807687555048  0.796562497925251  1.0000
  O   O21       1.0  0.07370326635244591  0.6120832914641454  0.45774581223635386  1.0000
  O   O22       1.0  0.9262942946527913  0.38791360587432416  0.5422478046921954  1.0000
  O   O23       1.0  0.939975897163279  0.7428197059934475  0.29597915833257094  1.0000
  O   O24       1.0  0.0600496528503669  0.2571986302618611  0.7040117167575416  1.0000
  O   O25       1.0  0.794644539313346  0.9294725347832581  0.1493967857095271  1.0000
  O   O26       1.0  0.20534269955400927  0.07051835310188888  0.8506113846111774  1.0000
