data_image0
_chemical_formula_structural       Gd4P4H44C36S4N4O36
_chemical_formula_sum              "Gd4 P4 H44 C36 S4 N4 O36"
_cell_length_a       6.752723265000468
_cell_length_b       13.341904244731976
_cell_length_c       15.04109650236512
_cell_angle_alpha    90.51980182219087
_cell_angle_beta     90.00004073656723
_cell_angle_gamma    89.99998643573893

_space_group_name_H-M_alt    "P 1"
_space_group_IT_number       1

loop_
  _space_group_symop_operation_xyz
  'x, y, z'

loop_
  _atom_site_type_symbol
  _atom_site_label
  _atom_site_symmetry_multiplicity
  _atom_site_fract_x
  _atom_site_fract_y
  _atom_site_fract_z
  _atom_site_occupancy
  Gd  Gd1       1.0  0.8726453369724609  0.548001591379055  0.6192514744546147  1.0000
  Gd  Gd2       1.0  0.3726458090583337  0.4519987105041778  0.8807487330458414  1.0000
  Gd  Gd3       1.0  0.1273517815244105  0.45199937366892573  0.3807500697275401  1.0000
  Gd  Gd4       1.0  0.627354271205334  0.5480007586549505  0.1192508026686738  1.0000
  P   P1        1.0  0.866341400112944  0.3755475125873886  0.8032910377375728  1.0000
  P   P2        1.0  0.3663414993392066  0.6244520415581645  0.6967084959502332  1.0000
  P   P3        1.0  0.13365868015161203  0.6244527039814328  0.19670983462892624  1.0000
  P   P4        1.0  0.6336556191562437  0.3755481771494189  0.30329104674407154  1.0000
  H   H1        1.0  0.848954487291465  0.22196350098835885  0.9426491814098696  1.0000
  H   H2        1.0  0.34895873616685685  0.7780360552014824  0.5573503467721397  1.0000
  H   H3        1.0  0.15104263120398542  0.7780367177192244  0.057350361284434805  1.0000
  H   H4        1.0  0.6510472676346595  0.22196266120113964  0.4426511764706476  1.0000
  H   H5        1.0  0.8524005422588344  0.03462167579476019  0.9356090414487356  1.0000
  H   H6        1.0  0.3524017536774835  0.9653778810593321  0.5643898229882964  1.0000
  H   H7        1.0  0.14759953800483322  0.965377793364368  0.06439049426577273  1.0000
  H   H8        1.0  0.6476012883524761  0.03462234085578329  0.435607725199354  1.0000
  H   H9        1.0  0.8518419797452595  0.87568745538605  0.8423703770949729  1.0000
  H   H10       1.0  0.3518437296378422  0.12431135091611618  0.6576291450208489  1.0000
  H   H11       1.0  0.14815810051787537  0.12431201484237418  0.157628493783676  1.0000
  H   H12       1.0  0.6481578315107158  0.8756866180770757  0.34237104156924403  1.0000
  H   H13       1.0  0.8573418822388064  0.7966877491630484  0.6926979169731382  1.0000
  H   H14       1.0  0.3573408719033324  0.20331255772769197  0.8073002911728653  1.0000
  H   H15       1.0  0.14265967890748496  0.2033132212311415  0.3073003030304022  1.0000
  H   H16       1.0  0.6426577274757861  0.7966869125008172  0.19269857970554946  1.0000
  H   H17       1.0  0.8624967086528557  0.8995435066190536  0.5581967624340366  1.0000
  H   H18       1.0  0.3624915174111435  0.10045679859648257  0.9418021121797083  1.0000
  H   H19       1.0  0.1375107760295364  0.10045746377478791  0.441801457570442  1.0000
  H   H20       1.0  0.637504120200809  0.8995434190418973  0.05819809535022101  1.0000
  H   H21       1.0  0.8658200098932625  0.08840596040002419  0.5699892944988251  1.0000
  H   H22       1.0  0.3658159045533935  0.9115943444246565  0.9300095811675889  1.0000
  H   H23       1.0  0.1341859939056391  0.9115950089246139  0.4300095903412783  1.0000
  H   H24       1.0  0.6341797330583674  0.08840437518644959  0.06998994756596491  1.0000
  H   H25       1.0  0.865346167626292  0.23024941514022862  0.6623821393076811  1.0000
  H   H26       1.0  0.3653479045823147  0.7697508876012406  0.8376180658813157  1.0000
  H   H27       1.0  0.134653912637738  0.7697508024978887  0.3376180682229517  1.0000
  H   H28       1.0  0.6346536565667974  0.2302493278981999  0.1623834713212844  1.0000
  H   H29       1.0  0.8357596061267144  0.6512415162675397  0.8107357757724003  1.0000
  H   H30       1.0  0.33575834049302233  0.348758788883913  0.689265084881889  1.0000
  H   H31       1.0  0.16424047413767082  0.3487594498495596  0.189265103574364  1.0000
  H   H32       1.0  0.6642402588866216  0.6512406802753004  0.31073445083239193  1.0000
  H   H33       1.0  0.0540631212587783  0.6107009935960831  0.7915615919199368  1.0000
  H   H34       1.0  0.5540628647096426  0.38929934574944974  0.7084385146850282  1.0000
  H   H35       1.0  0.9459354781212284  0.3892992240421194  0.20843861561046856  1.0000
  H   H36       1.0  0.4459342537859782  0.6107001234098559  0.2915610210290184  1.0000
  H   H37       1.0  0.709401554978669  0.3662614681640618  0.550548496216571  1.0000
  H   H38       1.0  0.20940057121879363  0.6337381022976131  0.94945231743975  1.0000
  H   H39       1.0  0.2905985252865904  0.6337379977871934  0.44945303400553643  1.0000
  H   H40       1.0  0.7905995090448741  0.366261366861515  0.05054721827476531  1.0000
  H   H41       1.0  0.6658338701812312  0.4409509147439365  0.4757727406141045  1.0000
  H   H42       1.0  0.1658337252630773  0.5590499626032538  0.024228150949277  1.0000
  H   H43       1.0  0.3341647291999976  0.5590485512074039  0.5242287896077684  1.0000
  H   H44       1.0  0.8341648741167589  0.4409510045832333  0.9757720635613866  1.0000
  C   C1        1.0  0.8578204230045969  0.2378327426863791  0.8003092049171556  1.0000
  C   C2        1.0  0.35782194398616696  0.7621668124610749  0.6996903260722719  1.0000
  C   C3        1.0  0.14218113814292369  0.7621674760209415  0.1996903377778523  1.0000
  C   C4        1.0  0.6421810980459098  0.23783340517687176  0.30030988145883  1.0000
  C   C5        1.0  0.8552467224181868  0.1820477872506459  0.8793737398189594  1.0000
  C   C6        1.0  0.3552495725894858  0.8179517692686672  0.620625125519716  1.0000
  C   C7        1.0  0.1447533578454809  0.8179516819084894  0.120625795895549  1.0000
  C   C8        1.0  0.6447564312104674  0.18204919791737956  0.37937508899212  1.0000
  C   C9        1.0  0.8553104208252762  0.07881662494362018  0.8749172925857495  1.0000
  C   C10       1.0  0.35531471109246127  0.9211829315681185  0.6250815727733325  1.0000
  C   C11       1.0  0.144686697669286  0.9211828463542701  0.12508091345656422  1.0000
  C   C12       1.0  0.6446912927064333  0.07881803775651261  0.3749173120667778  1.0000
  C   C13       1.0  0.8576072177716086  0.027910239093728292  0.7919943608987838  1.0000
  C   C14       1.0  0.357605692851898  0.9720885675999892  0.7080044982065132  1.0000
  C   C15       1.0  0.142392862491171  0.9720884826557137  0.20800383816374085  1.0000
  C   C16       1.0  0.6423943874117695  0.027910901559138796  0.29199503750800204  1.0000
  C   C17       1.0  0.8567969597526499  0.9220808593776652  0.7830786570167875  1.0000
  C   C18       1.0  0.3567973446332502  0.07791869589021161  0.7169208736483271  1.0000
  C   C19       1.0  0.14320608227853168  0.07791861085058828  0.2169202138623305  1.0000
  C   C20       1.0  0.6432012547474528  0.9220807711304245  0.2830799917376794  1.0000
  C   C21       1.0  0.858120814146858  0.877874430117508  0.6999109605658306  1.0000
  C   C22       1.0  0.3581168682218134  0.12212587347393371  0.8000892423339894  1.0000
  C   C23       1.0  0.1418851896522071  0.12212578965884549  0.3000879172940145  1.0000
  C   C24       1.0  0.6418787693906722  0.8778743430951509  0.19991163003181364  1.0000
  C   C25       1.0  0.8609729214657592  0.9375279634236761  0.6226476179689798  1.0000
  C   C26       1.0  0.36096616439315443  0.062473091519414894  0.877351263142188  1.0000
  C   C27       1.0  0.1390360441011822  0.062473005900784494  0.3773512668715924  1.0000
  C   C28       1.0  0.6390279923347746  0.9375271261190503  0.12264894438751381  1.0000
  C   C29       1.0  0.8618823968218267  0.040886531720808306  0.6284647353599198  1.0000
  C   C30       1.0  0.361876695502815  0.9591145220459791  0.8715348108753177  1.0000
  C   C31       1.0  0.1381265687454771  0.9591151860826342  0.3715348212967769  1.0000
  C   C32       1.0  0.6381204229931613  0.0408856955923085  0.1284653966548532  1.0000
  C   C33       1.0  0.8597292483782724  0.0868583149996383  0.7134087186453187  1.0000
  C   C34       1.0  0.3597278758571605  0.9131412409928146  0.7865901481123105  1.0000
  C   C35       1.0  0.1402752745367692  0.9131419047768006  0.28659015921429193  1.0000
  C   C36       1.0  0.640273685291227  0.08685747754865496  0.2134100454580405  1.0000
  S   S1        1.0  0.9105646933320202  0.692955677160562  0.4604726018340203  1.0000
  S   S2        1.0  0.4105676514126699  0.30704442292942247  0.03952769542028281  1.0000
  S   S3        1.0  0.08943094428275342  0.307043785583069  0.5395309228949758  1.0000
  S   S4        1.0  0.589435390617652  0.6929565474646822  0.9604705245834921  1.0000
  N   N1        1.0  0.859447863548354  0.18936985085134236  0.7220902078953841  1.0000
  N   N2        1.0  0.359449486526465  0.8106304536530117  0.7779093305897292  1.0000
  N   N3        1.0  0.1405522167156761  0.8106303667867749  0.2779099996352485  1.0000
  N   N4        1.0  0.640553555505612  0.18936976398492789  0.22209087694137966  1.0000
  O   O1        1.0  0.8219681077446738  0.4077470829124437  0.7077586865520402  1.0000
  O   O2        1.0  0.3219683739322007  0.5922524753816845  0.7922414979185818  1.0000
  O   O3        1.0  0.1780319725202233  0.5922516345598225  0.2922421718539425  1.0000
  O   O4        1.0  0.6780302254481683  0.4077484907355071  0.20775938142794106  1.0000
  O   O5        1.0  0.7059928044505952  0.40671546681235066  0.8696170789446998  1.0000
  O   O6        1.0  0.2059913316993587  0.5932841083273601  0.6303810742885361  1.0000
  O   O7        1.0  0.2940057949292125  0.5932832527985852  0.1303824497893231  1.0000
  O   O8        1.0  0.7940028250278742  0.4067168599286788  0.3696184753855576  1.0000
  O   O9        1.0  0.0734228016096665  0.3993589205832747  0.8349166508039689  1.0000
  O   O10       1.0  0.5734208971602328  0.6006376698137429  0.6650827621947999  1.0000
  O   O11       1.0  0.9265757977708658  0.6006412959856319  0.1650842215622959  1.0000
  O   O12       1.0  0.4265747404527289  0.39935805053496404  0.3349174034535737  1.0000
  O   O13       1.0  0.8418087969630932  0.7156287490198064  0.5525049283504373  1.0000
  O   O14       1.0  0.34181389566665393  0.2843700573926781  0.9474952554242648  1.0000
  O   O15       1.0  0.1581823979985231  0.284368468287127  0.44749658092948164  1.0000
  O   O16       1.0  0.6581861845972056  0.7156309097937169  0.05250495908663311  1.0000
  O   O17       1.0  0.9264264668319839  0.5793579659661319  0.4584333994187092  1.0000
  O   O18       1.0  0.4264264137017832  0.4206413827105492  0.04156689587829731  1.0000
  O   O19       1.0  0.07357065166522861  0.42064149998528694  0.5415681308029292  1.0000
  O   O20       1.0  0.5735781092129031  0.5793580885869077  0.9584313101651888  1.0000
  O   O21       1.0  0.1117077079053388  0.7368437933860362  0.4451795245268713  1.0000
  O   O22       1.0  0.6117102271699081  0.2631563418467309  0.05482067807898971  1.0000
  O   O23       1.0  0.8882894105931173  0.2631571684540645  0.5548240141628826  1.0000
  O   O24       1.0  0.3882913339767241  0.7368431294509037  0.9451775279640345  1.0000
  O   O25       1.0  0.7721715762519921  0.7280593137092026  0.39227050357222043  1.0000
  O   O26       1.0  0.272176140032265  0.2719400531061282  0.1077297428728059  1.0000
  O   O27       1.0  0.22782406136241923  0.2719394005554392  0.607732349340651  1.0000
  O   O28       1.0  0.7278269019993076  0.7280624131766514  0.8922704855990844  1.0000
  O   O29       1.0  0.9237285290653362  0.6232270067490475  0.7639563038675234  1.0000
  O   O30       1.0  0.42372880576525773  0.3767725385097193  0.7360445776666183  1.0000
  O   O31       1.0  0.0762700703153669  0.3767724602715816  0.2360445615184901  1.0000
  O   O32       1.0  0.5762697936143866  0.6232269306495013  0.2639549580476626  1.0000
  O   O33       1.0  0.6485890292322694  0.4327198914351201  0.5406216042664056  1.0000
  O   O34       1.0  0.148591053862468  0.5672796851080618  0.959379854966855  1.0000
  O   O35       1.0  0.3514095701491299  0.5672788249679355  0.45937991897520203  1.0000
  O   O36       1.0  0.8514090264015548  0.4327205325300553  0.040620352563784906  1.0000
