data_image0
_chemical_formula_structural       Fe6H12C24O30
_chemical_formula_sum              "Fe6 H12 C24 O30"
_cell_length_a       6.845212183062922
_cell_length_b       15.121845560418393
_cell_length_c       15.121688991185863
_cell_angle_alpha    117.75910796230268
_cell_angle_beta     98.68022076156491
_cell_angle_gamma    98.67824466469762

_space_group_name_H-M_alt    "P 1"
_space_group_IT_number       1

loop_
  _space_group_symop_operation_xyz
  'x, y, z'

loop_
  _atom_site_type_symbol
  _atom_site_label
  _atom_site_symmetry_multiplicity
  _atom_site_fract_x
  _atom_site_fract_y
  _atom_site_fract_z
  _atom_site_occupancy
  Fe  Fe1       1.0  0.46283025906529934  0.2574274826319894  0.5676180104379539  1.0000
  Fe  Fe2       1.0  0.20554215612875032  0.31023944393818687  0.7425907404595902  1.0000
  Fe  Fe3       1.0  0.8952648096955542  0.4323747938065026  0.6898089583234251  1.0000
  Fe  Fe4       1.0  0.5371699245086887  0.7425738158858837  0.4323650866078594  1.0000
  Fe  Fe5       1.0  0.7944482745646653  0.6897363639647055  0.2574082519562211  1.0000
  Fe  Fe6       1.0  0.1047509733967048  0.5676458131158884  0.31021064884816957  1.0000
  H   H1        1.0  0.18392734982804634  0.5536041091255869  0.5366624144398955  1.0000
  H   H2        1.0  0.07270072038278394  0.21276878761272405  0.3515980071640498  1.0000
  H   H3        1.0  0.6302545049386055  0.9830308338731654  0.4463843341015447  1.0000
  H   H4        1.0  0.8599976986780644  0.1388329280833958  0.7872241435433124  1.0000
  H   H5        1.0  0.6473104173947348  0.46332343858048836  0.016946670567747874  1.0000
  H   H6        1.0  0.7211561644741807  0.6483653411790727  0.8611481047857835  1.0000
  H   H7        1.0  0.8160792246697358  0.4464188159809269  0.4633397909657972  1.0000
  H   H8        1.0  0.9272758003118325  0.7872649507634081  0.6484124814571288  1.0000
  H   H9        1.0  0.369735259733055  0.016949609612154904  0.5535949498797733  1.0000
  H   H10       1.0  0.13994548344949473  0.8611459705802605  0.2127525729099915  1.0000
  H   H11       1.0  0.3526989965109664  0.5366755408003173  0.9830710231288078  1.0000
  H   H12       1.0  0.2788051313042672  0.3516290033967452  0.1388727514777628  1.0000
  C   C1        1.0  0.27049091865856667  0.4367991948810115  0.6156338898050038  1.0000
  C   C2        1.0  0.3911899568980175  0.466746298603134  0.5559947651110235  1.0000
  C   C3        1.0  0.5736136704263045  0.43606145522286976  0.5352258754661321  1.0000
  C   C4        1.0  0.3225253264288099  0.5296087912977898  0.5201925267855287  1.0000
  C   C5        1.0  0.8337172259003011  0.17884634025612203  0.5632341447203968  1.0000
  C   C6        1.0  0.924465557110885  0.08923418047157133  0.5332288442466434  1.0000
  C   C7        1.0  0.13754700407042722  0.09916117228703313  0.5639088687242192  1.0000
  C   C8        1.0  0.7928676636086537  0.9905942324272846  0.47038395050639553  1.0000
  C   C9        1.0  0.6549308780398063  0.3843635313805507  0.8211393171361363  1.0000
  C   C10       1.0  0.8352732657297252  0.44396637276891243  0.9107425851506432  1.0000
  C   C11       1.0  0.03841061911096951  0.46476810362959514  0.9008401963773734  1.0000
  C   C12       1.0  0.802349274471503  0.4797458498905059  0.009411595275906782  1.0000
  C   C13       1.0  0.729516734275258  0.5632051926252049  0.38436173567939846  1.0000
  C   C14       1.0  0.6087961228428257  0.5332681297695887  0.4440093608834132  1.0000
  C   C15       1.0  0.4264065209870866  0.563959152795029  0.4647741931839917  1.0000
  C   C16       1.0  0.6774833006673758  0.4704064097063494  0.4798088646341867  1.0000
  C   C17       1.0  0.16628946123164212  0.821147233385652  0.4367623282459405  1.0000
  C   C18       1.0  0.07552769000342639  0.9107532142758789  0.46675920596239007  1.0000
  C   C19       1.0  0.8624485568692039  0.9008308569772582  0.43607885311385514  1.0000
  C   C20       1.0  0.2071218496617888  0.009391617789340504  0.5295984968250663  1.0000
  C   C21       1.0  0.345080769335631  0.6156369935220171  0.17886602263466497  1.0000
  C   C22       1.0  0.16471724427635345  0.5560302899560486  0.08926348434270188  1.0000
  C   C23       1.0  0.9616047034899964  0.5352308758557812  0.09917591560103742  1.0000
  C   C24       1.0  0.19765858378590906  0.5202500403866139  0.9905959563142657  1.0000
  O   O1        1.0  0.3224046603055656  0.37619468058933603  0.6468116112050665  1.0000
  O   O2        1.0  0.11532670008880075  0.47332211154112985  0.6349563469186207  1.0000
  O   O3        1.0  0.6517601794685035  0.37512566757904153  0.5660831160019626  1.0000
  O   O4        1.0  0.09877908261948681  0.2269634406070082  0.42305362415500974  1.0000
  O   O5        1.0  0.292509022910984  0.20219358620417446  0.43376673167036717  1.0000
  O   O6        1.0  0.9462583101249749  0.27061396939881643  0.6238395280264583  1.0000
  O   O7        1.0  0.6420517327005938  0.16165384886357265  0.526743671916435  1.0000
  O   O8        1.0  0.27658292754184544  0.19093426639016547  0.6248347217895044  1.0000
  O   O9        1.0  0.8719494176937844  0.19610680047080115  0.7730452877070491  1.0000
  O   O10       1.0  0.09043129187475785  0.23159181323929806  0.797827870013741  1.0000
  O   O11       1.0  0.6757130712315912  0.35321330453199123  0.7293687841637747  1.0000
  O   O12       1.0  0.4804760696243164  0.36506482778639093  0.838316997974921  1.0000
  O   O13       1.0  0.08568122977907687  0.4338659000318828  0.8090312030343229  1.0000
  O   O14       1.0  0.6758410888528276  0.5769292367585168  0.8038647948597981  1.0000
  O   O15       1.0  0.8589028147024536  0.5662561725746402  0.7684224465118844  1.0000
  O   O16       1.0  0.6775927529251791  0.6237981215817715  0.35316733859161803  1.0000
  O   O17       1.0  0.8846961999121773  0.5266861372317921  0.36505468007931796  1.0000
  O   O18       1.0  0.3482570680478431  0.624894939928424  0.43392601027878885  1.0000
  O   O19       1.0  0.9012055069866635  0.7730332225265006  0.5769447682723411  1.0000
  O   O20       1.0  0.7074810691303739  0.7978023055185094  0.5662138206714502  1.0000
  O   O21       1.0  0.05375012878231911  0.7293741965207092  0.37617173839305457  1.0000
  O   O22       1.0  0.3579554586990171  0.8383466770326254  0.4732435098975287  1.0000
  O   O23       1.0  0.723412883962965  0.8090523561794715  0.3751491753567038  1.0000
  O   O24       1.0  0.12804622527352205  0.8038883177152629  0.22695578236928074  1.0000
  O   O25       1.0  0.9095718131348322  0.7683886284746324  0.20218406356119092  1.0000
  O   O26       1.0  0.32430481638903796  0.6468026685292545  0.2706395489580018  1.0000
  O   O27       1.0  0.5195329893221228  0.6349187045665519  0.16167760308422174  1.0000
  O   O28       1.0  0.9143298371533463  0.566124583437933  0.1909747090426706  1.0000
  O   O29       1.0  0.3241465869684887  0.4230736056818999  0.19613404152857328  1.0000
  O   O30       1.0  0.14111232661342402  0.4337690688672781  0.23159663113523976  1.0000
