data_image0
_chemical_formula_structural       Cu2H40C56S8N4Cl4
_chemical_formula_sum              "Cu2 H40 C56 S8 N4 Cl4"
_cell_length_a       8.794943012051654
_cell_length_b       10.922987719006185
_cell_length_c       13.396174680668297
_cell_angle_alpha    90.00000104518831
_cell_angle_beta     98.90416831715176
_cell_angle_gamma    89.99987924039966

_space_group_name_H-M_alt    "P 1"
_space_group_IT_number       1

loop_
  _space_group_symop_operation_xyz
  'x, y, z'

loop_
  _atom_site_type_symbol
  _atom_site_label
  _atom_site_symmetry_multiplicity
  _atom_site_fract_x
  _atom_site_fract_y
  _atom_site_fract_z
  _atom_site_occupancy
  Cu  Cu1       1.0  0.9999976324574791  6.637579730000025e-08  5.155128305952728e-07  1.0000
  Cu  Cu2       1.0  1.4472589455990521e-06  0.4999996511931002  0.499999632243643  1.0000
  H   H1        1.0  0.39110033808015043  0.016214097933243497  0.20257700508661708  1.0000
  H   H2        1.0  0.6088940644365053  0.5162098985192641  0.297420454644346  1.0000
  H   H3        1.0  0.6088944346825187  0.983787101834508  0.7974222230987779  1.0000
  H   H4        1.0  0.3911087439208814  0.48378947024078645  0.7025780511130577  1.0000
  H   H5        1.0  0.46852542851708284  0.8072970424930757  0.2657602643791179  1.0000
  H   H6        1.0  0.5314647426276268  0.3072945956000054  0.2342367902691223  1.0000
  H   H7        1.0  0.531469374697501  0.19270507277509805  0.7342412062589216  1.0000
  H   H8        1.0  0.4685380657285308  0.6927056886604815  0.7657617154881677  1.0000
  H   H9        1.0  0.7025073793481129  0.7074770845428234  0.21910226026742657  1.0000
  H   H10       1.0  0.29748425032565257  0.2074768668557993  0.280897920054862  1.0000
  H   H11       1.0  0.2974897661547617  0.29252503072339653  0.7809024210334314  1.0000
  H   H12       1.0  0.7025185580292828  0.7925243329051244  0.7191005857023072  1.0000
  H   H13       1.0  0.8581207731253997  0.8117863243510327  0.1051378706328734  1.0000
  H   H14       1.0  0.1418763418067641  0.3117900349978768  0.39486358247206244  1.0000
  H   H15       1.0  0.14187750291988982  0.1882139599133481  0.8948654260626083  1.0000
  H   H16       1.0  0.8581264563958941  0.6882120802634758  0.6051341758007353  1.0000
  H   H17       1.0  0.8480994557080379  0.5593178700361037  0.9246870207078074  1.0000
  H   H18       1.0  0.15190489924329847  0.05931881136434208  0.5753163513420674  1.0000
  H   H19       1.0  0.1518987797330595  0.4406824142282844  0.0753132860506511  1.0000
  H   H20       1.0  0.8480979294198578  0.9406778108944067  0.42468364938419967  1.0000
  H   H21       1.0  0.9407198919491438  0.48206145484923707  0.7706916330137545  1.0000
  H   H22       1.0  0.0592856437122862  0.982062765086553  0.7293125997839454  1.0000
  H   H23       1.0  0.0592783536442241  0.5179379139147144  0.22930942122907538  1.0000
  H   H24       1.0  0.9407194967847946  0.017934772670670895  0.2706883691522535  1.0000
  H   H25       1.0  0.9329513965027729  0.2601285923295079  0.7323247488048849  1.0000
  H   H26       1.0  0.0670512500008726  0.7601289745714224  0.7676769668672064  1.0000
  H   H27       1.0  0.06704915077470021  0.7398707764324896  0.2676765261637399  1.0000
  H   H28       1.0  0.9329538498932454  0.2398676476853793  0.2323210121320898  1.0000
  H   H29       1.0  0.8342726811578133  0.11381980628782876  0.8498991790587597  1.0000
  H   H30       1.0  0.16572459246199867  0.6138181878207049  0.6501012745068026  1.0000
  H   H31       1.0  0.1657244135910503  0.886181393477969  0.1501017648209455  1.0000
  H   H32       1.0  0.8342781955981879  0.3861775189376075  0.34989573628256204  1.0000
  H   H33       1.0  0.5331563056348045  0.5901476070172151  0.08960652014258838  1.0000
  H   H34       1.0  0.46684251257654114  0.09014527306954527  0.4103921097299619  1.0000
  H   H35       1.0  0.4668430704936171  0.40985542374749423  0.910393149494169  1.0000
  H   H36       1.0  0.5331580042477811  0.909854095692459  0.5896069227859044  1.0000
  H   H37       1.0  0.6099265367034974  0.6023777201564043  0.9751138771088463  1.0000
  H   H38       1.0  0.3900730590630204  0.10237734059619191  0.5248860526066892  1.0000
  H   H39       1.0  0.3900728394273757  0.3976234796074394  0.0248857925281385  1.0000
  H   H40       1.0  0.6099263069204784  0.8976211126663499  0.4751128695463933  1.0000
  C   C1        1.0  0.733069909620312  0.16049026584482104  0.02086265507669791  1.0000
  C   C2        1.0  0.2669299016701602  0.6604893969724585  0.4791383097300965  1.0000
  C   C3        1.0  0.2669272054306476  0.8395109339209694  0.9791397837715152  1.0000
  C   C4        1.0  0.7330752083701031  0.3395108872860745  0.5208604167529884  1.0000
  C   C5        1.0  0.718776120655747  0.9760949675195716  0.09537921845917909  1.0000
  C   C6        1.0  0.2812205140396387  0.4760956951998805  0.4046192029415678  1.0000
  C   C7        1.0  0.28121867240901116  0.023906232248172902  0.9046215046947238  1.0000
  C   C8        1.0  0.7187857569949475  0.5239036735572425  0.5953803813887859  1.0000
  C   C9        1.0  0.5864726378352928  0.03235145747084539  0.1230256197669561  1.0000
  C   C10       1.0  0.41352174180222795  0.5323494222914461  0.3769733308300971  1.0000
  C   C11       1.0  0.41351985354658904  0.9676488267984167  0.8769748826612657  1.0000
  C   C12       1.0  0.5864822376980783  0.4676508619680603  0.6230267802585985  1.0000
  C   C13       1.0  0.49475847073172485  0.9725704818723099  0.18422181884581326  1.0000
  C   C14       1.0  0.5052347107197976  0.4725689965055081  0.3157755248781982  1.0000
  C   C15       1.0  0.5052351511901136  0.027429802395985792  0.8157772989767977  1.0000
  C   C16       1.0  0.49476925863068294  0.527430372253562  0.6842238387263606  1.0000
  C   C17       1.0  0.5382489549672016  0.8554742777064207  0.2178452851328458  1.0000
  C   C18       1.0  0.4617387449811829  0.3554728655926099  0.2821485466057183  1.0000
  C   C19       1.0  0.4617423449684352  0.14452600656382938  0.7821521169954693  1.0000
  C   C20       1.0  0.538266375210128  0.6445274186659161  0.7178509273616243  1.0000
  C   C21       1.0  0.669156754692054  0.7984870107692358  0.1903263188613451  1.0000
  C   C22       1.0  0.33083688239764086  0.2984867369642856  0.3096703216305912  1.0000
  C   C23       1.0  0.33084034005558044  0.20151510449699112  0.8096746250182463  1.0000
  C   C24       1.0  0.6691659361083425  0.7015144627966307  0.6903289316108355  1.0000
  C   C25       1.0  0.7591248034354481  0.8570890321098332  0.1283624778778787  1.0000
  C   C26       1.0  0.24087104959549782  0.35708891221479877  0.3716396008328715  1.0000
  C   C27       1.0  0.24087234206865568  0.14291216765595038  0.8716422034230931  1.0000
  C   C28       1.0  0.7591352214341923  0.6429141185440556  0.6283599834970133  1.0000
  C   C29       1.0  0.7875091963832619  0.25313612553377846  0.9554391704708463  1.0000
  C   C30       1.0  0.21249119760055635  0.7531353412351149  0.5445645687058587  1.0000
  C   C31       1.0  0.2124890695097505  0.7468650742310388  0.0445633787402642  1.0000
  C   C32       1.0  0.7875093192225509  0.24686494302731887  0.45543446380988667  1.0000
  C   C33       1.0  0.7873044386411153  0.38055547632155395  0.9748198573869614  1.0000
  C   C34       1.0  0.21269791609277186  0.8805556068226181  0.5251840701251922  1.0000
  C   C35       1.0  0.21269266626001843  0.6194448079438075  0.025181833977107698  1.0000
  C   C36       1.0  0.7873060431091119  0.11944193093558647  0.47481454599533623  1.0000
  C   C37       1.0  0.8434356715565771  0.461521370956298  0.9078538633249379  1.0000
  C   C38       1.0  0.1565641648583025  0.961518851497139  0.5921498228800885  1.0000
  C   C39       1.0  0.15655681982285327  0.5384807443138372  0.0921466391030563  1.0000
  C   C40       1.0  0.8434409350345861  0.038478686260099  0.40784815611909403  1.0000
  C   C41       1.0  0.8956424759002463  0.41840491739103663  0.8213680033402326  1.0000
  C   C42       1.0  0.1043643504768639  0.9184043191548881  0.6786341135494496  1.0000
  C   C43       1.0  0.104356890079579  0.5815962823728142  0.1786309188125017  1.0000
  C   C44       1.0  0.8956407494184763  0.08159138760147747  0.3213638654499604  1.0000
  C   C45       1.0  0.8921275564638976  0.2931315027639982  0.8002652403701943  1.0000
  C   C46       1.0  0.1078750423389607  0.7931318144452105  0.699739456849528  1.0000
  C   C47       1.0  0.10787069927928883  0.7068687815003826  0.19973656135677234  1.0000
  C   C48       1.0  0.8921289168617008  0.20686663881343745  0.30025915927089386  1.0000
  C   C49       1.0  0.8395306678449687  0.21161996686711138  0.8669856513296138  1.0000
  C   C50       1.0  0.16047210845344753  0.7116192725154349  0.6330160766735914  1.0000
  C   C51       1.0  0.16046872858922256  0.7883803173962957  0.1330155132759998  1.0000
  C   C52       1.0  0.8395318405973952  0.2883782652427768  0.36698179196268643  1.0000
  C   C53       1.0  0.5670248084553933  0.5374348936853862  0.02669341330859251  1.0000
  C   C54       1.0  0.4329753117886313  0.03743444939519949  0.47330608781052763  1.0000
  C   C55       1.0  0.4329745778252985  0.46256722157889396  0.9733070038125362  1.0000
  C   C56       1.0  0.5670263457266956  0.9625649193658317  0.5266923075839784  1.0000
  S   S1        1.0  0.5673939621652053  0.17883337371435457  0.0748302368388565  1.0000
  S   S2        1.0  0.43260462890251733  0.6788313070045858  0.4251691179738302  1.0000
  S   S3        1.0  0.4326008207497267  0.8211669105529608  0.9251697388309097  1.0000
  S   S4        1.0  0.5674016421320687  0.3211680617525373  0.5748304663565235  1.0000
  S   S5        1.0  0.7258362373039943  0.441615737411695  0.08481008037578157  1.0000
  S   S6        1.0  0.2741628217860211  0.9416148550961975  0.4151908129684116  1.0000
  S   S7        1.0  0.27416199813465175  0.5583863778535588  0.9151902263824425  1.0000
  S   S8        1.0  0.7258376645851572  0.05838451366581408  0.584805977094689  1.0000
  N   N1        1.0  0.7981078682702788  0.051328685494617284  0.03778369632306778  1.0000
  N   N2        1.0  0.2018887927246524  0.5513288422695694  0.4622177126282239  1.0000
  N   N3        1.0  0.20188578410592578  0.948670683273235  0.9622176639524298  1.0000
  N   N4        1.0  0.7981128850903262  0.4486723574923205  0.537782177734563  1.0000
  Cl  Cl1       1.0  0.1250637166117343  0.1408441435978176  0.1088687526256322  1.0000
  Cl  Cl2       1.0  0.8749338151082924  0.6408431560839957  0.3911297539966938  1.0000
  Cl  Cl3       1.0  0.8749333679873034  0.8591561406675436  0.8911314437699359  1.0000
  Cl  Cl4       1.0  0.12506786270791545  0.35915712817745765  0.6088701363662068  1.0000
