data_image0
_chemical_formula_structural       Rb2H14C16O16
_chemical_formula_sum              "Rb2 H14 C16 O16"
_cell_length_a       5.532182973104053
_cell_length_b       9.819591113794802
_cell_length_c       10.797832284164746
_cell_angle_alpha    80.61586859362845
_cell_angle_beta     88.39557114913892
_cell_angle_gamma    72.17465525641946

_space_group_name_H-M_alt    "P 1"
_space_group_IT_number       1

loop_
  _space_group_symop_operation_xyz
  'x, y, z'

loop_
  _atom_site_type_symbol
  _atom_site_label
  _atom_site_symmetry_multiplicity
  _atom_site_fract_x
  _atom_site_fract_y
  _atom_site_fract_z
  _atom_site_occupancy
  Rb  Rb1       1.0  0.794521216432486  0.3649561678737996  0.147908532035153  1.0000
  Rb  Rb2       1.0  0.20549043946024173  0.6350315978553454  0.8521044475625742  1.0000
  H   H1        1.0  0.2530147510809969  0.9780298949103639  0.2571055875992271  1.0000
  H   H2        1.0  0.7469695199674005  0.021962271494786  0.7428839060944269  1.0000
  H   H3        1.0  0.2873019427799407  0.789858129338306  0.1448114323212408  1.0000
  H   H4        1.0  0.7127182790804341  0.21013459741578086  0.8551682545281236  1.0000
  H   H5        1.0  0.8401890605860486  0.8930313847583594  0.08012398819639796  1.0000
  H   H6        1.0  0.15981846164948618  0.10697563765939579  0.9198675392806803  1.0000
  H   H7        1.0  0.35377099336904655  0.14858727741091124  0.3258088223258254  1.0000
  H   H8        1.0  0.6462251810096832  0.8513952931616939  0.6742060853447638  1.0000
  H   H9        1.0  0.6933811281112127  0.24578190293005522  0.4630454182450946  1.0000
  H   H10       1.0  0.30661069910149064  0.7542093290466312  0.5369672775391549  1.0000
  H   H11       1.0  0.5254891295751208  0.3974579683924945  0.6109212742741831  1.0000
  H   H12       1.0  0.47449797663487214  0.602553641772829  0.3890735078259908  1.0000
  H   H13       1.0  0.18709885312499352  0.3216126474845993  0.6281599730698062  1.0000
  H   H14       1.0  0.8128876550849996  0.6784000935927635  0.3718392722966044  1.0000
  C   C1        1.0  0.6066846557878662  0.027208390524869203  0.21117953982233925  1.0000
  C   C2        1.0  0.3933016454270304  0.9727903557649712  0.7888228013739462  1.0000
  C   C3        1.0  0.4252890780574747  0.9441525076760369  0.2036096446104239  1.0000
  C   C4        1.0  0.5747038881611247  0.05584390297026689  0.7963827855738896  1.0000
  C   C5        1.0  0.4446735341860659  0.8354535193594971  0.1385797109541825  1.0000
  C   C6        1.0  0.5553384417603624  0.16454474753413  0.8614047801125791  1.0000
  C   C7        1.0  0.6479294036194504  0.7602945139569003  0.05789966780239548  1.0000
  C   C8        1.0  0.35210247972916875  0.23970361089612172  0.9420938528449623  1.0000
  C   C9        1.0  0.09507600488094428  0.22709384249481704  0.47392734264025177  1.0000
  C   C10       1.0  0.904919133734161  0.7729016322464376  0.5260818754768337  1.0000
  C   C11       1.0  0.8272361963297076  0.2798557439658468  0.5136832717248153  1.0000
  C   C12       1.0  0.17275571653797078  0.7201461962394476  0.4863212817811017  1.0000
  C   C13       1.0  0.7303261506391013  0.36646927267766927  0.5994082862410152  1.0000
  C   C14       1.0  0.2696638218577974  0.6335401859625165  0.40059049705870803  1.0000
  C   C15       1.0  0.8529656299651976  0.43387229036881786  0.683098675200462  1.0000
  C   C16       1.0  0.14701927602556017  0.5661436740285665  0.3168973130307008  1.0000
  O   O1        1.0  0.8112070992589154  0.0050256483781226  0.1516400912284794  1.0000
  O   O2        1.0  0.18877487609893967  0.994981740491781  0.8483581884221391  1.0000
  O   O3        1.0  0.5459486432006103  0.12877609495214407  0.28002226405415337  1.0000
  O   O4        1.0  0.4540419199444159  0.8712140652296724  0.7199896876657944  1.0000
  O   O5        1.0  0.8499233707794648  0.8046464626369669  0.033197099582871224  1.0000
  O   O6        1.0  0.15010030927316365  0.19535716470757336  0.9667975259632297  1.0000
  O   O7        1.0  0.6237603550696066  0.6565962298689809  0.01299847545742953  1.0000
  O   O8        1.0  0.37630110920181886  0.3433897499850076  0.9870021053882424  1.0000
  O   O9        1.0  0.12293199302314406  0.17942173993152724  0.3688479007192028  1.0000
  O   O10       1.0  0.8770707078509401  0.8205586173536191  0.6311691187250544  1.0000
  O   O11       1.0  0.2794457137126826  0.23060505669407413  0.539490263705602  1.0000
  O   O12       1.0  0.720547431259213  0.769397983542099  0.4605178083536145  1.0000
  O   O13       1.0  0.10469552841003361  0.3995206730492811  0.6882868245617856  1.0000
  O   O14       1.0  0.8952901075753349  0.6004974375829732  0.31170882202192723  1.0000
  O   O15       1.0  0.7192681157820289  0.5200981605969801  0.7476800899711974  1.0000
  O   O16       1.0  0.2807157327170701  0.4799199432684062  0.25231280200679856  1.0000
