data_image0
_chemical_formula_structural       Ag4H28C26S4N8O12
_chemical_formula_sum              "Ag4 H28 C26 S4 N8 O12"
_cell_length_a       5.091060022068471
_cell_length_b       12.674892499814419
_cell_length_c       14.096232476637002
_cell_angle_alpha    82.93729078084195
_cell_angle_beta     79.63240113724324
_cell_angle_gamma    78.42118331000368

_space_group_name_H-M_alt    "P 1"
_space_group_IT_number       1

loop_
  _space_group_symop_operation_xyz
  'x, y, z'

loop_
  _atom_site_type_symbol
  _atom_site_label
  _atom_site_symmetry_multiplicity
  _atom_site_fract_x
  _atom_site_fract_y
  _atom_site_fract_z
  _atom_site_occupancy
  Ag  Ag1       1.0  0.1468479488677163  0.8862247458994971  0.00026515499128269517  1.0000
  Ag  Ag2       1.0  0.9664202066470224  0.38634469262925103  0.5001186605346888  1.0000
  Ag  Ag3       1.0  0.8531560572785755  0.11377614980643355  0.9997337029052884  1.0000
  Ag  Ag4       1.0  0.03358238240823423  0.6136562124051395  0.4998816154824296  1.0000
  H   H1        1.0  0.5832394301708492  0.8055612583467706  0.830143626554154  1.0000
  H   H2        1.0  0.7813835441304352  0.30555936157538344  0.33010520489920475  1.0000
  H   H3        1.0  0.4167656038118111  0.19443639265042373  0.1698539616519241  1.0000
  H   H4        1.0  0.21861867541306898  0.6944423520853178  0.6698950016359716  1.0000
  H   H5        1.0  0.6935783595956977  0.8245222437952577  0.6477408923153902  1.0000
  H   H6        1.0  0.8342755476771659  0.32437559574528047  0.14769245622780858  1.0000
  H   H7        1.0  0.30641925540120973  0.1754778351199562  0.35225680801200804  1.0000
  H   H8        1.0  0.16572182872777602  0.6756285420442508  0.852307282866114  1.0000
  H   H9        1.0  0.3621880916264645  0.9522700348515657  0.5555031566929216  1.0000
  H   H10       1.0  0.12972322672983688  0.4522301956135237  0.055500228816121884  1.0000
  H   H11       1.0  0.6378041133412039  0.04773006650977149  0.4444979594381381  1.0000
  H   H12       1.0  0.8702797820580706  0.5477723322127588  0.944500746795093  1.0000
  H   H13       1.0  0.9462188877600046  0.05482233082032911  0.6445479603122948  1.0000
  H   H14       1.0  0.3536346071497152  0.5550544821178748  0.14456168523418  1.0000
  H   H15       1.0  0.053778549600892324  0.9451785817924473  0.35545347482995027  1.0000
  H   H16       1.0  0.646369849207204  0.4449464237915635  0.8554387202806524  1.0000
  H   H17       1.0  0.551363596904601  0.11749612862261931  0.7180821124007009  1.0000
  H   H18       1.0  0.6125395245998675  0.617711036520376  0.21813249549361297  1.0000
  H   H19       1.0  0.4486369634512357  0.8825031378770943  0.28191507784607234  1.0000
  H   H20       1.0  0.3874615666654793  0.38228905901267035  0.7818677205077407  1.0000
  H   H21       1.0  0.38794668703384616  0.17631076361551834  0.8248789871931451  1.0000
  H   H22       1.0  0.6108168502225413  0.6765299753415166  0.3249290144362077  1.0000
  H   H23       1.0  0.6120531952544539  0.8236868949600549  0.17511976013806665  1.0000
  H   H24       1.0  0.3891838410530753  0.3234725414062111  0.6750702840590391  1.0000
  H   H25       1.0  0.896949070878606  0.2311139176189414  0.6895897081399835  1.0000
  H   H26       1.0  0.1821319253958151  0.7314017471269167  0.18955081900524107  1.0000
  H   H27       1.0  0.10305157017611324  0.7688861677105903  0.3104089602431017  1.0000
  H   H28       1.0  0.817866878835219  0.2685967247391901  0.8104485679043023  1.0000
  C   C1        1.0  0.44691440369509017  0.8584924310737133  0.7857834448208435  1.0000
  C   C2        1.0  0.9087324640288871  0.3586028885460237  0.2857546406888716  1.0000
  C   C3        1.0  0.5530828722680567  0.14150684387942647  0.21421503404877024  1.0000
  C   C4        1.0  0.0912693860028785  0.6413996337409812  0.714245496364363  1.0000
  C   C5        1.0  0.5066710956178543  0.8695911453875453  0.6851879812904399  1.0000
  C   C6        1.0  0.9384381206274455  0.36957587634947947  0.18516394191084365  1.0000
  C   C7        1.0  0.4933276279142974  0.13040650764874331  0.3148099274827914  1.0000
  C   C8        1.0  0.06155566282900809  0.6304258533430199  0.8148387123722997  1.0000
  C   C9        1.0  0.32309129073326665  0.9408723964965231  0.634150870954386  1.0000
  C   C10       1.0  0.10146804434279497  0.44092901856731703  0.13415610751570736  1.0000
  C   C11       1.0  0.6769001249899987  0.05912689069922548  0.3658494761006352  1.0000
  C   C12       1.0  0.8985271562046935  0.5590727017967154  0.8658451286468889  1.0000
  C   C13       1.0  0.08773617211898738  0.9982979555250752  0.6842463262891838  1.0000
  C   C14       1.0  0.2291067695276043  0.49851261240753786  0.18426521587541334  1.0000
  C   C15       1.0  0.9122635325333025  0.0017005367480535999  0.3157561558568815  1.0000
  C   C16       1.0  0.7708932436804763  0.5014882964160492  0.8157356397042719  1.0000
  C   C17       1.0  0.044917218349759744  0.9827956722597689  0.785348505114392  1.0000
  C   C18       1.0  0.18646798296393313  0.48306287561843664  0.2853603583169572  1.0000
  C   C19       1.0  0.9550838226946824  0.017201991855081596  0.2146510807748001  1.0000
  C   C20       1.0  0.8135342365795781  0.5169388380422645  0.7146398482182191  1.0000
  C   C21       1.0  0.5883070516563438  0.15274493711537218  0.780890290351742  1.0000
  C   C22       1.0  0.4777831737962617  0.6530103124623993  0.2809212298110495  1.0000
  C   C23       1.0  0.41169443959872604  0.847252737202993  0.2191108431557183  1.0000
  C   C24       1.0  0.5222153416219089  0.3469897868598365  0.7190795657528639  1.0000
  C   C25       1.0  0.7308222095385588  0.24986259747234393  0.7499959597498673  1.0000
  C   C26       1.0  0.2691758556689762  0.7501374916463774  0.25000328819579204  1.0000
  S   S1        1.0  0.7491382570739304  0.0444935869686134  0.8592840636012724  1.0000
  S   S2        1.0  0.34689249639386366  0.5447571403203425  0.3593073658746845  1.0000
  S   S3        1.0  0.25086017764535073  0.9555056935238039  0.140715253826329  1.0000
  S   S4        1.0  0.6531119599630558  0.45524376558909546  0.6406930396401407  1.0000
  N   N1        1.0  0.22057492854570895  0.9139832812665389  0.835222033444225  1.0000
  N   N2        1.0  0.030003631962110002  0.4141970924802082  0.3352068066775756  1.0000
  N   N3        1.0  0.7794295080682829  0.08601358063632598  0.1647785899826175  1.0000
  N   N4        1.0  0.9699985875814013  0.5858046211804931  0.6647933998575936  1.0000
  N   N5        1.0  0.6920888272012818  0.7321073337367494  0.02437923512106009  1.0000
  N   N6        1.0  0.5520421492602737  0.23200621858209292  0.5243013346396168  1.0000
  N   N7        1.0  0.30791002725064964  0.26789356954755306  0.9756207819006375  1.0000
  N   N8        1.0  0.4479618873639951  0.76799306453546  0.475698371281112  1.0000
  O   O1        1.0  0.4736433774904259  0.7010286472623547  0.01825998195958079  1.0000
  O   O2        1.0  0.8077546095437713  0.20107785503167716  0.5179344414870997  1.0000
  O   O3        1.0  0.5263533208469726  0.29897388260302893  0.9817413142187873  1.0000
  O   O4        1.0  0.19224755977883484  0.7989214272108285  0.4820651349359224  1.0000
  O   O5        1.0  0.7228785401722462  0.8275278683103978  0.9872817694310355  1.0000
  O   O6        1.0  0.46222362271827705  0.32736539060433506  0.4872578179760367  1.0000
  O   O7        1.0  0.27712512694027686  0.17247222343345914  0.012717867007758307  1.0000
  O   O8        1.0  0.5377789968149572  0.672633901841678  0.5127433060652464  1.0000
  O   O9        1.0  0.8719229189917147  0.6723571156401958  0.06669093359632682  1.0000
  O   O10       1.0  0.39027701169209933  0.1721205715932683  0.5667998473557319  1.0000
  O   O11       1.0  0.12807667448371524  0.3276421703914991  0.933309222389255  1.0000
  O   O12       1.0  0.6097273944439224  0.8278779028979814  0.433199928046939  1.0000
