data_image0
_chemical_formula_structural       Zn2H36C44N8O8
_chemical_formula_sum              "Zn2 H36 C44 N8 O8"
_cell_length_a       10.460964829711322
_cell_length_b       10.429977815644722
_cell_length_c       10.740538601787277
_cell_angle_alpha    60.951752232736844
_cell_angle_beta     84.43449003926439
_cell_angle_gamma    78.47828943552858

_space_group_name_H-M_alt    "P 1"
_space_group_IT_number       1

loop_
  _space_group_symop_operation_xyz
  'x, y, z'

loop_
  _atom_site_type_symbol
  _atom_site_label
  _atom_site_symmetry_multiplicity
  _atom_site_fract_x
  _atom_site_fract_y
  _atom_site_fract_z
  _atom_site_occupancy
  Zn  Zn1       1.0  0.6991631467373056  0.8629531810619326  0.6041333569007037  1.0000
  Zn  Zn2       1.0  0.19916446606404042  0.46708687132749566  0.3958653259468934  1.0000
  H   H1        1.0  0.3486407643464347  0.40300330189455774  0.7980176673409716  1.0000
  H   H2        1.0  0.8486441401434065  0.20101924677241814  0.2019852157914315  1.0000
  H   H3        1.0  0.37515591555926875  0.42615907053075824  0.014740219722085559  1.0000
  H   H4        1.0  0.8751581475027951  0.44089830591530466  0.9852573114662704  1.0000
  H   H5        1.0  0.20096441924860645  0.5784603898980124  0.08299839752120869  1.0000
  H   H6        1.0  0.7009636165511639  0.6614546493929299  0.9169975516815398  1.0000
  H   H7        1.0  0.9995167615900303  0.7132767676413395  0.9313219883576596  1.0000
  H   H8        1.0  0.4995176588883723  0.6445966348950448  0.06867432673855943  1.0000
  H   H9        1.0  0.5595284314991177  0.34785436813076137  0.8255350544997526  1.0000
  H   H10       1.0  0.05952643878551811  0.17339007920026014  0.17446466656375043  1.0000
  H   H11       1.0  0.5875101093723529  0.16314910698409343  0.08131840776771782  1.0000
  H   H12       1.0  0.08750843637680819  0.2444681284357346  0.9186824151277976  1.0000
  H   H13       1.0  0.9165169631520559  0.9097205358873243  0.9774525496291133  1.0000
  H   H14       1.0  0.41651432998633464  0.8871714944822598  0.02254983298922755  1.0000
  H   H15       1.0  0.8828998309838667  0.0872382164332494  0.7229625055973372  1.0000
  H   H16       1.0  0.38289806041009217  0.8101985955008006  0.27703990941717654  1.0000
  H   H17       1.0  0.7890411794411494  0.32781898682804206  0.5383616064737498  1.0000
  H   H18       1.0  0.28903938311306393  0.8661800852223466  0.4616385870754911  1.0000
  H   H19       1.0  0.6229246004127446  0.3152037564839107  0.5526930017728375  1.0000
  H   H20       1.0  0.12292397630079695  0.8678957978965869  0.4473102728893394  1.0000
  H   H21       1.0  0.8199676416117757  0.9662012413910477  0.2574451342069677  1.0000
  H   H22       1.0  0.3199686732049187  0.22364652952245503  0.7425570662419859  1.0000
  H   H23       1.0  0.679559703898839  0.897684581327077  0.2583924346672503  1.0000
  H   H24       1.0  0.17955964073282615  0.15607960247285058  0.7416065650304661  1.0000
  H   H25       1.0  0.8351584086517718  0.5296336160792662  0.6323639493941187  1.0000
  H   H26       1.0  0.33515817157692135  0.1619974944773333  0.3676360686917306  1.0000
  H   H27       1.0  0.48120412089544135  0.8225663133539812  0.45908120139261405  1.0000
  H   H28       1.0  0.9812026413606534  0.28165014200860133  0.5409156023334207  1.0000
  H   H29       1.0  0.46719793173284785  0.5430921631483514  0.4861991155676151  1.0000
  H   H30       1.0  0.9671980204850074  0.029295539762564816  0.5137957781569186  1.0000
  H   H31       1.0  0.028388000637519943  0.7901377893860442  0.3203794139632379  1.0000
  H   H32       1.0  0.5283874210136262  0.11052018304268801  0.6796161068932348  1.0000
  H   H33       1.0  0.9470952949271807  0.4557823151428764  0.24102049038837958  1.0000
  H   H34       1.0  0.4470939343854995  0.6968033486456944  0.7589808386828097  1.0000
  H   H35       1.0  0.7313458940253812  0.6814227186405475  0.16674721391806474  1.0000
  H   H36       1.0  0.2313443441830572  0.8481708537168731  0.833255156808967  1.0000
  C   C1        1.0  0.0635348208139988  0.6360790686198572  0.7798091459716118  1.0000
  C   C2        1.0  0.5635349109294269  0.415889431101391  0.22018998920653135  1.0000
  C   C3        1.0  0.1606963266262653  0.5450712856556524  0.7437828574109419  1.0000
  C   C4        1.0  0.6606951975244684  0.28885302706187593  0.256217649550095  1.0000
  C   C5        1.0  0.2732096664983886  0.4719459703775968  0.8277703727669562  1.0000
  C   C6        1.0  0.7732097033729775  0.29971586917884707  0.1722304986775285  1.0000
  C   C7        1.0  0.2874746762317955  0.48379714850002375  0.9494101593397986  1.0000
  C   C8        1.0  0.7874764537265264  0.4332049278348151  0.05059004947312218  1.0000
  C   C9        1.0  0.18860671485420974  0.5693601750078374  0.9883664478707955  1.0000
  C   C10       1.0  0.6886057891653934  0.5577250519279744  0.011629651140488273  1.0000
  C   C11       1.0  0.07755200777698697  0.6450522154945517  0.9035591788273081  1.0000
  C   C12       1.0  0.5775528344132541  0.548610201063461  0.09644162390346618  1.0000
  C   C13       1.0  0.949230582584832  0.7292200459908786  0.6837682952360141  1.0000
  C   C14       1.0  0.44923301791639153  0.41298822303827626  0.31623169347992797  1.0000
  C   C15       1.0  0.14100162684900402  0.5076676017902175  0.6290900030951931  1.0000
  C   C16       1.0  0.641001907544286  0.13675594833893  0.37091178915952133  1.0000
  C   C17       1.0  0.7191931164889382  0.2309439835556904  0.7553219499252251  1.0000
  C   C18       1.0  0.21919144880506286  0.9862654970643947  0.244680660558238  1.0000
  C   C19       1.0  0.6368139156432382  0.25037517904002743  0.8581750035434299  1.0000
  C   C20       1.0  0.13681141425319512  0.10854836444482176  0.14182614349792289  1.0000
  C   C21       1.0  0.6531750058782394  0.1475956160879477  0.002413683981188808  1.0000
  C   C22       1.0  0.1531736299171983  0.15000880023413307  0.9975885121558008  1.0000
  C   C23       1.0  0.7548300308550893  0.024327554993490725  0.047537411737160085  1.0000
  C   C24       1.0  0.254829340423619  0.0718649169686574  0.9524633023196784  1.0000
  C   C25       1.0  0.8370362993990385  0.004854214473035009  0.945165501447626  1.0000
  C   C26       1.0  0.3370342673849792  0.9500176321804047  0.05483596989704864  1.0000
  C   C27       1.0  0.8186259711540269  0.10615802242232102  0.8007337206828922  1.0000
  C   C28       1.0  0.3186226002131109  0.9068897483074352  0.19926734559160758  1.0000
  C   C29       1.0  0.7000378921542207  0.3382868806236631  0.5980598988529452  1.0000
  C   C30       1.0  0.2000363868827294  0.9363462553642137  0.4019427721843129  1.0000
  C   C31       1.0  0.7740861500587144  0.9183794854113219  0.20544718811143536  1.0000
  C   C32       1.0  0.2740862935014903  0.12382624883403553  0.7945544772829153  1.0000
  C   C33       1.0  0.7360272663790256  0.5731885460270831  0.5906132633218775  1.0000
  C   C34       1.0  0.23602928690745978  0.16380125921499927  0.4093869711962412  1.0000
  C   C35       1.0  0.5503194929637232  0.7190561514183288  0.4998398428915609  1.0000
  C   C36       1.0  0.050319781759213825  0.218895417455336  0.5001600030759832  1.0000
  C   C37       1.0  0.5440689427344482  0.5842423134882536  0.509644078119152  1.0000
  C   C38       1.0  0.04406918121920713  0.09388744129840634  0.4903531889432173  1.0000
  C   C39       1.0  0.9804806687615154  0.729871203254497  0.2860586463150058  1.0000
  C   C40       1.0  0.48047920615831424  0.015930643978720297  0.7139399676077361  1.0000
  C   C41       1.0  0.9328836596486314  0.5587280826031461  0.24622775973488584  1.0000
  C   C42       1.0  0.432881664097316  0.8049570722213703  0.7537707905093568  1.0000
  C   C43       1.0  0.8249492772610693  0.6690396684605133  0.20986277503103412  1.0000
  C   C44       1.0  0.3249488910912889  0.8789030120928772  0.7901369092901762  1.0000
  N   N1        1.0  0.6695497716833217  0.7105856733272802  0.5511478749751291  1.0000
  N   N2        1.0  0.16954936589612396  0.2617324204603548  0.44885280353073403  1.0000
  N   N3        1.0  0.662359590420401  0.4938896508333033  0.5667400871654353  1.0000
  N   N4        1.0  0.1623602809443128  0.06062878011172056  0.43325903198329035  1.0000
  N   N5        1.0  0.8566497745162637  0.7762266180253404  0.23603703285186142  1.0000
  N   N6        1.0  0.3566495151704102  0.012262364310721986  0.7639638533350848  1.0000
  N   N7        1.0  0.02943266594135003  0.5979268417175376  0.29388885675371773  1.0000
  N   N8        1.0  0.5294318714514857  0.8918157176067821  0.7061107308437613  1.0000
  O   O1        1.0  0.9588295328677676  0.7717796566476666  0.5524165237608187  1.0000
  O   O2        1.0  0.45883266827908625  0.3241954079274692  0.44758319968896393  1.0000
  O   O3        1.0  0.8446662153437713  0.7640821810582282  0.7441280820044015  1.0000
  O   O4        1.0  0.34466763015572616  0.5082066040752905  0.25587361992229063  1.0000
  O   O5        1.0  0.050164994105699606  0.4398074638085918  0.6420298248204618  1.0000
  O   O6        1.0  0.5501677573640577  0.08183437261839546  0.35797025214244377  1.0000
  O   O7        1.0  0.228472713732657  0.5380968810711124  0.5293002699961562  1.0000
  O   O8        1.0  0.7284747147072965  0.06739834415588329  0.47069914984484745  1.0000
