data_image0
_chemical_formula_structural       Zn8H12C24O26
_chemical_formula_sum              "Zn8 H12 C24 O26"
_cell_length_a       13.590023377493557
_cell_length_b       17.216637724162922
_cell_length_c       15.223371050743676
_cell_angle_alpha    119.81127654513568
_cell_angle_beta     119.53377749567227
_cell_angle_gamma    89.92201252810302

_space_group_name_H-M_alt    "P 1"
_space_group_IT_number       1

loop_
  _space_group_symop_operation_xyz
  'x, y, z'

loop_
  _atom_site_type_symbol
  _atom_site_label
  _atom_site_symmetry_multiplicity
  _atom_site_fract_x
  _atom_site_fract_y
  _atom_site_fract_z
  _atom_site_occupancy
  Zn  Zn1       1.0  0.9518876108638068  0.8597591544340164  0.8762535292852291  1.0000
  Zn  Zn2       1.0  0.954423531915218  0.04754768632701465  0.8770174482841925  1.0000
  Zn  Zn3       1.0  0.18547960613104658  0.0429231727901112  0.0837197531313834  1.0000
  Zn  Zn4       1.0  0.9516568210091806  0.045990990690583516  0.08616350202807152  1.0000
  Zn  Zn5       1.0  0.5673590429557863  0.6369817001758735  0.08048667320507968  1.0000
  Zn  Zn6       1.0  0.5659873763539522  0.4501467473029734  0.08187819694575889  1.0000
  Zn  Zn7       1.0  0.5659040569691881  0.449892377812695  0.8703864845800169  1.0000
  Zn  Zn8       1.0  0.3335030012248764  0.45384379645020795  0.875124006189665  1.0000
  H   H1        1.0  0.7503526146530534  0.8351465422418727  0.470315350860801  1.0000
  H   H2        1.0  0.7706037824311024  0.6636410614464623  0.4875959811339071  1.0000
  H   H3        1.0  0.373063162567881  0.8285267676196214  0.04366609188675599  1.0000
  H   H4        1.0  0.14655385399882448  0.6686400470140583  0.9132905844530795  1.0000
  H   H5        1.0  0.775855409476698  0.8328925038561507  0.09418701103683699  1.0000
  H   H6        1.0  0.7411361354189836  0.6614889209451037  0.8593053431603933  1.0000
  H   H7        1.0  0.3713818006349853  0.2703548214692475  0.10254800021775168  1.0000
  H   H8        1.0  0.15047005584930417  0.22812274795607823  0.8603612547656565  1.0000
  H   H9        1.0  0.7336598294273744  0.23656592443534663  0.0601618463975129  1.0000
  H   H10       1.0  0.7876760213033264  0.2620722097666573  0.8994098292082597  1.0000
  H   H11       1.0  0.14694688781365534  0.27616138360132686  0.46838835714766697  1.0000
  H   H12       1.0  0.3694504378277941  0.21904449154888542  0.48940599438927995  1.0000
  C   C1        1.0  0.8383493089632238  0.8541467524074023  0.6490930168072707  1.0000
  C   C2        1.0  0.7740594682887474  0.7965474034306439  0.512972761097018  1.0000
  C   C3        1.0  0.7467485519542192  0.7021717031432075  0.4448727898548127  1.0000
  C   C4        1.0  0.682166745577902  0.6442771990907944  0.30872674192052335  1.0000
  C   C5        1.0  0.19780613425120216  0.8503517628498829  0.9831454827459184  1.0000
  C   C6        1.0  0.27898569156446473  0.7932435214118811  0.9973771727209024  1.0000
  C   C7        1.0  0.2406412456268966  0.7038579098670041  0.9595563614336979  1.0000
  C   C8        1.0  0.3217907463809197  0.6467269176763324  0.9740575958844742  1.0000
  C   C9        1.0  0.8400851000304642  0.85283531897948  0.9971467867951416  1.0000
  C   C10       1.0  0.7810488654928632  0.7945512834492021  0.014905474489488302  1.0000
  C   C11       1.0  0.736080846892463  0.6999122788662574  0.9386573441619814  1.0000
  C   C12       1.0  0.6771453919327826  0.6419223462237796  0.9568464590436392  1.0000
  C   C13       1.0  0.20068469157342148  0.16301596223367207  0.002496423621579398  1.0000
  C   C14       1.0  0.27982302555238187  0.2370320012050513  0.021071148366551995  1.0000
  C   C15       1.0  0.24208208186667698  0.2615561508223437  0.9416964925779183  1.0000
  C   C16       1.0  0.32073199908410305  0.33534465291755566  0.9594897241742757  1.0000
  C   C17       1.0  0.829667719956703  0.15279967620532628  0.9874884204807514  1.0000
  C   C18       1.0  0.7671151151066623  0.224505161196646  0.003981474060964297  1.0000
  C   C19       1.0  0.7542261622170799  0.2740428772794772  0.9555990808866709  1.0000
  C   C20       1.0  0.691023203143537  0.34534332684714314  0.971642682447886  1.0000
  C   C21       1.0  0.3209610754329334  0.3470356794932671  0.6469814051179625  1.0000
  C   C22       1.0  0.23971049365638916  0.2777011148747733  0.5118028066108592  1.0000
  C   C23       1.0  0.2766891535386121  0.2174517253058781  0.44586689391304896  1.0000
  C   C24       1.0  0.19575129534397456  0.14811888363128387  0.3107059138431508  1.0000
  O   O1        1.0  0.00965754566236402  0.9985339145827297  0.9793924578994151  1.0000
  O   O2        1.0  0.8613327461734882  0.9434750514871482  0.7013009913728395  1.0000
  O   O3        1.0  0.8648195599036229  0.8107468218459674  0.7014132028774968  1.0000
  O   O4        1.0  0.6598563445574398  0.5550585387664455  0.2571417344563258  1.0000
  O   O5        1.0  0.6546455369645728  0.6872026995278732  0.25577118589713876  1.0000
  O   O6        1.0  0.24979610635963206  0.9381199818326281  0.039388216615471094  1.0000
  O   O7        1.0  0.0856650522684107  0.8088267197543714  0.9187445520293237  1.0000
  O   O8        1.0  0.2698327014676423  0.559166155709313  0.9188655673982067  1.0000
  O   O9        1.0  0.43387739169237693  0.6881090714237175  0.0377829786395267  1.0000
  O   O10       1.0  0.8752516100055842  0.9422264816802937  0.07582857430553959  1.0000
  O   O11       1.0  0.8507047899297504  0.8103486226377115  0.9072299421737282  1.0000
  O   O12       1.0  0.6406215405383904  0.5525003030575135  0.8776870320973414  1.0000
  O   O13       1.0  0.6679918997591514  0.6847552557547374  0.047733572126915605  1.0000
  O   O14       1.0  0.251975770936177  0.1415117878743715  0.07991918274912989  1.0000
  O   O15       1.0  0.09089507409117903  0.12731108635043847  0.9128551039690718  1.0000
  O   O16       1.0  0.2686317181098302  0.356757929419615  0.8820434332007208  1.0000
  O   O17       1.0  0.4308400065299622  0.37088958260531524  0.0483885091765117  1.0000
  O   O18       1.0  0.8446537404061304  0.11817869467282092  0.048822477734717006  1.0000
  O   O19       1.0  0.8632257071467534  0.13234725649129336  0.9158490273683597  1.0000
  O   O20       1.0  0.6749147162268513  0.37939444332507577  0.909466113674675  1.0000
  O   O21       1.0  0.6578211154612889  0.3658617064489604  0.04358335440591791  1.0000
  O   O22       1.0  0.43208701631781576  0.3563574174112318  0.6986015095927272  1.0000
  O   O23       1.0  0.27078383459432587  0.39114534752935276  0.700389690089949  1.0000
  O   O24       1.0  0.08460594479041111  0.1386770236469417  0.25869950979055994  1.0000
  O   O25       1.0  0.24628556636087498  0.10411858424084393  0.25769272055467246  1.0000
  O   O26       1.0  0.5093346650627594  0.4981962438328153  0.9784002504714379  1.0000
