data_image0
_chemical_formula_structural       Al4H66C68I2N16O20
_chemical_formula_sum              "Al4 H66 C68 I2 N16 O20"
_cell_length_a       6.769553850044157
_cell_length_b       22.236343163399972
_cell_length_c       26.565789977767686
_cell_angle_alpha    101.07735740071485
_cell_angle_beta     89.99990808766363
_cell_angle_gamma    90.00106680532895

_space_group_name_H-M_alt    "P 1"
_space_group_IT_number       1

loop_
  _space_group_symop_operation_xyz
  'x, y, z'

loop_
  _atom_site_type_symbol
  _atom_site_label
  _atom_site_symmetry_multiplicity
  _atom_site_fract_x
  _atom_site_fract_y
  _atom_site_fract_z
  _atom_site_occupancy
  Al  Al1       1.0  0.90387568996249  0.5009511486379593  0.5020100605921414  1.0000
  Al  Al2       1.0  0.40387662367329824  0.49904957061121274  0.49798671746896156  1.0000
  Al  Al3       1.0  0.30053058160018514  0.0005893196827529663  0.998827061862343  1.0000
  Al  Al4       1.0  0.800540460169877  0.9994119753133217  0.0011692900025010984  1.0000
  H   H1        1.0  0.8559967457386364  0.7379448774237074  0.8140928719275137  1.0000
  H   H2        1.0  0.35602252377312027  0.2620616591923977  0.18590736389519688  1.0000
  H   H3        1.0  0.9942974995764686  0.6564056580560518  0.7591461622791015  1.0000
  H   H4        1.0  0.49431754568661285  0.3435987471576638  0.2408579549696981  1.0000
  H   H5        1.0  0.4561721505576842  0.7157462455363728  0.73163356911094  1.0000
  H   H6        1.0  0.956188238522948  0.2842551097923405  0.2683685992148312  1.0000
  H   H7        1.0  0.32936462053646665  0.6581377032581344  0.7565222166910742  1.0000
  H   H8        1.0  0.8293970765015785  0.34185949321737036  0.24348025577543803  1.0000
  H   H9        1.0  0.9960604986655213  0.7739380506706297  0.675744539750653  1.0000
  H   H10       1.0  0.49609539970435185  0.2260577107877637  0.3242591488265134  1.0000
  H   H11       1.0  0.03164761385532701  0.8565031131074788  0.7435700702912482  1.0000
  H   H12       1.0  0.5316154600739794  0.1434998010995159  0.2564269363081166  1.0000
  H   H13       1.0  0.8027487573552323  0.7801718463747419  0.7644312899753202  1.0000
  H   H14       1.0  0.3027538911864552  0.21983096530830434  0.2355658372253231  1.0000
  H   H15       1.0  0.28811988585090376  0.8430084733252768  0.7496653751344338  1.0000
  H   H16       1.0  0.7881016594243136  0.1569831359127463  0.25032976991569456  1.0000
  H   H17       1.0  0.3726069018066056  0.9188323630104736  0.11776513260560509  1.0000
  H   H18       1.0  0.8726316905881218  0.08116289481642985  0.8822270049288292  1.0000
  H   H19       1.0  0.7877498405880204  0.8103271776006619  0.16775518526411298  1.0000
  H   H20       1.0  0.2877744655708483  0.18966927579611345  0.8322415180329017  1.0000
  H   H21       1.0  0.7570796721960846  0.8733626796010938  0.09956251186578409  1.0000
  H   H22       1.0  0.2571126742092247  0.126624429258051  0.900430296554802  1.0000
  H   H23       1.0  0.4143882341003859  0.6471971764957444  0.3038428440561631  1.0000
  H   H24       1.0  0.9143979623599492  0.3528087298051545  0.6961551158403196  1.0000
  H   H25       1.0  0.43812458808567806  0.5869375632070728  0.3744149320868359  1.0000
  H   H26       1.0  0.9381152528118764  0.4130717631916951  0.6255865047063691  1.0000
  H   H27       1.0  0.8377874790170664  0.6336846928429124  0.4174099911368784  1.0000
  H   H28       1.0  0.33777591578998306  0.3663083247598635  0.5825939950952088  1.0000
  H   H29       1.0  0.8158608735266526  0.6966930427754293  0.348813763678656  1.0000
  H   H30       1.0  0.31586654553192517  0.30330342697188667  0.6511913805906955  1.0000
  H   H31       1.0  0.6909597300965588  0.6475093028677819  0.722594147769456  1.0000
  H   H32       1.0  0.5790116968883793  0.6797938751542317  0.6513555816323517  1.0000
  H   H33       1.0  0.8210174146191704  0.6988324930640957  0.6347535623429933  1.0000
  H   H34       1.0  0.6870782509095292  0.7507015414982591  0.6821652143432998  1.0000
  H   H35       1.0  0.19097722453525282  0.3524864599898976  0.27740863826407036  1.0000
  H   H36       1.0  0.07903605660509781  0.3201939744499143  0.3486428977752993  1.0000
  H   H37       1.0  0.32104303375462706  0.3011603030542389  0.36524926589842716  1.0000
  H   H38       1.0  0.18710486892943118  0.24928864309432447  0.3178306441370538  1.0000
  H   H39       1.0  0.5442285175845781  0.8924999537807421  0.18170873567164136  1.0000
  H   H40       1.0  0.6097612846954379  0.8807521148876489  0.262048924006919  1.0000
  H   H41       1.0  0.35449955737441746  0.8661227213512956  0.2718660311914505  1.0000
  H   H42       1.0  0.5166376130930174  0.8051874272056733  0.2441092764900147  1.0000
  H   H43       1.0  0.044257784340416606  0.10750321454625583  0.8182875117145654  1.0000
  H   H44       1.0  0.1097986486199929  0.11926392895606602  0.7379512527747565  1.0000
  H   H45       1.0  0.8545446270478437  0.13388609379066455  0.728132300657471  1.0000
  H   H46       1.0  0.016655982944620003  0.19482819846928828  0.7558962199130475  1.0000
  H   H47       1.0  0.5755010135605545  0.7544229887646311  0.8028496793274086  1.0000
  H   H48       1.0  0.654533085135334  0.8297811872817393  0.8662042581928302  1.0000
  H   H49       1.0  0.43119581031398707  0.8065050626566261  0.8935423155135563  1.0000
  H   H50       1.0  0.43113878319695703  0.8701297489067342  0.8615202938550153  1.0000
  H   H51       1.0  0.07551525757958191  0.24556810503797513  0.19714919901382894  1.0000
  H   H52       1.0  0.1545467785854697  0.17021343267354888  0.1337950574808886  1.0000
  H   H53       1.0  0.9312041222078449  0.19349300873240338  0.10645292813353537  1.0000
  H   H54       1.0  0.9311341099009524  0.1298678723521931  0.13847494734961427  1.0000
  H   H55       1.0  0.4246881527579519  0.7820070714870296  0.6737442004490359  1.0000
  H   H56       1.0  0.37373944133307196  0.8312005458925498  0.6040574968574361  1.0000
  H   H57       1.0  0.23847307913202093  0.8746691350377559  0.6564121337690593  1.0000
  H   H58       1.0  0.1154379593866821  0.8201749328091881  0.6084906066087399  1.0000
  H   H59       1.0  0.9247242173844297  0.2179834797028946  0.3262414223202867  1.0000
  H   H60       1.0  0.8738035867371892  0.1687980076334696  0.39593734060742486  1.0000
  H   H61       1.0  0.738515929926635  0.1253282709399031  0.343588383679112  1.0000
  H   H62       1.0  0.615490520941691  0.1798236003380893  0.39151177743680415  1.0000
  H   H63       1.0  0.6466718956812726  0.5767365567544118  0.5290974642737111  1.0000
  H   H64       1.0  0.14667576433127041  0.4232578846182449  0.47090299624461096  1.0000
  H   H65       1.0  0.5481824544903446  0.9189728583576128  0.9901372656530255  1.0000
  H   H66       1.0  0.04818176652305791  0.081028940655024  0.009881196285341799  1.0000
  C   C1        1.0  0.6502549286117445  0.43047113219063254  0.5592143478780754  1.0000
  C   C2        1.0  0.15024829943837403  0.5695301167996404  0.44078844938338335  1.0000
  C   C3        1.0  0.6604489166587086  0.42516699793083756  0.4213850502784311  1.0000
  C   C4        1.0  0.16043822450136247  0.5748285957197652  0.5786146563611252  1.0000
  C   C5        1.0  0.9555253303958081  0.6929675008384351  0.7382886583277041  1.0000
  C   C6        1.0  0.45554398393539947  0.3070335149546324  0.2617119754655022  1.0000
  C   C7        1.0  0.3164440486427083  0.704529206291646  0.7484951629274121  1.0000
  C   C8        1.0  0.8164621779278249  0.29546806493178224  0.2515034731052808  1.0000
  C   C9        1.0  0.28355844997066265  0.7518322306190585  0.7983648751588461  1.0000
  C   C10       1.0  0.7835664845181184  0.24816699391621463  0.20163413975802766  1.0000
  C   C11       1.0  0.045568758041724805  0.878458696411741  0.8754379031583283  1.0000
  C   C12       1.0  0.5455971882025565  0.12153777630740588  0.12456060755237527  1.0000
  C   C13       1.0  0.147783584039658  0.7059453173475347  0.7096071385410809  1.0000
  C   C14       1.0  0.6478005603947848  0.2940523829702499  0.29039180753169797  1.0000
  C   C15       1.0  0.9125173760758187  0.7512732054745965  0.77901747391558  1.0000
  C   C16       1.0  0.41253445277413897  0.24872747194382328  0.22098122331531297  1.0000
  C   C17       1.0  0.0991873650903941  0.7915185533632538  0.7925261350192369  1.0000
  C   C18       1.0  0.5991850555174311  0.2084805116224402  0.2074724135467889  1.0000
  C   C19       1.0  0.1425090278364252  0.8207897772770849  0.7449312900954225  1.0000
  C   C20       1.0  0.6424998259066824  0.17920804322942266  0.2550661218359735  1.0000
  C   C21       1.0  0.13801828077125577  0.771073020785451  0.6950287030241569  1.0000
  C   C22       1.0  0.6380372502968188  0.2289248940614357  0.30496909051856846  1.0000
  C   C23       1.0  0.06628852054383569  0.8386764349661178  0.8375097038236345  1.0000
  C   C24       1.0  0.5662730638084811  0.16132286753603609  0.1624895975238516  1.0000
  C   C25       1.0  0.17256081910326773  0.6593154275472058  0.6638057869742794  1.0000
  C   C26       1.0  0.6726203899581263  0.34068211280128924  0.33619470174507166  1.0000
  C   C27       1.0  0.1695611542440929  0.6195808975075892  0.6254445456795634  1.0000
  C   C28       1.0  0.6695797745862253  0.38041146469886644  0.3745528490732325  1.0000
  C   C29       1.0  0.24425093992081062  0.895214836970922  0.1295668235735263  1.0000
  C   C30       1.0  0.7442824046147223  0.10478265401729199  0.8704260347941071  1.0000
  C   C31       1.0  0.26323014861061717  0.8630032317372169  0.17047527498910847  1.0000
  C   C32       1.0  0.7632554753777046  0.1369928939767249  0.829515669007115  1.0000
  C   C33       1.0  0.09452963646926088  0.8301230159553726  0.18284676265164984  1.0000
  C   C34       1.0  0.5945482277438076  0.16987580286675552  0.817150633200171  1.0000
  C   C35       1.0  0.9133760839907126  0.8363313645441011  0.15778336424437353  1.0000
  C   C36       1.0  0.4133981621787299  0.16366215535427392  0.8422114639272633  1.0000
  C   C37       1.0  0.8956762519678775  0.87068242118562  0.11983093820919777  1.0000
  C   C38       1.0  0.39571161500792573  0.12931229094532173  0.880165037767533  1.0000
  C   C39       1.0  0.06568437839487018  0.8992911281872789  0.10482085583986839  1.0000
  C   C40       1.0  0.5657205563661876  0.10070383069536598  0.8951730584730624  1.0000
  C   C41       1.0  0.10093383303133409  0.7115957191460609  0.28128646627244785  1.0000
  C   C42       1.0  0.6009410347747915  0.2884150132577901  0.7187221063996816  1.0000
  C   C43       1.0  0.09678905150092731  0.7854831382328058  0.21680491196534749  1.0000
  C   C44       1.0  0.5968046200196468  0.21451770846817914  0.7831955606173719  1.0000
  C   C45       1.0  0.2900102764474041  0.6448101542657342  0.3294076893898464  1.0000
  C   C46       1.0  0.7900032481821385  0.3552001558231836  0.6705967513402058  1.0000
  C   C47       1.0  0.3029565137137382  0.6112002052315901  0.3683356452464038  1.0000
  C   C48       1.0  0.8029508886943404  0.3888102488858394  0.6316695682530592  1.0000
  C   C49       1.0  0.1396806734644329  0.607170646225569  0.3999968467133499  1.0000
  C   C50       1.0  0.6396690190222287  0.3928350785360235  0.6000098008835477  1.0000
  C   C51       1.0  0.9637387720792532  0.6378025162508294  0.39273097458761436  1.0000
  C   C52       1.0  0.463730441232201  0.3621981304052113  0.6072761736884827  1.0000
  C   C53       1.0  0.9513849604645942  0.6724704858907701  0.3545714567152487  1.0000
  C   C54       1.0  0.45138247729994424  0.3275307214199401  0.6454360721544035  1.0000
  C   C55       1.0  0.11418419648529722  0.6758874951763616  0.3222615964264008  1.0000
  C   C56       1.0  0.614179861593911  0.32412329543615925  0.6777473655820997  1.0000
  C   C57       1.0  0.546528149025484  0.0774083128283038  0.07715978522185198  1.0000
  C   C58       1.0  0.046475437295882195  0.922594680467661  0.9228356960233552  1.0000
  C   C59       1.0  0.5559472691062622  0.06556722006086352  0.9376603027798679  1.0000
  C   C60       1.0  0.05593791547669721  0.9344279291469986  0.062334374404123594  1.0000
  C   C61       1.0  0.7175450882736597  0.7012208319568244  0.6670299851119594  1.0000
  C   C62       1.0  0.2175755777676969  0.29877095794908826  0.3329693435449883  1.0000
  C   C63       1.0  0.48130201535852996  0.8537851332324209  0.24591151865134717  1.0000
  C   C64       1.0  0.9813379066440717  0.14622736631128672  0.7540884220406027  1.0000
  C   C65       1.0  0.494182482516031  0.8248018378128704  0.8612155316484972  1.0000
  C   C66       1.0  0.994190301122181  0.1751947543748926  0.1387797322113187  1.0000
  C   C67       1.0  0.2522789545371539  0.8290059014343356  0.6310611706005743  1.0000
  C   C68       1.0  0.7523263502470103  0.1709933868362725  0.36893783068951796  1.0000
  I   I1        1.0  0.19345300497032977  0.6943905943238845  0.8637866353844641  1.0000
  I   I2        1.0  0.6934547364555643  0.30562476870218086  0.1362254514154557  1.0000
  N   N1        1.0  0.9299924588357199  0.7806136763056628  0.24433808091653478  1.0000
  N   N2        1.0  0.4300025888238039  0.21939060439023453  0.7556648576098866  1.0000
  N   N3        1.0  0.932216968802777  0.7433046123175161  0.27707704329353783  1.0000
  N   N4        1.0  0.4322229807283051  0.2567058096841563  0.722931292643217  1.0000
  N   N5        1.0  0.250443080514593  0.7076980890888507  0.247074937255654  1.0000
  N   N6        1.0  0.7504559244818693  0.29231081727150615  0.7529329262218738  1.0000
  N   N7        1.0  0.248906955435821  0.7450815712644925  0.2140697325127761  1.0000
  N   N8        1.0  0.7489239001659486  0.2549214480254278  0.7859338845428566  1.0000
  N   N9        1.0  0.795030369491215  0.6684749369871383  0.704645088554514  1.0000
  N   N10       1.0  0.29505915064527244  0.33152314480216916  0.2953569902109692  1.0000
  N   N11       1.0  0.4397602796047194  0.8677339990356359  0.19595461750917306  1.0000
  N   N12       1.0  0.9397825847442361  0.1322639938589987  0.8040383309124122  1.0000
  N   N13       1.0  0.4581599072396401  0.7826345196110579  0.8128226363138537  1.0000
  N   N14       1.0  0.9581608607161344  0.21736186619608586  0.18717337655233018  1.0000
  N   N15       1.0  0.2877130277152204  0.7782889147157305  0.6574303568598978  1.0000
  N   N16       1.0  0.7877610536866656  0.2217086580670653  0.3425632875829194  1.0000
  O   O1        1.0  0.4887842732532661  0.4420972933171186  0.4381232890303578  1.0000
  O   O2        1.0  0.9887694815024518  0.5579023523095542  0.561873521211126  1.0000
  O   O3        1.0  0.8209661917129409  0.4468292786496661  0.5466236127588003  1.0000
  O   O4        1.0  0.32095835441146653  0.5531682148241046  0.4533780913270816  1.0000
  O   O5        1.0  0.8251402902665106  0.4431241753588608  0.4421924745091487  1.0000
  O   O6        1.0  0.325137834627931  0.5568760111565751  0.5578092458860908  1.0000
  O   O7        1.0  0.9856995703150702  0.5571991883197285  0.45976439466150504  1.0000
  O   O8        1.0  0.48571197743034844  0.4427981270575643  0.540232018604584  1.0000
  O   O9        1.0  0.652818910463381  0.5373835473382796  0.5058686511516441  1.0000
  O   O10       1.0  0.15281759521592866  0.46261500642763315  0.49412608758052556  1.0000
  O   O11       1.0  0.7204310269493278  0.05163652610017524  0.955711512568598  1.0000
  O   O12       1.0  0.22042118420057483  0.9483615005792244  0.04428555218238729  1.0000
  O   O13       1.0  0.379458610188138  0.06135841487866862  0.0570345568651547  1.0000
  O   O14       1.0  0.8794071731213721  0.9386428286620969  0.9429602975562259  1.0000
  O   O15       1.0  0.38506338089966613  0.052498547144509224  0.9528450659289048  1.0000
  O   O16       1.0  0.8850616375534129  0.9474995572956286  0.047147858643974395  1.0000
  O   O17       1.0  0.2165808006671597  0.9405675448305428  0.9401550273892738  1.0000
  O   O18       1.0  0.7166431389992667  0.05944206277278141  0.05984554571862329  1.0000
  O   O19       1.0  0.5497558710749998  0.9633230362057642  0.9961810868486365  1.0000
  O   O20       1.0  0.0497710401010707  0.0366790383543787  0.003822436148382699  1.0000
