data_image0
_chemical_formula_structural       Hg2H32C44Br4N8
_chemical_formula_sum              "Hg2 H32 C44 Br4 N8"
_cell_length_a       5.075656754468342
_cell_length_b       7.549916015973742
_cell_length_c       26.837944236645114
_cell_angle_alpha    91.98219797829455
_cell_angle_beta     90.00037420967745
_cell_angle_gamma    89.99849599404634

_space_group_name_H-M_alt    "P 1"
_space_group_IT_number       1

loop_
  _space_group_symop_operation_xyz
  'x, y, z'

loop_
  _atom_site_type_symbol
  _atom_site_label
  _atom_site_symmetry_multiplicity
  _atom_site_fract_x
  _atom_site_fract_y
  _atom_site_fract_z
  _atom_site_occupancy
  Hg  Hg1       1.0  0.6190229049180972  0.2500270989497721  0.2500042444357291  1.0000
  Hg  Hg2       1.0  0.3809661421273915  0.7499897413189558  0.7499981032107428  1.0000
  H   H1        1.0  0.8839112890365683  0.8755055330967778  0.2911874667205723  1.0000
  H   H2        1.0  0.8839265007444156  0.6245358648796469  0.20880944417442038  1.0000
  H   H3        1.0  0.1160639662649317  0.12452790118029361  0.7088088495865746  1.0000
  H   H4        1.0  0.1160940694877368  0.37547290391930943  0.7911938729970416  1.0000
  H   H5        1.0  0.21915709738057385  0.7675354187423405  0.35126687449763944  1.0000
  H   H6        1.0  0.21918968769250577  0.7324804454360176  0.1487308902867426  1.0000
  H   H7        1.0  0.7808102777642959  0.2324627008772921  0.6487246898920205  1.0000
  H   H8        1.0  0.7808407335349159  0.26752447238756366  0.8512712375152418  1.0000
  H   H9        1.0  0.4626059639754629  0.9925661438742209  0.4061781400973175  1.0000
  H   H10       1.0  0.46261771639725424  0.5074306621379208  0.0938210983214631  1.0000
  H   H11       1.0  0.5373988449682442  0.007422456409827289  0.5938154854767816  1.0000
  H   H12       1.0  0.537375271544505  0.4925584009602346  0.9061803642775246  1.0000
  H   H13       1.0  0.9833134621768025  0.3963573779994006  0.3414614966479448  1.0000
  H   H14       1.0  0.9832883119160202  0.1036809035752313  0.1585367604338472  1.0000
  H   H15       1.0  0.0167228692782189  0.6036636411055197  0.6585390641687069  1.0000
  H   H16       1.0  0.016686944112763103  0.8963224027407505  0.8414679471102602  1.0000
  H   H17       1.0  0.28432555150337185  0.48348094664112284  0.4067704672064139  1.0000
  H   H18       1.0  0.2843231417086897  0.0165233004071084  0.0932269488926138  1.0000
  H   H19       1.0  0.7156989594484598  0.5165069556858837  0.5932294828648992  1.0000
  H   H20       1.0  0.7156737864227978  0.9834739159379849  0.9067728001426189  1.0000
  H   H21       1.0  0.8213673861344262  0.1516502541350562  0.491966191437804  1.0000
  H   H22       1.0  0.8213551196499722  0.34834553555131714  0.008034042139470898  1.0000
  H   H23       1.0  0.17866303542642467  0.8483374018634249  0.5080359908084517  1.0000
  H   H24       1.0  0.1786339277279581  0.6516516808637434  0.9919657068916479  1.0000
  H   H25       1.0  0.1318097183023283  0.0920862332729868  0.5610508443406843  1.0000
  H   H26       1.0  0.1318043452686055  0.4079154530473658  0.9389534072132761  1.0000
  H   H27       1.0  0.8682069120359942  0.9078949636553942  0.4389497276359648  1.0000
  H   H28       1.0  0.8681886423292654  0.5920921144591844  0.061048769428289504  1.0000
  H   H29       1.0  0.3974284619471149  0.3362616326221612  0.5997426327608721  1.0000
  H   H30       1.0  0.39742916899694336  0.16373148636370152  0.9002607068316166  1.0000
  H   H31       1.0  0.6026078702604777  0.6637196462233207  0.4002571951687841  1.0000
  H   H32       1.0  0.6025638185288287  0.8362788536314979  0.09974040258315849  1.0000
  C   C1        1.0  0.9885821319952015  0.9673922204403096  0.316533116441839  1.0000
  C   C2        1.0  0.9885980254157615  0.5326285682840605  0.183465421900145  1.0000
  C   C3        1.0  0.0113891834144439  0.03261836602334259  0.6834657607897654  1.0000
  C   C4        1.0  0.011420574642613701  0.46738011844037436  0.8165386393275823  1.0000
  C   C5        1.0  0.1778769360908967  0.9087356928382775  0.3498514770155694  1.0000
  C   C6        1.0  0.17790910461596354  0.5912817364478753  0.1501507334292214  1.0000
  C   C7        1.0  0.8221002900909228  0.0912618930957976  0.6501449237515969  1.0000
  C   C8        1.0  0.8221134357836348  0.40872951750018416  0.8498541207169765  1.0000
  C   C9        1.0  0.31054713556889607  0.03210257622895799  0.3801621819771839  1.0000
  C   C10       1.0  0.31054600218659095  0.46791047793816165  0.1198354325150817  1.0000
  C   C11       1.0  0.6894537329843969  0.9678884682106669  0.6198333525972046  1.0000
  C   C12       1.0  0.6894430450125739  0.5320972127413981  0.8801656280385046  1.0000
  C   C13       1.0  0.24456398773630642  0.21200362555911312  0.3776543381779049  1.0000
  C   C14       1.0  0.24453440870635026  0.288008361583202  0.1223394382417027  1.0000
  C   C15       1.0  0.7554506721586237  0.7879896576486161  0.622344965549246  1.0000
  C   C16       1.0  0.7554369067712514  0.7119982919005138  0.8776589936725544  1.0000
  C   C17       1.0  0.04435591019641551  0.2584034074889558  0.3445353401247644  1.0000
  C   C18       1.0  0.044335189294287106  0.2416224445996917  0.15546102684086802  1.0000
  C   C19       1.0  0.9556607196036496  0.7416044881757526  0.65546386030001  1.0000
  C   C20       1.0  0.9556479473898848  0.7583825967817076  0.844539984850492  1.0000
  C   C21       1.0  0.3797955168001579  0.35232572521235284  0.40623695437763263  1.0000
  C   C22       1.0  0.3797683715865929  0.1476807598469208  0.0937610067338497  1.0000
  C   C23       1.0  0.6202447555584385  0.6476674756759734  0.5937630934201792  1.0000
  C   C24       1.0  0.6202167353716916  0.8523190649077392  0.9062391631829882  1.0000
  C   C25       1.0  0.7403070273952749  0.46694498941212  0.4499691601882745  1.0000
  C   C26       1.0  0.7402827653380584  0.033049754542084  0.0500294517502695  1.0000
  C   C27       1.0  0.2597194537846548  0.5330415061300612  0.5500315095117827  1.0000
  C   C28       1.0  0.2597023417142453  0.9669471745859114  0.9499729014792918  1.0000
  C   C29       1.0  0.9204171547397876  0.42946906760310805  0.48956285966582413  1.0000
  C   C30       1.0  0.9203920320033917  0.070523885045759  0.0104352207500611  1.0000
  C   C31       1.0  0.0796191773633197  0.5705163494523404  0.510435553437965  1.0000
  C   C32       1.0  0.07957928367903828  0.9294733315267223  0.9895645282717993  1.0000
  C   C33       1.0  0.9440276010700047  0.2569326417749735  0.5081680537305573  1.0000
  C   C34       1.0  0.9440186098896604  0.24306066016378475  0.9918304472977226  1.0000
  C   C35       1.0  0.0560008501991547  0.7430532268565242  0.4918262670540372  1.0000
  C   C36       1.0  0.0559664971772662  0.7569361868721883  0.008172649989120399  1.0000
  C   C37       1.0  0.11778507760187301  0.2246578470705671  0.5464061001414251  1.0000
  C   C38       1.0  0.1177892649244612  0.2753375879513768  0.9535968985365456  1.0000
  C   C39       1.0  0.8822118507344427  0.7753299323632916  0.4535949660014111  1.0000
  C   C40       1.0  0.8821800806270589  0.7246569382419635  0.0464031736537933  1.0000
  C   C41       1.0  0.2725076116086385  0.36197338987349764  0.5677571600084619  1.0000
  C   C42       1.0  0.2725124000446968  0.1380166895466175  0.9322455793729603  1.0000
  C   C43       1.0  0.7275090185854935  0.6380133520321818  0.43224127751459923  1.0000
  C   C44       1.0  0.7274746772420215  0.8619764297219632  0.0677552124543581  1.0000
  Br  Br1       1.0  0.5155278096870647  0.548720146752423  0.2907237411455128  1.0000
  Br  Br2       1.0  0.5154969564738466  0.9513232440717799  0.2092779201011226  1.0000
  Br  Br3       1.0  0.4845065514039675  0.45131014509718875  0.7092769906770755  1.0000
  Br  Br4       1.0  0.4844369250617078  0.04870083575340086  0.7907189692347387  1.0000
  N   N1        1.0  0.9238320327048869  0.1395990326945551  0.3142499741424771  1.0000
  N   N2        1.0  0.9238294685695935  0.3604296663981116  0.18574839742130683  1.0000
  N   N3        1.0  0.0761609546798567  0.8604156507406555  0.6857478603032092  1.0000
  N   N4        1.0  0.076157608365925  0.6395819983248784  0.8142527364199452  1.0000
  N   N5        1.0  0.6002526336174652  0.32481608796220485  0.4283310208244373  1.0000
  N   N6        1.0  0.6002275952577278  0.17517456050904195  0.0716669506656018  1.0000
  N   N7        1.0  0.39975217573689303  0.6751560005279557  0.5716678920245073  1.0000
  N   N8        1.0  0.3997456905826696  0.8248287458244261  0.9283377568774754  1.0000
