data_image0
_chemical_formula_structural       Cu2H28C30N6O12
_chemical_formula_sum              "Cu2 H28 C30 N6 O12"
_cell_length_a       6.84878737818294
_cell_length_b       10.112906919576382
_cell_length_c       11.044002234242573
_cell_angle_alpha    104.19122202251705
_cell_angle_beta     99.8527522502454
_cell_angle_gamma    99.10337809731811

_space_group_name_H-M_alt    "P 1"
_space_group_IT_number       1

loop_
  _space_group_symop_operation_xyz
  'x, y, z'

loop_
  _atom_site_type_symbol
  _atom_site_label
  _atom_site_symmetry_multiplicity
  _atom_site_fract_x
  _atom_site_fract_y
  _atom_site_fract_z
  _atom_site_occupancy
  Cu  Cu1       1.0  0.31431220946363686  0.21667269826109956  0.3400210841497398  1.0000
  Cu  Cu2       1.0  0.6856852825200194  0.7833249121795659  0.6599782336820185  1.0000
  H   H1        1.0  0.7516632788629424  0.22096009628880606  0.3319996871110291  1.0000
  H   H2        1.0  0.24833902868645913  0.7790437863716022  0.6680015382611941  1.0000
  H   H3        1.0  0.610950834390309  0.09432427283365291  0.36276408464863863  1.0000
  H   H4        1.0  0.3890488131219102  0.9056806393127276  0.6372371003175844  1.0000
  H   H5        1.0  0.5314695532630367  0.6319728064600696  0.43745468463050957  1.0000
  H   H6        1.0  0.4685321115993234  0.3680289895003099  0.5625432879589952  1.0000
  H   H7        1.0  0.570374025292587  0.7973470478883015  0.43092828314652826  1.0000
  H   H8        1.0  0.42962944042792384  0.20265579814645207  0.5690710161848074  1.0000
  H   H9        1.0  0.8027181357380402  0.3697604364496598  0.10343728618563831  1.0000
  H   H10       1.0  0.19727794582018993  0.6302423762125074  0.8965648710512468  1.0000
  H   H11       1.0  0.900915395131989  0.9191989393510978  0.41533152267863477  1.0000
  H   H12       1.0  0.09908653092526273  0.08079869117957368  0.584666442985217  1.0000
  H   H13       1.0  0.7596152143132785  0.48226585762797924  0.39410911486164235  1.0000
  H   H14       1.0  0.24038735443101442  0.5177338596027141  0.6058921035849281  1.0000
  H   H15       1.0  0.3014911815299612  0.6534138743956887  0.28867636135888836  1.0000
  H   H16       1.0  0.6985113514520122  0.3465858421704837  0.7113212313333791  1.0000
  H   H17       1.0  0.49731346550835553  0.36447401740560537  0.1843866538401286  1.0000
  H   H18       1.0  0.5026834931100694  0.6355267160284794  0.8156160299380988  1.0000
  H   H19       1.0  0.9262376105226694  0.6125107699620641  0.09205795438489163  1.0000
  H   H20       1.0  0.0737578372891008  0.38748995616620613  0.907941856507854  1.0000
  H   H21       1.0  0.8251732610941148  0.5461267621514097  0.9241049888950031  1.0000
  H   H22       1.0  0.17482219565822987  0.45387396414299264  0.07589572843631492  1.0000
  H   H23       1.0  0.36372219881359774  0.09821845190634089  0.7985515991899774  1.0000
  H   H24       1.0  0.6362753577889748  0.9017843673971128  0.20144980517808622  1.0000
  H   H25       1.0  0.16473314013317972  0.9118260409021844  0.8740479007603669  1.0000
  H   H26       1.0  0.8352622808568457  0.0881746847276972  0.12594919081664815  1.0000
  H   H27       1.0  0.15233531126887112  0.9663315049918142  0.10674271432785809  1.0000
  H   H28       1.0  0.8476591948637806  0.03366609150175039  0.8932544834872544  1.0000
  C   C1        1.0  0.2607720314691165  0.9242368026198093  0.3451001958797236  1.0000
  C   C2        1.0  0.7392305283346022  0.07576291444475199  0.6549001161282746  1.0000
  C   C3        1.0  0.11711790996393032  0.7995822391172637  0.35282316936475416  1.0000
  C   C4        1.0  0.8828828489816305  0.20041642787293057  0.6471758159014271  1.0000
  C   C5        1.0  0.9386825615549059  0.8166708692253479  0.39440795220657077  1.0000
  C   C6        1.0  0.06131965455383441  0.18332780407388327  0.6055884673136235  1.0000
  C   C7        1.0  0.8115972291906388  0.7033370264409696  0.4116815735361713  1.0000
  C   C8        1.0  0.18840532167249083  0.2966626904574668  0.5883178320332477  1.0000
  C   C9        1.0  0.8591802525779714  0.5713842250883797  0.38224534177489033  1.0000
  C   C10       1.0  0.1408258910608851  0.42861759179265846  0.6177558108395971  1.0000
  C   C11       1.0  0.0368391570050122  0.5543908497302964  0.33956118086616277  1.0000
  C   C12       1.0  0.9631643265966617  0.4456119966367139  0.6604399313423244  1.0000
  C   C13       1.0  0.08924169066040122  0.41348867548481383  0.31279602717501126  1.0000
  C   C14       1.0  0.9107620630767457  0.5865100056186134  0.6872059845463951  1.0000
  C   C15       1.0  0.16635840201307425  0.6682049856828912  0.3253118593645753  1.0000
  C   C16       1.0  0.8336450169696762  0.3317926518213313  0.6746871663076066  1.0000
  C   C17       1.0  0.43035723631284395  0.2643382690576033  0.11368932892187195  1.0000
  C   C18       1.0  0.5696447255067271  0.7356593621375894  0.8863122624962899  1.0000
  C   C19       1.0  0.45151029706609347  0.2411893086546398  0.9874528061177656  1.0000
  C   C20       1.0  0.5484901807685533  0.7588083157331269  0.012548631730645509  1.0000
  C   C21       1.0  0.5760881801252679  0.35215872323160363  0.9485666564753858  1.0000
  C   C22       1.0  0.4239107869027237  0.6478388938503556  0.05143190848755102  1.0000
  C   C23       1.0  0.8997548560997899  0.5205228972402907  0.008998203430536589  1.0000
  C   C24       1.0  0.1002435686224032  0.47947784266894894  0.991002821040283  1.0000
  C   C25       1.0  0.350696723535144  0.11487972271271471  0.8978361772729927  1.0000
  C   C26       1.0  0.6493001993209617  0.8851210100568492  0.1021628807509245  1.0000
  C   C27       1.0  0.2430497424070381  0.012884946437225198  0.9398474630847887  1.0000
  C   C28       1.0  0.7569445114713033  0.9871168156521857  0.06015064809454882  1.0000
  C   C29       1.0  0.23401304715170573  0.0422708537988967  0.0686446169870507  1.0000
  C   C30       1.0  0.7659814589809456  0.9577267426946673  0.9313525808280546  1.0000
  N   N1        1.0  0.6379711968552116  0.7232279589212353  0.4624006045068542  1.0000
  N   N2        1.0  0.36202956209035625  0.276770708068959  0.5375983807593273  1.0000
  N   N3        1.0  0.3208354118408749  0.1668938711526522  0.1529831873210483  1.0000
  N   N4        1.0  0.6791623880754332  0.8331047823888299  0.8470163972442039  1.0000
  N   N5        1.0  0.7618839146553711  0.40609283791550144  0.02605243483762374  1.0000
  N   N6        1.0  0.23811124310490334  0.5939068454442095  0.9739489221987869  1.0000
  O   O1        1.0  0.17814954919722228  0.027461488927833996  0.33330869331024365  1.0000
  O   O2        1.0  0.821850033696073  0.9725382143557578  0.666690405119681  1.0000
  O   O3        1.0  0.6484292504200939  0.19671564965264568  0.3794541203569893  1.0000
  O   O4        1.0  0.3515689131072009  0.803289255686316  0.6205469110394832  1.0000
  O   O5        1.0  0.44680321320743854  0.9228041182684735  0.3520032664772047  1.0000
  O   O6        1.0  0.5531940533436456  0.07719765826642798  0.6479996840345166  1.0000
  O   O7        1.0  0.9495957543083549  0.30583381161512335  0.26170928646456565  1.0000
  O   O8        1.0  0.0504071938932356  0.6941669500454282  0.7382994502241118  1.0000
  O   O9        1.0  0.2790686915082717  0.41216137402852127  0.346119991590733  1.0000
  O   O10       1.0  0.720933823592546  0.5878383422053944  0.6538757882243829  1.0000
  O   O11       1.0  0.5098248175624748  0.3886837223738765  0.8525748062748664  1.0000
  O   O12       1.0  0.49017267442117435  0.6113138880667889  0.14742451155689912  1.0000
