data_image0
_chemical_formula_structural       CoMo4H24C36N12O13
_chemical_formula_sum              "Co1 Mo4 H24 C36 N12 O13"
_cell_length_a       8.086757268682266
_cell_length_b       8.633699473674474
_cell_length_c       13.57731091244946
_cell_angle_alpha    80.8706929057492
_cell_angle_beta     83.59604594689121
_cell_angle_gamma    82.33345382961923

_space_group_name_H-M_alt    "P 1"
_space_group_IT_number       1

loop_
  _space_group_symop_operation_xyz
  'x, y, z'

loop_
  _atom_site_type_symbol
  _atom_site_label
  _atom_site_symmetry_multiplicity
  _atom_site_fract_x
  _atom_site_fract_y
  _atom_site_fract_z
  _atom_site_occupancy
  Co  Co1       1.0  0.999996454436349  0.9999982595205452  0.49999991013191203  1.0000
  Mo  Mo1       1.0  0.35067200739831605  0.683586943921483  0.5758359917135965  1.0000
  Mo  Mo2       1.0  0.6493251383254234  0.3164119500649177  0.424163793747482  1.0000
  Mo  Mo3       1.0  0.8093058559385683  0.6309087072442523  0.5480919827099768  1.0000
  Mo  Mo4       1.0  0.19069021800785893  0.369088984677063  0.4519079971075471  1.0000
  H   H1        1.0  0.15729760461069722  0.7357676067507198  0.4085836994381041  1.0000
  H   H2        1.0  0.8427021804708729  0.264230161688829  0.5914167827254246  1.0000
  H   H3        1.0  0.30225600316020956  0.6902240374357618  0.24377498776919987  1.0000
  H   H4        1.0  0.6977469972533255  0.30977733719903  0.7562249113249849  1.0000
  H   H5        1.0  0.08640931671930473  0.15536981947285258  0.1219822500087986  1.0000
  H   H6        1.0  0.9135887177642844  0.8446314712672204  0.8780179605634189  1.0000
  H   H7        1.0  0.9673111204528482  0.19300760609613832  0.29698645501255777  1.0000
  H   H8        1.0  0.03268245721628923  0.8069900574750049  0.7030144164985117  1.0000
  H   H9        1.0  0.6213203248176882  0.5440050541249305  0.14824629385864804  1.0000
  H   H10       1.0  0.3786791474781737  0.4559950493030414  0.851752483421933  1.0000
  H   H11       1.0  0.8445620568834826  0.3207767783901473  0.1402905578013502  1.0000
  H   H12       1.0  0.1554380812178096  0.679226957271652  0.8597114719215568  1.0000
  H   H13       1.0  0.9276031600950745  0.4278903677513313  0.8311430725257696  1.0000
  H   H14       1.0  0.07240373447108076  0.5721098887131006  0.1688567094468283  1.0000
  H   H15       1.0  0.7037618147605967  0.6521935122809523  0.8259223618844374  1.0000
  H   H16       1.0  0.29624612495825875  0.34780797344294007  0.17407869764077333  1.0000
  H   H17       1.0  0.0917756988015199  0.39295063256266616  0.7022970685766836  1.0000
  H   H18       1.0  0.9082225985734169  0.6070493819056823  0.29769810680075176  1.0000
  H   H19       1.0  0.1320212242727621  0.2288688811539998  0.8712467988109509  1.0000
  H   H20       1.0  0.8679767203795378  0.7711335090943335  0.128748879547139  1.0000
  H   H21       1.0  0.49910853629047125  0.9158432979877134  0.7197395118873473  1.0000
  H   H22       1.0  0.5008924769612689  0.08415450502270261  0.28026162836120255  1.0000
  H   H23       1.0  0.4368378038044369  0.08484641699247669  0.5587683674196741  1.0000
  H   H24       1.0  0.5631646605718927  0.9151501851086505  0.44123060358271715  1.0000
  C   C1        1.0  0.1491799923784569  0.8283567907497655  0.3448049171444509  1.0000
  C   C2        1.0  0.8508221592121713  0.17164214633979213  0.6551923489749926  1.0000
  C   C3        1.0  0.22810876011190123  0.8027675947247204  0.25204568048624765  1.0000
  C   C4        1.0  0.7718956648015903  0.1972326061951648  0.7479535212708299  1.0000
  C   C5        1.0  0.20968677147317286  0.9215959074959131  0.16981354186776088  1.0000
  C   C6        1.0  0.7903146613598581  0.0784077947508095  0.8301854661675208  1.0000
  C   C7        1.0  0.10811609476834859  0.06202261974803492  0.18494253773332053  1.0000
  C   C8        1.0  0.8918854944575327  0.937979915004476  0.815057322743428  1.0000
  C   C9        1.0  0.04029366502579279  0.082664623392958  0.2816579293849841  1.0000
  C   C10       1.0  0.9596991536517194  0.9173295031246839  0.7183448413654857  1.0000
  C   C11       1.0  0.30075801026298893  0.8950102168501743  0.07207281345478123  1.0000
  C   C12       1.0  0.6992430698474051  0.1049958611765334  0.9279266975611407  1.0000
  C   C13       1.0  0.5080996776385189  0.7496514351207113  0.9874007656614908  1.0000
  C   C14       1.0  0.4919018982750529  0.2503511132289873  0.012599830769794085  1.0000
  C   C15       1.0  0.35232700665738276  0.9580495283412701  0.9040860869769461  1.0000
  C   C16       1.0  0.6476713672365406  0.041949400216004996  0.0959143565691534  1.0000
  C   C17       1.0  0.6451346812998647  0.6184552097140141  0.9872179589735739  1.0000
  C   C18       1.0  0.3548670776311837  0.38154614394709796  0.012782017990112082  1.0000
  C   C19       1.0  0.6870574290930662  0.5230267653460317  0.0763466806762096  1.0000
  C   C20       1.0  0.3129441201958798  0.47697581019804863  0.9236553876641338  1.0000
  C   C21       1.0  0.8133195248680137  0.39701258128084765  0.07119061212651451  1.0000
  C   C22       1.0  0.18668114897339902  0.6029875839123733  0.9288102951481606  1.0000
  C   C23       1.0  0.8584425623901097  0.4558174177079195  0.9008609618817971  1.0000
  C   C24       1.0  0.14155758902349894  0.5441863043566855  0.0991403318865878  1.0000
  C   C25       1.0  0.7335351270799676  0.5834926073920029  0.8973389927709832  1.0000
  C   C26       1.0  0.2664698205584202  0.4165123796587337  0.10266187303242451  1.0000
  C   C27       1.0  0.1800297090012535  0.28570469834649964  0.709710339487394  1.0000
  C   C28       1.0  0.8199688745347659  0.7142930083278001  0.29028801268205484  1.0000
  C   C29       1.0  0.2029169474278376  0.1955351468158426  0.8030527087044989  1.0000
  C   C30       1.0  0.7970816227958721  0.8044625734556448  0.1969463794194795  1.0000
  C   C31       1.0  0.31966267017700994  0.0598786203033015  0.8080695122704215  1.0000
  C   C32       1.0  0.6803391153786578  0.9401227061634286  0.1919289927842058  1.0000
  C   C33       1.0  0.4077855028930202  0.0206508473243829  0.7189490340992818  1.0000
  C   C34       1.0  0.5922128843132056  0.9793480676356978  0.2810506734922811  1.0000
  C   C35       1.0  0.3743604753459593  0.11537914015049469  0.6294051894448174  1.0000
  C   C36       1.0  0.6256393230479202  0.8846186146918669  0.370594556764182  1.0000
  N   N1        1.0  0.06257583187890958  0.968006440453692  0.3610955043501178  1.0000
  N   N2        1.0  0.9374214569253708  0.0319912996356919  0.6389058695069637  1.0000
  N   N3        1.0  0.2604842105314943  0.9922842251598212  0.9885309465111263  1.0000
  N   N4        1.0  0.7395186334891901  0.007718316969174995  0.011468100141584612  1.0000
  N   N5        1.0  0.4238802696382961  0.7736882847287843  0.07550010663140942  1.0000
  N   N6        1.0  0.5761218822494171  0.22631899536300173  0.9244992100280669  1.0000
  N   N7        1.0  0.4758138262252061  0.8382713641630346  0.8994827881457397  1.0000
  N   N8        1.0  0.5241865215181961  0.16173114961579668  0.10051715020052399  1.0000
  N   N9        1.0  0.8988290309350403  0.3615901498322316  0.9854373935566374  1.0000
  N   N10       1.0  0.10117732789100134  0.6384136771007789  0.014563510864206777  1.0000
  N   N11       1.0  0.26301053773438815  0.24650741216538552  0.6237467551833901  1.0000
  N   N12       1.0  0.7369880591139406  0.7534902809117271  0.3762508610315152  1.0000
  O   O1        1.0  0.23410730607655955  0.8653744536410385  0.538771989509435  1.0000
  O   O2        1.0  0.7658924790050109  0.1346233147985174  0.4612284926540937  1.0000
  O   O3        1.0  0.31502192335049983  0.5479738491731749  0.49367287744433247  1.0000
  O   O4        1.0  0.6849755218466312  0.45202272342199723  0.5063293488542229  1.0000
  O   O5        1.0  0.276930883226143  0.6161556673559332  0.6968572965726736  1.0000
  O   O6        1.0  0.723071018785447  0.38384453240816196  0.3031442687870154  1.0000
  O   O7        1.0  0.8201017828766695  0.5610588590250954  0.6727383292554734  1.0000
  O   O8        1.0  0.17989268355231747  0.43894120129971986  0.32726296736674243  1.0000
  O   O9        1.0  0.9999985245943392  0.4999962084909909  0.5000017558835453  1.0000
  O   O10       1.0  0.9015982094370966  0.8094967653246243  0.5318040660206691  1.0000
  O   O11       1.0  0.0984001644568195  0.19050216323264385  0.46819637752543036  1.0000
  O   O12       1.0  0.5707830424604623  0.7220020588777061  0.5711469992724575  1.0000
  O   O13       1.0  0.4292102490475926  0.27799791248747857  0.4288506954466058  1.0000
