data_image0
_chemical_formula_structural       Zn16H24C96S16N8O84
_chemical_formula_sum              "Zn16 H24 C96 S16 N8 O84"
_cell_length_a       19.623099532140095
_cell_length_b       19.73310416812032
_cell_length_c       33.28658928275405
_cell_angle_alpha    79.0955788741037
_cell_angle_beta     79.4020832666507
_cell_angle_gamma    64.0753754309772

_space_group_name_H-M_alt    "P 1"
_space_group_IT_number       1

loop_
  _space_group_symop_operation_xyz
  'x, y, z'

loop_
  _atom_site_type_symbol
  _atom_site_label
  _atom_site_symmetry_multiplicity
  _atom_site_fract_x
  _atom_site_fract_y
  _atom_site_fract_z
  _atom_site_occupancy
  Zn  Zn1       1.0  0.057728002404466794  0.40085311235448984  0.4782521052429728  1.0000
  Zn  Zn2       1.0  0.9832259479232023  0.4830455598786755  0.5603220566044981  1.0000
  Zn  Zn3       1.0  0.0606328757596231  0.5598416456355579  0.4818444604132705  1.0000
  Zn  Zn4       1.0  0.8996862005453821  0.5546343968512842  0.4800191634721713  1.0000
  Zn  Zn5       1.0  0.6931540587523983  0.35028888799556757  0.2704531814769807  1.0000
  Zn  Zn6       1.0  0.6920419247199163  0.18736726776189258  0.2675522260783651  1.0000
  Zn  Zn7       1.0  0.7666825418272866  0.2694181806055198  0.18964060052512358  1.0000
  Zn  Zn8       1.0  0.8477653880261187  0.19329308414646115  0.2726531921582732  1.0000
  Zn  Zn9       1.0  0.2656251059726316  0.7679248279164809  0.6895686273117646  1.0000
  Zn  Zn10      1.0  0.34984140741417485  0.6945468261019128  0.771157117007611  1.0000
  Zn  Zn11      1.0  0.1930311286126312  0.8497221738070382  0.7703012530554572  1.0000
  Zn  Zn12      1.0  0.19240613593781572  0.6872077208896953  0.7681006561939369  1.0000
  Zn  Zn13      1.0  0.5602432330554592  0.06059004523542914  0.9824300441856476  1.0000
  Zn  Zn14      1.0  0.4000194544709926  0.05507990939219811  0.9785477850542604  1.0000
  Zn  Zn15      1.0  0.5586299860240233  0.9019998502188212  0.9782986381519332  1.0000
  Zn  Zn16      1.0  0.4786675742311602  0.9852225449638607  0.06028954732978057  1.0000
  H   H1        1.0  0.7480025787317572  0.4524118804123629  0.35023001475122567  1.0000
  H   H2        1.0  0.0011153475619209998  0.2978168454672172  0.4000820839289999  1.0000
  H   H3        1.0  0.20063885029210837  0.7005910099135162  0.5994471162107544  1.0000
  H   H4        1.0  0.04986661822489678  0.5486523771706543  0.650547462427731  1.0000
  H   H5        1.0  0.650485741479521  0.15129130703007124  0.04925142061769349  1.0000
  H   H6        1.0  0.599677575364872  0.09862130814033067  0.2008080264048003  1.0000
  H   H7        1.0  0.29879230668879597  0.9997696956282881  0.9002406409101977  1.0000
  H   H8        1.0  0.4518240218640841  0.7490600080641269  0.8498566883641698  1.0000
  H   H9        1.0  0.3278808204279429  0.539660928678728  0.39837673375242116  1.0000
  H   H10       1.0  0.4240045996012398  0.20866722305493102  0.35142832798756257  1.0000
  H   H11       1.0  0.7542900622341548  0.5421690391471401  0.6851950072425125  1.0000
  H   H12       1.0  0.4941776056613918  0.7074395933643841  0.5655375943383659  1.0000
  H   H13       1.0  0.042945902144317906  0.25500540048662407  0.6836932258601107  1.0000
  H   H14       1.0  0.20782519409052472  0.9962765415076829  0.5652465064739116  1.0000
  H   H15       1.0  0.7452626820640803  0.8119928286872806  0.3863606239912016  1.0000
  H   H16       1.0  0.0044895492935453  0.9332712044411122  0.364480546674585  1.0000
  H   H17       1.0  0.7061187546440094  0.4972270446176949  0.06573061076712612  1.0000
  H   H18       1.0  0.5423273383831814  0.7581727755029347  0.18353351906843318  1.0000
  H   H19       1.0  0.1461181592138558  0.08126248158085762  0.22083965457162685  1.0000
  H   H20       1.0  0.09769625027853832  0.17305851380365303  0.030641923673428596  1.0000
  H   H21       1.0  0.5083814991235515  0.43151152887924116  0.8636118852561547  1.0000
  H   H22       1.0  0.24485853903662763  0.3166656769138854  0.8867122229308533  1.0000
  H   H23       1.0  0.9225278740832508  0.7102487688795306  0.8502140552271552  1.0000
  H   H24       1.0  0.8310221116565799  0.04004680879009472  0.8975197194555516  1.0000
  C   C1        1.0  0.0629242865816195  0.3168964937903382  0.5616122779514041  1.0000
  C   C2        1.0  0.0701877525938386  0.568415940337708  0.5684700307600534  1.0000
  C   C3        1.0  0.18452619616683558  0.4392673477176956  0.43742647346020636  1.0000
  C   C4        1.0  0.9363184748646134  0.6828015258366021  0.43962388434567845  1.0000
  C   C5        1.0  0.9311069983416259  0.42945551867801157  0.43196003562844243  1.0000
  C   C6        1.0  0.8163376950113062  0.560270133739344  0.5630756221607951  1.0000
  C   C7        1.0  0.5669585135241489  0.30953160558033216  0.310892404033872  1.0000
  C   C8        1.0  0.681173503379398  0.1812162822919987  0.18113840779933094  1.0000
  C   C9        1.0  0.6887201463978129  0.4359719623152358  0.18779415285036546  1.0000
  C   C10       1.0  0.9327336483324159  0.18933887251454726  0.1899698852019327  1.0000
  C   C11       1.0  0.8168629083503802  0.3195198305463406  0.3195789374464297  1.0000
  C   C12       1.0  0.8129883340192947  0.06366713115468055  0.31175409173753366  1.0000
  C   C13       1.0  0.43237895894363737  0.6897106203197294  0.6876752962695746  1.0000
  C   C14       1.0  0.3192133551274594  0.8197872987507466  0.8181712536387022  1.0000
  C   C15       1.0  0.187889436372437  0.9341276461908022  0.6873065476431605  1.0000
  C   C16       1.0  0.0674792083714735  0.8089210596265486  0.8110085003301746  1.0000
  C   C17       1.0  0.18151115597325426  0.6796890711211317  0.6815231603484901  1.0000
  C   C18       1.0  0.3156721195688021  0.5652124948896428  0.8119239126293534  1.0000
  C   C19       1.0  0.4373791298666632  0.18308699070622933  0.9383521235736509  1.0000
  C   C20       1.0  0.4323555450034887  0.9301445712023835  0.930923455075749  1.0000
  C   C21       1.0  0.6859288326687364  0.9413148104664799  0.9384491342217128  1.0000
  C   C22       1.0  0.55982075907027  0.8186709313471779  0.061448661364579465  1.0000
  C   C23       1.0  0.5670368895978727  0.07060639817163393  0.0689268943929662  1.0000
  C   C24       1.0  0.3121526400465057  0.06292494588554122  0.06053748190591787  1.0000
  C   C25       1.0  0.9016857338964003  0.40341027248722827  0.40199111580916014  1.0000
  C   C26       1.0  0.8484905447410325  0.3478830529169343  0.3472840075399403  1.0000
  C   C27       1.0  0.8307602260237487  0.44632295058553945  0.38704193814199067  1.0000
  C   C28       1.0  0.920230430925784  0.30575954672046635  0.3614375592129447  1.0000
  C   C29       1.0  0.8039221767055906  0.4189316328919899  0.3608354481914231  1.0000
  C   C30       1.0  0.9459424995253942  0.33205085019783065  0.3887476498465787  1.0000
  C   C31       1.0  0.0978011369798679  0.5992695346253428  0.5969164340202793  1.0000
  C   C32       1.0  0.15068015121326536  0.6519731934937595  0.6531035320264563  1.0000
  C   C33       1.0  0.13977030353012046  0.6430125591362666  0.5832663389448526  1.0000
  C   C34       1.0  0.1072746722784714  0.6096609068394085  0.6667500650721152  1.0000
  C   C35       1.0  0.16690498694325132  0.667866467666272  0.610577981034872  1.0000
  C   C36       1.0  0.08230957100631997  0.5826572774779776  0.6394330760297038  1.0000
  C   C37       1.0  0.3055714140468808  0.4538501352053997  0.40004092479695413  1.0000
  C   C38       1.0  0.44616379879382617  0.29477357795111897  0.34872444953112586  1.0000
  C   C39       1.0  0.2590155721227845  0.4149720021226457  0.41295215324038975  1.0000
  C   C40       1.0  0.49275836143552  0.33356194744063566  0.33574766131173556  1.0000
  C   C41       1.0  0.3781280236532254  0.3386564969524102  0.372467966794474  1.0000
  C   C42       1.0  0.3741821744370172  0.40950533326579086  0.3768094764543193  1.0000
  C   C43       1.0  0.7251898092150171  0.5766869691743179  0.6306790681883782  1.0000
  C   C44       1.0  0.5234567941266306  0.6735107776573201  0.6200514818077068  1.0000
  C   C45       1.0  0.742242586623739  0.5853467059601202  0.5879289378654986  1.0000
  C   C46       1.0  0.5064305150386305  0.665253776227587  0.6628287337947041  1.0000
  C   C47       1.0  0.6035050124374807  0.6416373445834296  0.6084049374645203  1.0000
  C   C48       1.0  0.6451998114674566  0.6095525598634592  0.6423042494164191  1.0000
  C   C49       1.0  0.07755536502222782  0.22593465622156117  0.6293839724961712  1.0000
  C   C50       1.0  0.1730873521649414  0.025097595359376567  0.6195783034927442  1.0000
  C   C51       1.0  0.08659262619539018  0.24297369373697106  0.5866011921858174  1.0000
  C   C52       1.0  0.1637237562430158  0.008090903206230807  0.6623375759190395  1.0000
  C   C53       1.0  0.14098734856397496  0.10476480537317195  0.6076464184658901  1.0000
  C   C54       1.0  0.10874306123049139  0.14623347747556178  0.641318868198219  1.0000
  C   C55       1.0  0.842714112682188  0.7991715949222636  0.39757163522022393  1.0000
  C   C56       1.0  0.9064115416869285  0.9470506898924569  0.35378008913566106  1.0000
  C   C57       1.0  0.9109799359120175  0.7570787829207077  0.4149932320219492  1.0000
  C   C58       1.0  0.8379423507878911  0.9895426964325508  0.3365785909955932  1.0000
  C   C59       1.0  0.9077436470686991  0.8777303253359034  0.3762275051843032  1.0000
  C   C60       1.0  0.8410981349792337  0.8687685128021339  0.3753924698388715  1.0000
  C   C61       1.0  0.6545696075116397  0.15124167746220937  0.1516862995463342  1.0000
  C   C62       1.0  0.5976857135470938  0.09654732825038076  0.09836516026606999  1.0000
  C   C63       1.0  0.6688831231590413  0.16450743951778424  0.10873641736162647  1.0000
  C   C64       1.0  0.5849715882447626  0.08169693531169743  0.14131279804919927  1.0000
  C   C65       1.0  0.6401224044225698  0.13905750774804904  0.08252641670934217  1.0000
  C   C66       1.0  0.6115085742913849  0.10937996117482379  0.16752726007658228  1.0000
  C   C67       1.0  0.6731202800985727  0.5269257548669304  0.1199848358970428  1.0000
  C   C68       1.0  0.5751412743753264  0.7280150162094614  0.1293530762866908  1.0000
  C   C69       1.0  0.6641395737836717  0.5099860959677471  0.16280268149334623  1.0000
  C   C70       1.0  0.5839215931739687  0.744749970655711  0.08652047368276067  1.0000
  C   C71       1.0  0.6075123298401407  0.6483345639864025  0.14145561685721472  1.0000
  C   C72       1.0  0.6402665661071794  0.6066233287810903  0.10789734250310079  1.0000
  C   C73       1.0  0.0797244149589247  0.12560273810662886  0.17845315104748488  1.0000
  C   C74       1.0  0.16508663296616527  0.12611120353718522  0.07236269136993909  1.0000
  C   C75       1.0  0.007087817007473498  0.16367416776519408  0.16539306494033207  1.0000
  C   C76       1.0  0.23783081508356219  0.08775107692264329  0.08520089548385101  1.0000
  C   C77       1.0  0.10756308761725111  0.1392990907672171  0.10649697923636124  1.0000
  C   C78       1.0  0.1374271229762769  0.11148839822983087  0.14434064514905737  1.0000
  C   C79       1.0  0.3460830313909824  0.8484078915383647  0.8481286354267539  1.0000
  C   C80       1.0  0.40348490921633123  0.8993529469149876  0.9030131070208114  1.0000
  C   C81       1.0  0.3035828448415074  0.9186278067305124  0.8631998164972784  1.0000
  C   C82       1.0  0.4451912550311191  0.828348852696145  0.8887227875405299  1.0000
  C   C83       1.0  0.33185768585371983  0.9443935778819464  0.8894941613059542  1.0000
  C   C84       1.0  0.4180053153592596  0.8036855212628212  0.8613372664703858  1.0000
  C   C85       1.0  0.4092847064081511  0.44760742653883756  0.8535025660465363  1.0000
  C   C86       1.0  0.3440477612047203  0.30064386761718254  0.8966899848598543  1.0000
  C   C87       1.0  0.34069061843380416  0.490950231110908  0.8366218019610087  1.0000
  C   C88       1.0  0.4124668629463315  0.25746527792443163  0.9137830985837352  1.0000
  C   C89       1.0  0.3428587514476789  0.3703537167043152  0.8749381935114185  1.0000
  C   C90       1.0  0.41005422857565327  0.3783698198002836  0.8756879454460885  1.0000
  C   C91       1.0  0.946141668277825  0.7951856419480661  0.84886703258811  1.0000
  C   C92       1.0  0.8075379935423967  0.9547112228399256  0.9005476163446954  1.0000
  C   C93       1.0  0.9934820859948275  0.8332592455482412  0.8359771637629976  1.0000
  C   C94       1.0  0.7602598771027331  0.9166856864437418  0.9136962422495428  1.0000
  C   C95       1.0  0.8755784556362086  0.9099191342350892  0.8771290130813011  1.0000
  C   C96       1.0  0.8784091657015978  0.8395348633784249  0.872716415538413  1.0000
  S   S1        1.0  0.29902949155520997  0.3248576425097129  0.39687686300541697  1.0000
  S   S2        1.0  0.4534255340553274  0.42312111898721116  0.35247051437689686  1.0000
  S   S3        1.0  0.6610160639197886  0.6331053786051727  0.5621528573682181  1.0000
  S   S4        1.0  0.5877741911227403  0.6187591335112185  0.6885904284760753  1.0000
  S   S5        1.0  0.1328810389300799  0.1620647740135155  0.5612048724455503  1.0000
  S   S6        1.0  0.11623374173846199  0.08891141158628102  0.6877390235471521  1.0000
  S   S7        1.0  0.9725734591777025  0.8023307787494716  0.40437901893538697  1.0000
  S   S8        1.0  0.7758290027900401  0.9448121374127109  0.3477729856774231  1.0000
  S   S9        1.0  0.6157105759333489  0.5911208640264716  0.1879827387722415  1.0000
  S   S10       1.0  0.6314143524226096  0.6636434428842507  0.06132328371889883  1.0000
  S   S11       1.0  0.009355689765854398  0.1817759091364408  0.11185885913720026  1.0000
  S   S12       1.0  0.23567502228734577  0.06818110104028818  0.13875529361479264  1.0000
  S   S13       1.0  0.27774145643866177  0.4472368114887216  0.8477353760048982  1.0000
  S   S14       1.0  0.47485520152465444  0.30181958674698  0.9032723144021799  1.0000
  S   S15       1.0  0.9554174700660737  0.9225528219540848  0.8529183413692177  1.0000
  S   S16       1.0  0.7988794654056973  0.8267810427247607  0.897411435151646  1.0000
  N   N1        1.0  0.780855909147583  0.5244449779525976  0.39697054691079353  1.0000
  N   N2        1.0  0.9745302547571697  0.23191289021900013  0.3472859144995581  1.0000
  N   N3        1.0  0.15562127282116484  0.6679783627853267  0.5390477599637222  1.0000
  N   N4        1.0  0.0827442033681933  0.5932607165922832  0.7109598393552542  1.0000
  N   N5        1.0  0.7175451815018974  0.20416772404297476  0.0884224204152488  1.0000
  N   N6        1.0  0.5446531424374541  0.033705183285967145  0.16168663379954035  1.0000
  N   N7        1.0  0.22515295011537972  0.9690906916077394  0.8530907794611692  1.0000
  N   N8        1.0  0.519677013363058  0.773907243759858  0.9027325433942007  1.0000
  O   O1        1.0  0.0007193683891201999  0.4990330069932438  0.4998857933417184  1.0000
  O   O2        1.0  0.0743416696711563  0.3158377954235618  0.5223877173643172  1.0000
  O   O3        1.0  0.024270398682908492  0.5388185507748917  0.5852851505785208  1.0000
  O   O4        1.0  0.15403236303745158  0.5068020941852608  0.44690915092145633  1.0000
  O   O5        1.0  0.033488146542275395  0.3754882448212911  0.5806125136462796  1.0000
  O   O6        1.0  0.15628676343899883  0.3897456613166596  0.4471284610870113  1.0000
  O   O7        1.0  0.09574636243424099  0.5739655213388773  0.5306619061680065  1.0000
  O   O8        1.0  0.0010076159519982998  0.6590399092228478  0.45341954803690493  1.0000
  O   O9        1.0  0.8838419691817592  0.4882166136435658  0.44826522671951347  1.0000
  O   O10       1.0  0.8929994329788188  0.6480574601177973  0.4452080711783069  1.0000
  O   O11       1.0  0.0002552675427480999  0.38955415948306876  0.4384747885974105  1.0000
  O   O12       1.0  0.8754263541203356  0.5219947805615777  0.5818760987694275  1.0000
  O   O13       1.0  0.8148897677912147  0.5792804699199438  0.5240485155748755  1.0000
  O   O14       1.0  0.7491239383416328  0.25077202464700576  0.2501655123107653  1.0000
  O   O15       1.0  0.5986222543735665  0.3560705790866266  0.3048798798125673  1.0000
  O   O16       1.0  0.672918153371981  0.156000322435254  0.21897363479038026  1.0000
  O   O17       1.0  0.7272935707243066  0.3774521264320753  0.1691036440296045  1.0000
  O   O18       1.0  0.5934302554052382  0.24537806801830425  0.2974005142823727  1.0000
  O   O19       1.0  0.6691186610937124  0.43658104347541377  0.22684955400793427  1.0000
  O   O20       1.0  0.7082486310101216  0.22943289996717905  0.16555607754161628  1.0000
  O   O21       1.0  0.8746042664090367  0.21941229184545805  0.16958234320145485  1.0000
  O   O22       1.0  0.8535278239376751  0.250128522775519  0.3140886843474391  1.0000
  O   O23       1.0  0.9317497040515335  0.18022575672030433  0.2290356703336513  1.0000
  O   O24       1.0  0.7559317396106664  0.3674481148216415  0.3048026795656397  1.0000
  O   O25       1.0  0.7449427525598438  0.09163859212235781  0.301531551391534  1.0000
  O   O26       1.0  0.8601290173952804  0.0942179352850729  0.3022834798295477  1.0000
  O   O27       1.0  0.2501813705247002  0.7500771969957328  0.7500148305332386  1.0000
  O   O28       1.0  0.3731755841417836  0.7186448708609203  0.6686787601270296  1.0000
  O   O29       1.0  0.360427396624452  0.7517444235582289  0.8108830421738842  1.0000
  O   O30       1.0  0.1683103407454212  0.9350138634330422  0.7262698259447474  1.0000
  O   O31       1.0  0.4339834146405721  0.6793896193327812  0.726865649305857  1.0000
  O   O32       1.0  0.2260303819950948  0.8756348860813362  0.6685275808119185  1.0000
  O   O33       1.0  0.2586411193372983  0.866295064346005  0.8027393952329689  1.0000
  O   O34       1.0  0.09947712463840469  0.8552129784123323  0.8049690659177812  1.0000
  O   O35       1.0  0.177168929721411  0.653262271001317  0.7192973403497758  1.0000
  O   O36       1.0  0.093717054090142  0.7448773651600575  0.797383403928265  1.0000
  O   O37       1.0  0.20987675470011877  0.726538275498086  0.6647276891743558  1.0000
  O   O38       1.0  0.3629124459786226  0.5957016273956838  0.801947632498283  1.0000
  O   O39       1.0  0.24725986708573802  0.5931073839616728  0.8024147945053669  1.0000
  O   O40       1.0  0.4998238430962232  0.00043606082893181473  0.9998061878617861  1.0000
  O   O41       1.0  0.50192694631005  0.15907740921166882  0.9523140040676238  1.0000
  O   O42       1.0  0.3842518659928231  0.9910389575468771  0.9450988209144097  1.0000
  O   O43       1.0  0.6570055191570389  0.8923954098031074  0.9476128810887016  1.0000
  O   O44       1.0  0.39385708771067834  0.14866483719758605  0.9436730053180112  1.0000
  O   O45       1.0  0.6562144412817261  0.008318894397042692  0.9487847186277701  1.0000
  O   O46       1.0  0.5018276040525151  0.893233899302615  0.9372008832357036  1.0000
  O   O47       1.0  0.5741471648650247  0.8173706300688222  0.022237995777402392  1.0000
  O   O48       1.0  0.5196976011397823  0.04231437681355029  0.0845624064273167  1.0000
  O   O49       1.0  0.5272359077710433  0.8774496491082  0.08034199303065745  1.0000
  O   O50       1.0  0.5910541370893085  0.08031866254985692  0.031050715909920267  1.0000
  O   O51       1.0  0.31355041023059027  0.07983581575733463  0.0215021389788461  1.0000
  O   O52       1.0  0.37018470417439886  0.025847429414994818  0.08073468765303461  1.0000
  O   O53       1.0  0.8000263978473824  0.575150510081855  0.37891180151284937  1.0000
  O   O54       1.0  0.7220776612986768  0.532737495871821  0.42060310046321087  1.0000
  O   O55       1.0  0.008091076162578802  0.23435170422294496  0.31221414576990003  1.0000
  O   O56       1.0  0.9849639426124244  0.17482249886441525  0.37263340330809297  1.0000
  O   O57       1.0  0.10193688642635829  0.7202785778845995  0.5225771629775124  1.0000
  O   O58       1.0  0.22208614539516702  0.6374166349494316  0.5231191760514163  1.0000
  O   O59       1.0  0.0302519112803097  0.6463086562409758  0.7273960004693194  1.0000
  O   O60       1.0  0.11387343268157218  0.5269289670810692  0.7269118578652678  1.0000
  O   O61       1.0  0.7869502617415802  0.1678405079600154  0.08936910507748758  1.0000
  O   O62       1.0  0.6849710908969939  0.26842076543993443  0.07027000621339137  1.0000
  O   O63       1.0  0.581090455404464  0.9645045180416502  0.16168620021069552  1.0000
  O   O64       1.0  0.47974034167458507  0.06669760316117392  0.17899722330566448  1.0000
  O   O65       1.0  0.17373420027739428  0.9512358736720689  0.8716502752498201  1.0000
  O   O66       1.0  0.2174131173951537  0.026928586775930765  0.8287729609634055  1.0000
  O   O67       1.0  0.5179639559843068  0.739778377816208  0.9377670237837988  1.0000
  O   O68       1.0  0.5766063845521002  0.7641177948757943  0.8773366961049547  1.0000
  O   O69       1.0  0.28627493457806  0.5244585380276091  0.4090556547131641  1.0000
  O   O70       1.0  0.4648971805898157  0.22431107152876004  0.339502436512177  1.0000
  O   O71       1.0  0.7790959425280447  0.5413697704170629  0.6569774977742638  1.0000
  O   O72       1.0  0.4694862870601071  0.7080347623997338  0.5937798066446048  1.0000
  O   O73       1.0  0.043037302193368994  0.2796088685214215  0.6553949700274229  1.0000
  O   O74       1.0  0.20820266590580871  0.9715081564227859  0.5935175770629542  1.0000
  O   O75       1.0  0.7864068206491622  0.7753502100548244  0.4020580226099424  1.0000
  O   O76       1.0  0.9630391602758337  0.9704433455262912  0.3491258690014761  1.0000
  O   O77       1.0  0.7086966634021509  0.4731185159248523  0.09414823580655  1.0000
  O   O78       1.0  0.5398120220132087  0.7820287757734828  0.15507544678811766  1.0000
  O   O79       1.0  0.0915271545237175  0.10530191893276705  0.21859877209715958  1.0000
  O   O80       1.0  0.15248400302188972  0.14732275739154935  0.03227409055563869  1.0000
  O   O81       1.0  0.46667974134446416  0.47009443458387756  0.8489258397656056  1.0000
  O   O82       1.0  0.28707112804018914  0.27773019074876965  0.9009183947878938  1.0000
  O   O83       1.0  0.964375411691364  0.7250682110251744  0.8394644770525514  1.0000
  O   O84       1.0  0.7895771775572413  0.025215272207908923  0.9094540752631842  1.0000
