data_image0
_chemical_formula_structural       Zn8H48C80N4O26
_chemical_formula_sum              "Zn8 H48 C80 N4 O26"
_cell_length_a       18.188083764985784
_cell_length_b       18.24787196415719
_cell_length_c       22.196038906006805
_cell_angle_alpha    65.97660812124474
_cell_angle_beta     65.96184200724683
_cell_angle_gamma    90.03083843368461

_space_group_name_H-M_alt    "P 1"
_space_group_IT_number       1

loop_
  _space_group_symop_operation_xyz
  'x, y, z'

loop_
  _atom_site_type_symbol
  _atom_site_label
  _atom_site_symmetry_multiplicity
  _atom_site_fract_x
  _atom_site_fract_y
  _atom_site_fract_z
  _atom_site_occupancy
  Zn  Zn1       1.0  0.7847616848688902  0.6953256887693444  0.43534940432878955  1.0000
  Zn  Zn2       1.0  0.21523853080329045  0.3046757414769559  0.5646491339907699  1.0000
  Zn  Zn3       1.0  0.6305302168030166  0.7161177237260576  0.5611524412178212  1.0000
  Zn  Zn4       1.0  0.3694697547072181  0.28388248258299603  0.43884703969509076  1.0000
  Zn  Zn5       1.0  0.7801548629282921  0.8695388668831897  0.4388504692243274  1.0000
  Zn  Zn6       1.0  0.21984486441998288  0.1304601154886171  0.5611499542819445  1.0000
  Zn  Zn7       1.0  0.8033780303921816  0.7179302025744435  0.5650024476694  1.0000
  Zn  Zn8       1.0  0.1966212240057317  0.2820693970368494  0.4350015314218894  1.0000
  H   H1        1.0  0.13650878757322724  0.5688353982671543  0.46571726383206874  1.0000
  H   H2        1.0  0.5714117143279721  0.003108975781685801  0.37834959509049787  1.0000
  H   H3        1.0  0.5305750582956961  0.3624376507508132  0.5316985790272424  1.0000
  H   H4        1.0  0.4694265959855386  0.6375619427746032  0.46830009364986586  1.0000
  H   H5        1.0  0.5041447359685307  0.4478728927823283  0.6195289542814989  1.0000
  H   H6        1.0  0.49585703998204866  0.5521273123992643  0.38046902207575073  1.0000
  H   H7        1.0  0.9900693774737163  0.5483015516020516  0.591108279336062  1.0000
  H   H8        1.0  0.009931197711963996  0.4516986559975749  0.4088919001819207  1.0000
  H   H9        1.0  0.9506881806834215  0.3820764352136905  0.621475993318022  1.0000
  H   H10       1.0  0.04931239532550079  0.6179237730108369  0.37852463624631844  1.0000
  H   H11       1.0  0.0838042606167377  0.04553311271133959  0.0459060861037628  1.0000
  H   H12       1.0  0.8634916659431013  0.4311641976762957  0.5342836120057727  1.0000
  H   H13       1.0  0.9161967957517874  0.9544664838977823  0.9540950382927846  1.0000
  H   H14       1.0  0.1354455392393419  0.9646472204467855  0.9546568762083679  1.0000
  H   H15       1.0  0.8645555163059272  0.0353523755374425  0.04534379814182187  1.0000
  H   H16       1.0  0.016519414732087505  0.149084527381433  0.9549256640491421  1.0000
  H   H17       1.0  0.9834815183205875  0.8509144563217249  0.04507525657454167  1.0000
  H   H18       1.0  0.9507863356755382  0.9963455531168537  0.6218959616508568  1.0000
  H   H19       1.0  0.0492129113131483  0.0036540408703516014  0.3781039670232006  1.0000
  H   H20       1.0  0.9898542054660383  0.860933890919512  0.590370575206016  1.0000
  H   H21       1.0  0.010145766867438502  0.1390663160144427  0.40962935575325343  1.0000
  H   H22       1.0  0.1365136305350489  0.9652208046845843  0.4652666156012372  1.0000
  H   H23       1.0  0.3565439390995451  0.5154680894900637  0.05062848314372553  1.0000
  H   H24       1.0  0.8634863417984276  0.03477940224937019  0.5347333153580323  1.0000
  H   H25       1.0  0.3173059042530895  0.3462520121282182  0.07796476887118331  1.0000
  H   H26       1.0  0.2310729622789367  0.26803405808130526  0.05330307698432081  1.0000
  H   H27       1.0  0.2682865191407018  0.2924619741346319  0.9244230529132126  1.0000
  H   H28       1.0  0.393398996785514  0.3955551901868049  0.8206524762359991  1.0000
  H   H29       1.0  0.4795941053380944  0.473859229068964  0.8451227109024444  1.0000
  H   H30       1.0  0.682697312776291  0.6537463582071723  0.9220346919826952  1.0000
  H   H31       1.0  0.7689288073538448  0.7319630888601837  0.9466981794845638  1.0000
  H   H32       1.0  0.7317104463410191  0.7075382350950293  0.07557968566974438  1.0000
  H   H33       1.0  0.6065936399652542  0.6044474659662387  0.17934953901507814  1.0000
  H   H34       1.0  0.643455430381735  0.48453211677821884  0.9493711992568379  1.0000
  H   H35       1.0  0.5204008137428886  0.5261428124665244  0.15487694448610523  1.0000
  H   H36       1.0  0.5113184166030535  0.30990018145721626  0.023275153538804664  1.0000
  H   H37       1.0  0.5266404016001759  0.31446250945525384  0.09112363126408944  1.0000
  H   H38       1.0  0.4886812003331613  0.6901012512479029  0.9767253864538361  1.0000
  H   H39       1.0  0.4733598165417519  0.6855389226657495  0.9088762571945493  1.0000
  H   H40       1.0  0.3419329099754974  0.512987441590546  0.6395627407006758  1.0000
  H   H41       1.0  0.30625326708373984  0.43863152457635834  0.6263168830359761  1.0000
  H   H42       1.0  0.6580681422767825  0.48701215189409214  0.36043613346407705  1.0000
  H   H43       1.0  0.6937480293304932  0.5613692928455266  0.373681048535424  1.0000
  H   H44       1.0  0.39739657082608204  0.9671638287319128  0.4649846456518033  1.0000
  H   H45       1.0  0.6026052067709954  0.032836377699474915  0.5350142307981615  1.0000
  H   H46       1.0  0.41799450444334957  0.8616998495569207  0.5904552442668276  1.0000
  H   H47       1.0  0.5820064269628347  0.13829913289643514  0.4095447762641413  1.0000
  H   H48       1.0  0.42859126815024956  0.9968912313561591  0.6216493284305286  1.0000
  C   C1        1.0  0.6450114159920303  0.6506753260340262  0.700099219772774  1.0000
  C   C2        1.0  0.1091301980087351  0.10687574355404192  0.779102836973884  1.0000
  C   C3        1.0  0.9910973826495777  0.9173653497432853  0.02451849755646407  1.0000
  C   C4        1.0  0.0089036737189474  0.0826342468658368  0.9754826268400835  1.0000
  C   C5        1.0  0.962125787755319  0.9620894214759093  0.07581377936897138  1.0000
  C   C6        1.0  0.03787514529735599  0.03790956222724161  0.9241871412547198  1.0000
  C   C7        1.0  0.9236228881431356  0.9248704362622892  0.1537203263973197  1.0000
  C   C8        1.0  0.0763751476465941  0.07512609877836239  0.8462828353173181  1.0000
  C   C9        1.0  0.9948215423578403  0.9229815128876029  0.550372542413797  1.0000
  C   C10       1.0  0.005177226740990205  0.07701869458969673  0.44962824156713327  1.0000
  C   C11       1.0  0.9718909249948596  0.9971504173198794  0.5678634582527308  1.0000
  C   C12       1.0  0.3549887892461073  0.34932304284768634  0.2999003484266325  1.0000
  C   C13       1.0  0.028109047338624297  0.0028497896140749004  0.43213647270653877  1.0000
  C   C14       1.0  0.052459716065953906  0.0551061903493277  0.4976484856497835  1.0000
  C   C15       1.0  0.9475403804066218  0.944894630115499  0.5023520991287072  1.0000
  C   C16       1.0  0.8522798346734177  0.8532397179008697  0.3002266126976139  1.0000
  C   C17       1.0  0.14771941313851034  0.1467598767112293  0.6997737660228083  1.0000
  C   C18       1.0  0.07516695081962868  0.9798430101908338  0.4807330928533061  1.0000
  C   C19       1.0  0.9248322978155484  0.020156585046166204  0.5192677359134733  1.0000
  C   C20       1.0  0.502255777063432  0.4190147947327034  0.02743630962651625  1.0000
  C   C21       1.0  0.49774299121214227  0.5809854121196949  0.9725640243080561  1.0000
  C   C22       1.0  0.4549750252613263  0.46125186435254767  0.980154288020195  1.0000
  C   C23       1.0  0.9718882127681923  0.4351597463383214  0.56764492878591  1.0000
  C   C24       1.0  0.5450243450432026  0.5387483425406289  0.019845844426733067  1.0000
  C   C25       1.0  0.6045253882225197  0.6099605818039678  0.7792850588615253  1.0000
  C   C26       1.0  0.3954755429154773  0.39004145389030503  0.22070808118694876  1.0000
  C   C27       1.0  0.5793502787900451  0.4911019524795749  0.9723013312901756  1.0000
  C   C28       1.0  0.42064861033163226  0.5088988654040989  0.027697856278187737  1.0000
  C   C29       1.0  0.5335888294557803  0.5330083946901001  0.9241807512027691  1.0000
  C   C30       1.0  0.4664081222989082  0.4669887506753696  0.07582121707459784  1.0000
  C   C31       1.0  0.5705344700431354  0.5726505857932764  0.8463780381902096  1.0000
  C   C32       1.0  0.42946090797429554  0.4273416675318062  0.15363060222637157  1.0000
  C   C33       1.0  0.45390044552805614  0.923362615489843  0.5503896122174368  1.0000
  C   C34       1.0  0.028111638719188644  0.5648398495643506  0.43235614853957566  1.0000
  C   C35       1.0  0.5461002505037199  0.07663820314105861  0.44960942093432993  1.0000
  C   C36       1.0  0.44359228282407775  0.9810139928999891  0.48054942218818997  1.0000
  C   C37       1.0  0.5564088927440523  0.018986213490620702  0.519449655749426  1.0000
  C   C38       1.0  0.4509466488859033  0.05618803841152701  0.4971883396711476  1.0000
  C   C39       1.0  0.5490534467634232  0.943812781428399  0.5028117950609783  1.0000
  C   C40       1.0  0.6166258787569561  0.6082252173400207  0.4947619091385461  1.0000
  C   C41       1.0  0.3833722817269347  0.3917749850973066  0.5052354759591751  1.0000
  C   C42       1.0  0.46099453043632366  0.9974198374057934  0.5677023532616517  1.0000
  C   C43       1.0  0.5390072488072518  0.002580370275389001  0.4322974232810353  1.0000
  C   C44       1.0  0.5014882118742534  0.4701749554155655  0.5667355919880706  1.0000
  C   C45       1.0  0.07487060127188985  0.9798642516021376  0.9755896927102726  1.0000
  C   C46       1.0  0.49851308453997223  0.5298258620063194  0.4332623395833366  1.0000
  C   C47       1.0  0.5175577123892908  0.42417791966374824  0.5181309188958565  1.0000
  C   C48       1.0  0.4824446680599905  0.5758222874333117  0.4818682061128142  1.0000
  C   C49       1.0  0.44111690884747645  0.45007341863085065  0.5039122450162808  1.0000
  C   C50       1.0  0.5588836613987098  0.5499267852193837  0.4960852342235499  1.0000
  C   C51       1.0  0.4242261747683215  0.49641376756563466  0.5525928487990726  1.0000
  C   C52       1.0  0.5757745196169637  0.5035870498154723  0.4474052842599789  1.0000
  C   C53       1.0  0.8893517498321089  0.8879198394971867  0.5024533968502993  1.0000
  C   C54       1.0  0.11064991817615782  0.11208281789241432  0.49754604613239917  1.0000
  C   C55       1.0  0.6065603701996451  0.8862024684210115  0.5020333664179972  1.0000
  C   C56       1.0  0.9251297297518377  0.020134732060242296  0.02441142940106293  1.0000
  C   C57       1.0  0.3934394788179886  0.11379712560696477  0.49796636076841594  1.0000
  C   C58       1.0  0.8888934429161424  0.6091991244772786  0.5033214360610786  1.0000
  C   C59       1.0  0.11110832836313729  0.3907980237140052  0.49668072050052103  1.0000
  C   C60       1.0  0.9948307813902698  0.5264564092559284  0.5507932294496387  1.0000
  C   C61       1.0  0.005169671302802246  0.47354318606262796  0.4492071963418382  1.0000
  C   C62       1.0  0.07514845387574816  0.5390934144962503  0.48096054282876116  1.0000
  C   C63       1.0  0.9248520004638224  0.46090618207210104  0.5190407830554306  1.0000
  C   C64       1.0  0.05246021875039733  0.44721356387915284  0.4972495596364155  1.0000
  C   C65       1.0  0.9475410729925285  0.5527841965524303  0.5027525521393345  1.0000
  C   C66       1.0  0.4046278014564919  0.41601374079886716  0.9631670563556085  1.0000
  C   C67       1.0  0.0470086257398634  0.025832562131689905  0.024638133416239306  1.0000
  C   C68       1.0  0.33403207277778796  0.3573408061918713  0.021422060440571  1.0000
  C   C69       1.0  0.285619500852917  0.3130868978973639  0.007547326081237246  1.0000
  C   C70       1.0  0.30653590612454445  0.3266120099856665  0.935323055419751  1.0000
  C   C71       1.0  0.37655006804767766  0.3843555283201639  0.8772459557795288  1.0000
  C   C72       1.0  0.4254035029328449  0.4285684110827859  0.8909630282197937  1.0000
  C   C73       1.0  0.5953712101577863  0.583987689365884  0.03683188493924668  1.0000
  C   C74       1.0  0.6659685015846435  0.6426594007828612  0.978577669031047  1.0000
  C   C75       1.0  0.7143802289651048  0.686912086349139  0.9924544475641073  1.0000
  C   C76       1.0  0.6934614139311819  0.6733869728479293  0.06467862408347  1.0000
  C   C77       1.0  0.623445088054197  0.6156446782875664  0.1227555870809384  1.0000
  C   C78       1.0  0.9529923081360608  0.9741664221963691  0.9753632372538095  1.0000
  C   C79       1.0  0.5745918973309827  0.571433019462198  0.10903757204732048  1.0000
  C   C80       1.0  0.8908678432755508  0.8931238491018123  0.2208965945827615  1.0000
  N   N1        1.0  0.4952050482859605  0.3334401539491409  0.060354527494055774  1.0000
  N   N2        1.0  0.504793720812863  0.6665600535281513  0.939646256486874  1.0000
  N   N3        1.0  0.34373425740875513  0.4943164623587323  0.6016276859973645  1.0000
  N   N4        1.0  0.6562669165128837  0.5056837427820755  0.3983704918475297  1.0000
  O   O1        1.0  0.7498976740371716  0.7501619271032638  0.49954690197540697  1.0000
  O   O2        1.0  0.16902642690038758  0.10067017635694951  0.667580820823602  1.0000
  O   O3        1.0  0.7233537207559237  0.669652075950019  0.6698500058731085  1.0000
  O   O4        1.0  0.2766461348476881  0.33034752307714416  0.3301533216841648  1.0000
  O   O5        1.0  0.8432759832503507  0.7753375191823579  0.33047597408471324  1.0000
  O   O6        1.0  0.15672772868891371  0.22466330402671997  0.6695252019533058  1.0000
  O   O7        1.0  0.5861110649640862  0.6309297224143151  0.5457961487065434  1.0000
  O   O8        1.0  0.4138863726447539  0.3690698689509589  0.4542025842450387  1.0000
  O   O9        1.0  0.858762358002721  0.9201924870065811  0.45727084210435015  1.0000
  O   O10       1.0  0.14124123693849813  0.07981078153662928  0.5427268500491778  1.0000
  O   O11       1.0  0.5756754163363667  0.8097612172602241  0.5419967543093732  1.0000
  O   O12       1.0  0.2501027890899508  0.24984072957987988  0.5004524939362298  1.0000
  O   O13       1.0  0.42432490974787374  0.1902377626527638  0.458001667523817  1.0000
  O   O14       1.0  0.8719446312003213  0.6380402186345719  0.5500267032258891  1.0000
  O   O15       1.0  0.1280579862698517  0.3619581535347365  0.4499743092547064  1.0000
  O   O16       1.0  0.6826370142382248  0.9190747224105068  0.4604701157205113  1.0000
  O   O17       1.0  0.31736416132990536  0.08092548398009569  0.539528962217105  1.0000
  O   O18       1.0  0.8601341589758462  0.6235270112649831  0.4566365902105503  1.0000
  O   O19       1.0  0.13986844476728777  0.37646829704014095  0.5433636519644552  1.0000
  O   O20       1.0  0.6904295409781369  0.6323694179062402  0.443235397764397  1.0000
  O   O21       1.0  0.309568506623954  0.36763323298971773  0.5567607536806137  1.0000
  O   O22       1.0  0.8748725175699973  0.8123534570361175  0.5472602896470278  1.0000
  O   O23       1.0  0.1251283034241268  0.18764797575055783  0.4527398473703101  1.0000
  O   O24       1.0  0.5987623855826953  0.6635847217524787  0.6677652037059046  1.0000
  O   O25       1.0  0.4012408281536891  0.3364136460833222  0.33223245696253667  1.0000
  O   O26       1.0  0.8309713798327395  0.8993312531013445  0.3324180734001985  1.0000
