data_image0
_chemical_formula_structural       Zn2H26C45I8N2O11
_chemical_formula_sum              "Zn2 H26 C45 I8 N2 O11"
_cell_length_a       12.506559079393705
_cell_length_b       13.288328362419366
_cell_length_c       15.974070657981244
_cell_angle_alpha    89.30518512180012
_cell_angle_beta     75.28549188702031
_cell_angle_gamma    80.17009781222016

_space_group_name_H-M_alt    "P 1"
_space_group_IT_number       1

loop_
  _space_group_symop_operation_xyz
  'x, y, z'

loop_
  _atom_site_type_symbol
  _atom_site_label
  _atom_site_symmetry_multiplicity
  _atom_site_fract_x
  _atom_site_fract_y
  _atom_site_fract_z
  _atom_site_occupancy
  Zn  Zn1       1.0  0.6157194866091585  0.5181287738661525  0.48566919295684846  1.0000
  Zn  Zn2       1.0  0.38196764858366805  0.4817944486290884  0.5234004705681843  1.0000
  H   H1        1.0  0.6652661314823902  0.5429402734677852  0.03226701320404864  1.0000
  H   H2        1.0  0.5300164846161692  0.6513645983176916  0.9205067048472061  1.0000
  H   H3        1.0  0.1833401035489928  0.007618693412041501  0.4942320049854134  1.0000
  H   H4        1.0  0.5475861421343282  0.8135293593151404  0.5125535065588309  1.0000
  H   H5        1.0  0.7644075890186244  0.20506066877654666  0.5132152994160467  1.0000
  H   H6        1.0  0.8047533350968692  0.021489307784442205  0.5469999351937036  1.0000
  H   H7        1.0  0.6526470242447289  0.5563406915208022  0.8893553668689265  1.0000
  H   H8        1.0  0.14585631172318614  0.6409601511480717  0.3221095467031817  1.0000
  H   H9        1.0  0.9524440379534056  0.6953339498114985  0.31180244395631723  1.0000
  H   H10       1.0  0.27083939285962094  0.32794302155917177  0.6195353206551533  1.0000
  H   H11       1.0  0.9344842744619726  0.3606168021438307  0.5852806774882071  1.0000
  H   H12       1.0  0.2782809701629105  0.5519773343907346  0.40105399805970177  1.0000
  H   H13       1.0  0.48884133026685833  0.33651299102093896  0.9442637407515524  1.0000
  H   H14       1.0  0.6427998974413497  0.3825192317909086  0.04696305490928413  1.0000
  H   H15       1.0  0.5128408007523788  0.3401743576553572  0.0837981975193429  1.0000
  H   H16       1.0  0.34216975031765173  0.604811220491925  0.9640939020104329  1.0000
  H   H17       1.0  0.3222571275308823  0.47666438371722114  0.9721103825027915  1.0000
  H   H18       1.0  0.6820553667055407  0.7397613373756899  0.9820080552657444  1.0000
  H   H19       1.0  0.7155759351469442  0.6841113627730165  0.07756040785324807  1.0000
  H   H20       1.0  0.6190376773463909  0.8023233084946855  0.08577687207225189  1.0000
  H   H21       1.0  0.5053790832517677  0.3067457953367595  0.2696178341338893  1.0000
  H   H22       1.0  0.48488601229349376  0.1764134979532059  0.26643716621334335  1.0000
  H   H23       1.0  0.603631730691383  0.20651417438234893  0.29976239971173163  1.0000
  H   H24       1.0  0.7370972983444232  0.46822195599926897  0.6947494211136491  1.0000
  H   H25       1.0  0.7165476163999287  0.5914950637061197  0.6496618887049693  1.0000
  H   H26       1.0  0.8552139788358987  0.5335861246178197  0.6582937748353288  1.0000
  C   C1        1.0  0.5741718967544429  0.30810813284637834  0.4906807440707013  1.0000
  C   C2        1.0  0.5793139591031604  0.5771998717764718  0.029511308123197483  1.0000
  C   C3        1.0  0.5029030044903068  0.5061813788306182  0.08581171269334932  1.0000
  C   C4        1.0  0.379437446194359  0.5319355762329253  0.07903875805178735  1.0000
  C   C5        1.0  0.37640738535496604  0.5290740381051863  0.9832615336263261  1.0000
  C   C6        1.0  0.5128790306276727  0.507631620092461  0.17405024255502613  1.0000
  C   C7        1.0  0.48627986467843703  0.49450682836408777  0.834077690948327  1.0000
  C   C8        1.0  0.4730967124253026  0.4955150977617394  0.7612621148105277  1.0000
  C   C9        1.0  0.2635550252032743  0.9650520625230217  0.4999896252240249  1.0000
  C   C10       1.0  0.37993957683618634  0.8059205636995797  0.5186200414879707  1.0000
  C   C11       1.0  0.7073185761243793  0.15385914928623384  0.5067762666615325  1.0000
  C   C12       1.0  0.470062633131569  0.49659748466585546  0.6709462460479757  1.0000
  C   C13       1.0  0.7286506954915595  0.05111959085393641  0.5269881981027567  1.0000
  C   C14       1.0  0.6496992411690385  0.9882671796124927  0.5286044391932735  1.0000
  C   C15       1.0  0.5498389050961521  0.0227449697933011  0.5009857731816396  1.0000
  C   C16       1.0  0.5347927948679326  0.12717134260235952  0.4744900114989648  1.0000
  C   C17       1.0  0.4596911143415878  0.9657536267385824  0.5008047389933667  1.0000
  C   C18       1.0  0.355973355860506  0.0167296415018043  0.4851580308877033  1.0000
  C   C19       1.0  0.3531515457558142  0.1150782088918518  0.4471628530071358  1.0000
  C   C20       1.0  0.4429285305357595  0.16478121294814949  0.4359926356950228  1.0000
  C   C21       1.0  0.4678544778032859  0.8601439903743185  0.5118314320620811  1.0000
  C   C22       1.0  0.2730508600602447  0.8624834446221642  0.5192500062368028  1.0000
  C   C23       1.0  0.4116970723085416  0.6917022743411183  0.518034167296861  1.0000
  C   C24       1.0  0.6085261099566993  0.19374662466741907  0.4848899631608391  1.0000
  C   C25       1.0  0.9236461458976706  0.6435018428940541  0.36254432254352054  1.0000
  C   C26       1.0  0.20529968543849722  0.36201968463447537  0.5888362313979486  1.0000
  C   C27       1.0  0.09962706234811954  0.3319304894864956  0.607304675442869  1.0000
  C   C28       1.0  0.01702814024498169  0.38224607396768573  0.5706769868206295  1.0000
  C   C29       1.0  0.041496739790837  0.46056612728581575  0.5119518577430995  1.0000
  C   C30       1.0  0.15408895188635804  0.47936610830337406  0.4892172694695844  1.0000
  C   C31       1.0  0.9616685145001397  0.5204915095941802  0.47090580272015364  1.0000
  C   C32       1.0  0.0009535017716047078  0.5854459642505462  0.4023312742357703  1.0000
  C   C33       1.0  0.116885588481999  0.5936134410914633  0.3765759081881513  1.0000
  C   C34       1.0  0.5282729258622894  0.5020611749860322  0.33705193386557414  1.0000
  C   C35       1.0  0.19015901874531954  0.54482633250543  0.4200274014596631  1.0000
  C   C36       1.0  0.8445077999435427  0.5218094017931777  0.4950541923650962  1.0000
  C   C37       1.0  0.8113553294762212  0.6358413696490359  0.3893764251963816  1.0000
  C   C38       1.0  0.5696123074713243  0.5751855194051317  0.935080986211027  1.0000
  C   C39       1.0  0.5436110449256973  0.39038215566376533  0.9509450266981432  1.0000
  C   C40       1.0  0.554801265514378  0.3971270210273802  0.04425224514932322  1.0000
  C   C41       1.0  0.5249307516009551  0.5050767978507196  0.247127464610891  1.0000
  C   C42       1.0  0.4966823828496701  0.49664043181174833  0.9224316751901259  1.0000
  C   C43       1.0  0.6482627042291682  0.7277355912412988  0.05160546993439401  1.0000
  C   C44       1.0  0.5149563199309739  0.23297308127951055  0.30057322235205675  1.0000
  C   C45       1.0  0.7757201299967421  0.5195811397196836  0.6469160013030405  1.0000
  I   I1        1.0  0.2836653031018771  0.41829190234929586  0.1515699073256158  1.0000
  I   I2        1.0  0.12107671616082881  0.8046325169197743  0.5488643120171092  1.0000
  I   I3        1.0  0.22091803825910725  0.17881245855332387  0.39249659222490163  1.0000
  I   I4        1.0  0.6940017535030945  0.846705192403114  0.585965347981791  1.0000
  I   I5        1.0  0.7021289248014143  0.733386863633328  0.33129455575554806  1.0000
  I   I6        1.0  0.06935011722932671  0.2095867185253013  0.6888243362790407  1.0000
  I   I7        1.0  0.7041264525200789  0.32220959798216603  0.8631126756093155  1.0000
  I   I8        1.0  0.29200685528526554  0.6801948384096406  0.1402568575797289  1.0000
  N   N1        1.0  0.7721980611670605  0.5741538116385811  0.45424366562863855  1.0000
  N   N2        1.0  0.2307168209234121  0.43333655203811366  0.531437382060105  1.0000
  O   O1        1.0  0.6501364019131797  0.36180528582862354  0.4629290329122569  1.0000
  O   O2        1.0  0.4724458580966982  0.34079719476774534  0.530349563141236  1.0000
  O   O3        1.0  0.5653546423958462  0.4938059063914793  0.6177792009834563  1.0000
  O   O4        1.0  0.37560531926771307  0.5001140146288067  0.654018705484269  1.0000
  O   O5        1.0  0.5143649133645952  0.6575121260236471  0.5146900441584847  1.0000
  O   O6        1.0  0.33748636942789295  0.6371615985789135  0.5179600791704502  1.0000
  O   O7        1.0  0.6145962364958278  0.5233507223166356  0.355719294956856  1.0000
  O   O8        1.0  0.4418682912200397  0.4776759342211037  0.38901140339116597  1.0000
  O   O9        1.0  0.5535568139936372  0.67728639083078  0.06704299686764165  1.0000
  O   O10       1.0  0.44641226649172694  0.2508234073529962  0.38816360499929914  1.0000
  O   O11       1.0  0.7963413891763763  0.4680096311527608  0.5630228768817462  1.0000
