data_image0
_chemical_formula_structural       Al2H16C24N2O14
_chemical_formula_sum              "Al2 H16 C24 N2 O14"
_cell_length_a       6.843467885482836
_cell_length_b       11.219591840719348
_cell_length_c       15.333604699759883
_cell_angle_alpha    82.15383855985542
_cell_angle_beta     75.37564329281716
_cell_angle_gamma    71.06932903180225

_space_group_name_H-M_alt    "P 1"
_space_group_IT_number       1

loop_
  _space_group_symop_operation_xyz
  'x, y, z'

loop_
  _atom_site_type_symbol
  _atom_site_label
  _atom_site_symmetry_multiplicity
  _atom_site_fract_x
  _atom_site_fract_y
  _atom_site_fract_z
  _atom_site_occupancy
  Al  Al1       1.0  0.5058686384948388  0.4882619598066782  0.5006670881241108  1.0000
  Al  Al2       1.0  0.005928630106844029  0.4888559830974516  0.5004639313634413  1.0000
  H   H1        1.0  0.2352909682187203  0.6205877520997306  0.4202642505288665  1.0000
  H   H2        1.0  0.7825354443797891  0.35269739645634246  0.5766565535432948  1.0000
  H   H3        1.0  0.77765178717825  0.100377855497193  0.4698777498612117  1.0000
  H   H4        1.0  0.23427608484708176  0.8769290466921549  0.5299330044876882  1.0000
  H   H5        1.0  0.7026920738096651  0.5668354878520319  0.9477298243843536  1.0000
  H   H6        1.0  0.23506323911259855  0.5574955344775957  0.04842609266765411  1.0000
  H   H7        1.0  0.6614962215182061  0.4017266001828119  0.24304147784882701  1.0000
  H   H8        1.0  0.7318945096561222  0.39431584107005346  0.0760013794842536  1.0000
  H   H9        1.0  0.430500670554423  0.40775526526431344  0.7642602620291683  1.0000
  H   H10       1.0  0.37022498579381846  0.3933374771011914  0.931802791669682  1.0000
  H   H11       1.0  0.5617284688498856  0.6409736618419474  0.8263274593152516  1.0000
  H   H12       1.0  0.7281766354145136  0.6842269236905878  0.7256479024587748  1.0000
  H   H13       1.0  0.6695389298758838  0.5416312956803324  0.7334572279386009  1.0000
  H   H14       1.0  0.3061898480951584  0.6244084965098367  0.16709487935814593  1.0000
  H   H15       1.0  0.10061811074626806  0.66142978237486  0.2658749406059897  1.0000
  H   H16       1.0  0.3028400613176175  0.5168067998200313  0.26403651769953745  1.0000
  C   C1        1.0  0.8551312360684589  0.4842581832695386  0.33973117834634803  1.0000
  C   C2        1.0  0.6271612568942757  0.7135091571410044  0.5054362945610507  1.0000
  C   C3        1.0  0.1558862090661179  0.4929959642420272  0.6612272036099824  1.0000
  C   C4        1.0  0.38473340737912304  0.2636996701954076  0.4948477407352811  1.0000
  C   C5        1.0  0.5645816268206617  0.8547045296319382  0.5054543127287446  1.0000
  C   C6        1.0  0.44721567817050095  0.12255427059570681  0.49450058216810794  1.0000
  C   C7        1.0  0.7138676074300251  0.9201347199053981  0.4898541192563428  1.0000
  C   C8        1.0  0.2979736651709288  0.05713583485104578  0.5100208386909628  1.0000
  C   C9        1.0  0.659488139222411  0.0507585387428051  0.4834508992827153  1.0000
  C   C10       1.0  0.35235348789087345  0.926532983890617  0.5164151619559405  1.0000
  C   C11       1.0  0.10250791046257757  0.4934572871374314  0.7615095169146855  1.0000
  C   C12       1.0  0.9096831836956342  0.48135238845065215  0.23956422745335712  1.0000
  C   C13       1.0  0.8923640932259642  0.5398900688233825  0.8129367717935025  1.0000
  C   C14       1.0  0.862692546891452  0.529425028835867  0.9071006595270603  1.0000
  C   C15       1.0  0.07550663533938015  0.5256380439444541  0.1851685398519294  1.0000
  C   C16       1.0  0.11201227737961264  0.5202866007824838  0.09159886291676139  1.0000
  C   C17       1.0  0.7877190968480648  0.43532486303444534  0.19934200375338662  1.0000
  C   C18       1.0  0.8262794197188298  0.43190238006698667  0.10617233412290265  1.0000
  C   C19       1.0  0.2710825131999641  0.4423885003328465  0.8055750727996838  1.0000
  C   C20       1.0  0.23736917360016455  0.4349220519761303  0.8989805411763143  1.0000
  C   C21       1.0  0.03053906469279612  0.4782657435160614  0.9513586632209724  1.0000
  C   C22       1.0  0.9900326617500427  0.47513965114281115  0.05076498751434143  1.0000
  C   C23       1.0  0.7023245974220131  0.6047571312344217  0.7727185110946239  1.0000
  C   C24       1.0  0.20384067477397844  0.5847711062436289  0.22227274136317027  1.0000
  N   N1        1.0  0.9380197439704856  0.8508809874405473  0.48713060641885875  1.0000
  N   N2        1.0  0.0739534729814011  0.1265825055961969  0.5126256318189846  1.0000
  O   O1        1.0  0.6603428569370706  0.5008735395547603  0.3789424844021525  1.0000
  O   O2        1.0  0.8252859509679595  0.6580268072659479  0.49193281245251796  1.0000
  O   O3        1.0  0.005815991090763416  0.5073458670481942  0.6217240449981603  1.0000
  O   O4        1.0  0.5308803038457909  0.3137813787422914  0.484592322370503  1.0000
  O   O5        1.0  0.3511747201622911  0.47387395101156926  0.621606721317022  1.0000
  O   O6        1.0  0.18673811657519934  0.31947421613481447  0.508472729565824  1.0000
  O   O7        1.0  0.005276498061057615  0.4711812348954041  0.3788839942094668  1.0000
  O   O8        1.0  0.4816098783944867  0.6629547863634286  0.5158328412516511  1.0000
  O   O9        1.0  0.250195676838473  0.5443507029132277  0.45984355116928555  1.0000
  O   O10       1.0  0.7618191914781532  0.43287420815200756  0.5413856526828411  1.0000
  O   O11       1.0  0.9832631247587504  0.818782684583702  0.5617970659605405  1.0000
  O   O12       1.0  0.0646909515072948  0.8364427863092702  0.4129755859794173  1.0000
  O   O13       1.0  0.9471641414128199  0.1416227367297012  0.5867590935152053  1.0000
  O   O14       1.0  0.028971964233583912  0.15850638384650037  0.4379261037565882  1.0000
