data_image0
_chemical_formula_structural       Gd2H22C32N4O28
_chemical_formula_sum              "Gd2 H22 C32 N4 O28"
_cell_length_a       9.125129823174056
_cell_length_b       10.052477583547152
_cell_length_c       12.823159504929007
_cell_angle_alpha    69.70966657062341
_cell_angle_beta     67.5754969090689
_cell_angle_gamma    68.51758590038452

_space_group_name_H-M_alt    "P 1"
_space_group_IT_number       1

loop_
  _space_group_symop_operation_xyz
  'x, y, z'

loop_
  _atom_site_type_symbol
  _atom_site_label
  _atom_site_symmetry_multiplicity
  _atom_site_fract_x
  _atom_site_fract_y
  _atom_site_fract_z
  _atom_site_occupancy
  Gd  Gd1       1.0  0.6994758847369339  0.5294582960632538  0.5336859237971865  1.0000
  Gd  Gd2       1.0  0.3005321311192617  0.4705557491977359  0.46632269609958127  1.0000
  H   H1        1.0  0.38361137238489806  0.7817527835467144  0.759604859841076  1.0000
  H   H2        1.0  0.616384908278718  0.21821089055254103  0.24041638925775996  1.0000
  H   H3        1.0  0.8900323831523879  0.4807524126109399  0.6940790660062105  1.0000
  H   H4        1.0  0.10997388440453182  0.5192636851277542  0.30592552324903727  1.0000
  H   H5        1.0  0.72181611671585  0.5926270855146285  0.7393427995187023  1.0000
  H   H6        1.0  0.2781919312028265  0.4073911510356325  0.26065682240628263  1.0000
  H   H7        1.0  0.49528686574146236  0.3180744000462781  0.690946141610361  1.0000
  H   H8        1.0  0.504707296268016  0.681956100210762  0.30906607702256383  1.0000
  H   H9        1.0  0.6067764596114671  0.31317079235426337  0.7666267409376957  1.0000
  H   H10       1.0  0.393239828944523  0.6868332201085537  0.2333747821210252  1.0000
  H   H11       1.0  0.3176269350180262  0.9964055587066694  0.5511459315484403  1.0000
  H   H12       1.0  0.6823952609759871  0.0036095957180534897  0.4488477857068176  1.0000
  H   H13       1.0  0.7888622392527224  0.13865270907923127  0.6410272089787413  1.0000
  H   H14       1.0  0.21117127623310233  0.8613502925694687  0.3589600048239705  1.0000
  H   H15       1.0  0.039895029560113884  0.673444226666163  0.692949600810799  1.0000
  H   H16       1.0  0.9601137780778972  0.3265607620696258  0.30705513984459987  1.0000
  H   H17       1.0  0.08474887447502502  0.5883162047877164  0.11852935689480398  1.0000
  H   H18       1.0  0.9152049893504781  0.4116421346329772  0.8814739428027635  1.0000
  H   H19       1.0  0.9883976954029378  0.9780625190444778  0.8478554078896537  1.0000
  H   H20       1.0  0.011586866697754796  0.021903279107775096  0.1521394021285403  1.0000
  H   H21       1.0  0.6153371567564178  0.9164197980984239  0.17718263193860656  1.0000
  H   H22       1.0  0.3846620272678081  0.08359696300942687  0.8228150185774651  1.0000
  C   C1        1.0  0.1958694324552965  0.8222396028549708  0.6195526558115106  1.0000
  C   C2        1.0  0.80414504380213  0.17776991361603922  0.3804477757770214  1.0000
  C   C3        1.0  0.20030637205773877  0.9692126615010105  0.5854267248901551  1.0000
  C   C4        1.0  0.7997076806037742  0.030798003910682287  0.4145750509175484  1.0000
  C   C5        1.0  0.0546310242868415  0.08322704574508318  0.5911858746447862  1.0000
  C   C6        1.0  0.9453874930687364  0.91678473930196  0.40881130892412876  1.0000
  C   C7        1.0  0.9029241652827764  0.0505603388979097  0.6360195437015577  1.0000
  C   C8        1.0  0.09709996814529381  0.949445811849088  0.3639707633393386  1.0000
  C   C9        1.0  0.9017619494443566  0.9031215093313206  0.6747447253659331  1.0000
  C   C10       1.0  0.09826450585630644  0.09688472304110719  0.3252457384724039  1.0000
  C   C11       1.0  0.045428304240544934  0.7872635356834862  0.6661471677700987  1.0000
  C   C12       1.0  0.9545896452679089  0.212739308477552  0.33385113632665037  1.0000
  C   C13       1.0  0.3557199923396298  0.7058347067001735  0.6016994763277664  1.0000
  C   C14       1.0  0.6442874265957171  0.29417463710311853  0.3983028286382719  1.0000
  C   C15       1.0  0.06252794953350362  0.24059932448967908  0.545374954955193  1.0000
  C   C16       1.0  0.9374963237883094  0.7594161041166742  0.45462516915033296  1.0000
  C   C17       1.0  0.8455901212803666  0.7438994626541843  0.1621353832511119  1.0000
  C   C18       1.0  0.15439155453215384  0.25609553819028713  0.8378651591068903  1.0000
  C   C19       1.0  0.0015155431404635473  0.6926629452974781  0.08839769100459452  1.0000
  C   C20       1.0  0.9984506784406333  0.30730800211067333  0.9116019612708045  1.0000
  C   C21       1.0  0.05379061865515663  0.7761187920381828  0.9753581328075073  1.0000
  C   C22       1.0  0.9461752184873973  0.22384307006681325  0.024637952456103573  1.0000
  C   C23       1.0  0.9487318785983946  0.9101124481865951  0.934581195914781  1.0000
  C   C24       1.0  0.051257590908001305  0.08986691015655876  0.06541240302131258  1.0000
  C   C25       1.0  0.7902188093386402  0.9545001537295975  0.007246723056638787  1.0000
  C   C26       1.0  0.20977011865691966  0.04548126179968649  0.9927417517517583  1.0000
  C   C27       1.0  0.7369310184365717  0.8749283075403511  0.12088683994579696  1.0000
  C   C28       1.0  0.2630528947648116  0.12506425571402954  0.8791052329480422  1.0000
  C   C29       1.0  0.7948946234640741  0.6617522102338995  0.28588083388957847  1.0000
  C   C30       1.0  0.20508542825873377  0.3382787566550575  0.7141255381250603  1.0000
  C   C31       1.0  0.22015141303302235  0.7161576385373037  0.8982705640222193  1.0000
  C   C32       1.0  0.7798057770548681  0.2837991762471787  0.10171670437812705  1.0000
  N   N1        1.0  0.7427708615326977  0.8684520655285581  0.7213288618030872  1.0000
  N   N2        1.0  0.2572447909450731  0.13155747972039927  0.2786712575558568  1.0000
  N   N3        1.0  0.6756048550296966  0.09080733701830469  0.9629194519777896  1.0000
  N   N4        1.0  0.32439117710867277  0.909191219996849  0.03707247023048414  1.0000
  O   O1        1.0  0.47205042960531046  0.7138587489075974  0.6292522017492672  1.0000
  O   O2        1.0  0.5279568712894473  0.2861396690321243  0.37075869164212344  1.0000
  O   O3        1.0  0.3767043129702045  0.6045447820250444  0.5549347775179356  1.0000
  O   O4        1.0  0.6233085634709639  0.3954658546086947  0.44506731051934884  1.0000
  O   O5        1.0  0.20293177225625667  0.2631667670066662  0.5105796731819225  1.0000
  O   O6        1.0  0.7970847478977772  0.7368464511069277  0.4894293231716061  1.0000
  O   O7        1.0  0.9285933297897984  0.3401309636714629  0.542815547957531  1.0000
  O   O8        1.0  0.07142156720044571  0.6598808072503032  0.4571849160699487  1.0000
  O   O9        1.0  0.6223264320447084  0.9654835372543217  0.6958140452790288  1.0000
  O   O10       1.0  0.3776873206619981  0.03452056206973709  0.3041927897784831  1.0000
  O   O11       1.0  0.7387198113658897  0.7423373680301422  0.7833996135319055  1.0000
  O   O12       1.0  0.2612967450824256  0.25766901923104507  0.2166058482487827  1.0000
  O   O13       1.0  0.9000513591329733  0.5551284076588274  0.3301280237423896  1.0000
  O   O14       1.0  0.09992314910591199  0.4448945318253762  0.6698781556545798  1.0000
  O   O15       1.0  0.6462493008787079  0.701036639784192  0.3480689022515477  1.0000
  O   O16       1.0  0.35373942560377697  0.299002753747196  0.6519468820278789  1.0000
  O   O17       1.0  0.28292612158973185  0.5842996462548058  0.9045737312901139  1.0000
  O   O18       1.0  0.7170016613036977  0.41564610745401603  0.09537824398079658  1.0000
  O   O19       1.0  0.28830621521609584  0.8238904841031169  0.8215048787260175  1.0000
  O   O20       1.0  0.7116942009873952  0.1760601488631437  0.17852445869750255  1.0000
  O   O21       1.0  0.7333559647495064  0.1692944132982674  0.866120316574417  1.0000
  O   O22       1.0  0.26664861084407215  0.8306930823256452  0.13386707085965097  1.0000
  O   O23       1.0  0.5300171985856466  0.12055731608450056  0.021390246697542605  1.0000
  O   O24       1.0  0.4699810742474637  0.8794651944352124  0.9786130314281962  1.0000
  O   O25       1.0  0.7697743682994086  0.5075895177836641  0.7046636150527945  1.0000
  O   O26       1.0  0.23022807064167236  0.49241992753353253  0.29534697014101857  1.0000
  O   O27       1.0  0.5827504736631823  0.35434771822012584  0.6916465309743102  1.0000
  O   O28       1.0  0.417256997819088  0.6456717876184398  0.30835834145287316  1.0000
