data_image0
_chemical_formula_structural       Zn2H34C40N4O10
_chemical_formula_sum              "Zn2 H34 C40 N4 O10"
_cell_length_a       9.560131662467994
_cell_length_b       10.549855969974182
_cell_length_c       10.945861402295332
_cell_angle_alpha    108.29996211718998
_cell_angle_beta     110.54970262690716
_cell_angle_gamma    103.29255235238385

_space_group_name_H-M_alt    "P 1"
_space_group_IT_number       1

loop_
  _space_group_symop_operation_xyz
  'x, y, z'

loop_
  _atom_site_type_symbol
  _atom_site_label
  _atom_site_symmetry_multiplicity
  _atom_site_fract_x
  _atom_site_fract_y
  _atom_site_fract_z
  _atom_site_occupancy
  Zn  Zn1       1.0  0.4088851336328361  0.1801044237138782  0.9475611433018895  1.0000
  Zn  Zn2       1.0  0.5911135668664187  0.8198955227852169  0.052438995592893944  1.0000
  H   H1        1.0  0.39707553769153486  0.913270891740538  0.8210529813824505  1.0000
  H   H2        1.0  0.602923811948692  0.08672797052835082  0.17894702332046816  1.0000
  H   H3        1.0  0.2723885993318476  0.4132369505162289  0.2561839704421445  1.0000
  H   H4        1.0  0.7276105630857188  0.5867640777805434  0.7438157248881082  1.0000
  H   H5        1.0  0.07317642994927102  0.4476600333490027  0.7151985472198701  1.0000
  H   H6        1.0  0.9268271767054657  0.5523409852176043  0.28479883708477866  1.0000
  H   H7        1.0  0.7364151731596423  0.5268599066682642  0.9520296051271869  1.0000
  H   H8        1.0  0.26358576728434  0.4731400301174774  0.047973036563384114  1.0000
  H   H9        1.0  0.037221476395167534  0.28724822379796683  0.03659104860530965  1.0000
  H   H10       1.0  0.9627776949354753  0.7127528020746681  0.9634104758792287  1.0000
  H   H11       1.0  0.31050346701268694  0.9169344618523355  0.9253951470064264  1.0000
  H   H12       1.0  0.6894963490023969  0.08306548100215143  0.07460532870909728  1.0000
  H   H13       1.0  0.704168491351666  0.3874560944272218  0.5309936392875939  1.0000
  H   H14       1.0  0.2958317865817294  0.6125449302249422  0.46900639286339885  1.0000
  H   H15       1.0  0.9373165424294854  0.31437251102046565  0.2615953986216439  1.0000
  H   H16       1.0  0.06269022800661622  0.6856306614281282  0.7384036013497307  1.0000
  H   H17       1.0  0.8885543794347653  0.13383947591717774  0.3854127151211839  1.0000
  H   H18       1.0  0.11144571127596958  0.8661637147628626  0.6145870076571426  1.0000
  H   H19       1.0  0.08943934950283253  0.19649615516495095  0.4154001681273697  1.0000
  H   H20       1.0  0.9105612984193597  0.8035005386435188  0.5845995681918195  1.0000
  H   H21       1.0  0.0762194077242029  0.03982972416494591  0.9263384846633895  1.0000
  H   H22       1.0  0.923781052975322  0.9601691356714072  0.07366094228312657  1.0000
  H   H23       1.0  0.7117997693023383  0.07079337130355873  0.48178881976388493  1.0000
  H   H24       1.0  0.28820004671274563  0.9292065715509285  0.5182116559516458  1.0000
  H   H25       1.0  0.38433406385399854  0.4360630708129421  0.741134713867744  1.0000
  H   H26       1.0  0.6156652813296973  0.5639357926680193  0.2588643762580248  1.0000
  H   H27       1.0  0.33784804402211677  0.29422481513810084  0.5756814139403443  1.0000
  H   H28       1.0  0.6621517675364288  0.7057751289284511  0.4243181471980433  1.0000
  H   H29       1.0  0.4658737347171353  0.30207244034970426  0.74506776614038  1.0000
  H   H30       1.0  0.5341251440917104  0.697925342545652  0.2549308529727766  1.0000
  H   H31       1.0  0.7763775261165335  0.9326039912592564  0.8235183872750437  1.0000
  H   H32       1.0  0.2236211788392595  0.06739595402777351  0.17648266619688255  1.0000
  H   H33       1.0  0.5977054560472225  0.9448713530506581  0.6063185649971812  1.0000
  H   H34       1.0  0.4022943644243995  0.0551285885917636  0.3936828252954995  1.0000
  C   C1        1.0  0.3717954381229518  0.4514742269945629  0.36317749407069033  1.0000
  C   C2        1.0  0.6282037287511457  0.5485268000901372  0.636823115836705  1.0000
  C   C3        1.0  0.041595297127642566  0.4700465406691949  0.6204211778347214  1.0000
  C   C4        1.0  0.9584110069336021  0.5299555511937939  0.3795773511240483  1.0000
  C   C5        1.0  0.8517205717040144  0.5151058379320191  0.9726761268427137  1.0000
  C   C6        1.0  0.148278604083167  0.4848951867285436  0.0273263122189746  1.0000
  C   C7        1.0  0.022574941846997428  0.3812762838207463  0.021148133715954042  1.0000
  C   C8        1.0  0.9774242250271071  0.6187247432639539  0.9788524761914414  1.0000
  C   C9        1.0  0.8733759871041471  0.3949580893104425  0.993492944450672  1.0000
  C   C10       1.0  0.1266249533398423  0.6050418474753061  0.006509697239899044  1.0000
  C   C11       1.0  0.7404359291376537  0.28157476148396643  0.9882184872284296  1.0000
  C   C12       1.0  0.2595650068497904  0.7184251765138471  0.011783239884998518  1.0000
  C   C13       1.0  0.21690220869462712  0.23392844303501198  0.6926198257710323  1.0000
  C   C14       1.0  0.7830976073204569  0.766071499819475  0.30738064994449843  1.0000
  C   C15       1.0  0.4796566650054572  0.27256291414123984  0.2537866191057034  1.0000
  C   C16       1.0  0.5203420310372594  0.7274370335699275  0.7462126052119371  1.0000
  C   C17       1.0  0.48667761531988424  0.3877210798330993  0.38080646328295836  1.0000
  C   C18       1.0  0.5133226626135186  0.612279944819058  0.6191935688680417  1.0000
  C   C19       1.0  0.6147417568486659  0.4367497795925105  0.518674777529803  1.0000
  C   C20       1.0  0.3852574100254387  0.5632512474921896  0.48132583237759247  1.0000
  C   C21       1.0  0.061816634407520596  0.11727834466058343  0.7619932693737679  1.0000
  C   C22       1.0  0.9381831771510253  0.8827215994059687  0.23800629176462007  1.0000
  C   C23       1.0  0.9647027022612775  0.3959307084021618  0.36632763265845364  1.0000
  C   C24       1.0  0.035303597343435876  0.6040713846728991  0.6336699817231659  1.0000
  C   C25       1.0  0.006008285680095973  0.36498340150563996  0.48636072697889426  1.0000
  C   C26       1.0  0.9939980183811558  0.6350186903573561  0.5136378019798754  1.0000
  C   C27       1.0  0.9586552988997139  0.12284325430767501  0.6362535195230306  1.0000
  C   C28       1.0  0.04134340159954068  0.8771566921914273  0.36374661937175284  1.0000
  C   C29       1.0  0.009257628241222449  0.21746816222782442  0.4638995949380557  1.0000
  C   C30       1.0  0.9907444098924427  0.7825317757615836  0.5360997252646766  1.0000
  C   C31       1.0  0.9978774258447984  0.046610331573681704  0.8304576997171649  1.0000
  C   C32       1.0  0.0021212701979181773  0.9533896161374857  0.1695415246004686  1.0000
  C   C33       1.0  0.7903228241989595  0.0626609352388314  0.5767939100914105  1.0000
  C   C34       1.0  0.20967540992543832  0.9373379306746658  0.42320575779076103  1.0000
  C   C35       1.0  0.35861029419781687  0.32010706141140594  0.6872719424846847  1.0000
  C   C36       1.0  0.6413890554424171  0.6798918008574831  0.31272806221822697  1.0000
  C   C37       1.0  0.8302407132244126  0.9854424777519882  0.7711038685903657  1.0000
  C   C38       1.0  0.1697595691655209  0.014558545688103703  0.22889707813777693  1.0000
  C   C39       1.0  0.7281076884193214  0.9936494304087449  0.6470281996521763  1.0000
  C   C40       1.0  0.27189166567745104  0.0063494306480791005  0.3529727196278926  1.0000
  N   N1        1.0  0.060589410200798  0.19512425667408456  0.5943915937138653  1.0000
  N   N2        1.0  0.9394092858419185  0.8048756910370828  0.405607630603768  1.0000
  N   N3        1.0  0.22135372083434388  0.18793330314743883  0.7943851845811947  1.0000
  N   N4        1.0  0.7786449707518344  0.8120666457758009  0.20561312515929578  1.0000
  O   O1        1.0  0.7665999497838598  0.17748055436823054  0.010573302471009125  1.0000
  O   O2        1.0  0.23340051982874147  0.8225183030439781  0.9894279536298  1.0000
  O   O3        1.0  0.6064814196165996  0.30190146189939077  0.9613662712516625  1.0000
  O   O4        1.0  0.3935174636487774  0.6980963197839003  0.03863326243863703  1.0000
  O   O5        1.0  0.3414600124279518  0.9679000345780936  0.8687395841070465  1.0000
  O   O6        1.0  0.6585398035871322  0.032099908276393314  0.13126089160848406  1.0000
  O   O7        1.0  0.3974858524364606  0.26827607745813253  0.1290580439013098  1.0000
  O   O8        1.0  0.6025134972037733  0.7317227848107566  0.8709419608016019  1.0000
  O   O9        1.0  0.5528460599152395  0.19088539229069573  0.2765750578898361  1.0000
  O   O10       1.0  0.4471515295247244  0.8091145566409425  0.7234256587613428  1.0000
