data_image0
_chemical_formula_structural       Al4H10C36O20F2
_chemical_formula_sum              "Al4 H10 C36 O20 F2"
_cell_length_a       6.693905511752973
_cell_length_b       18.1789014505817
_cell_length_c       20.83575693999704
_cell_angle_alpha    107.99491401097954
_cell_angle_beta     90.01967451182061
_cell_angle_gamma    90.10836145387489

_space_group_name_H-M_alt    "P 1"
_space_group_IT_number       1

loop_
  _space_group_symop_operation_xyz
  'x, y, z'

loop_
  _atom_site_type_symbol
  _atom_site_label
  _atom_site_symmetry_multiplicity
  _atom_site_fract_x
  _atom_site_fract_y
  _atom_site_fract_z
  _atom_site_occupancy
  Al  Al1       1.0  0.1338757738583709  0.5000378623770134  0.5003765746757125  1.0000
  Al  Al2       1.0  0.6341835806372557  0.5007016951064217  0.5007783895065218  1.0000
  Al  Al3       1.0  0.6486670253720845  0.0005501572800027997  0.0012655733263927003  1.0000
  Al  Al4       1.0  0.1483556163628279  2.6257716491800002e-05  0.0009110494151585001  1.0000
  H   H1        1.0  0.2084325585112907  0.6968752569312714  0.27953552645436025  1.0000
  H   H2        1.0  0.2116686978453117  0.7769512249108176  0.20144874834145557  1.0000
  H   H3        1.0  0.5727786457041263  0.8031362029849659  0.22099509319607344  1.0000
  H   H4        1.0  0.5694183668395637  0.7230529249152157  0.29908266186554755  1.0000
  H   H5        1.0  0.6887333496566299  0.33147606708158867  0.7444973323941042  1.0000
  H   H6        1.0  0.09102765282174372  0.24784554883392926  0.6785661903066824  1.0000
  H   H7        1.0  0.3836350167038347  0.5998813834385573  0.5101807579175174  1.0000
  H   H8        1.0  0.8822890899493104  0.39877612406698404  0.47811759144629923  1.0000
  H   H9        1.0  0.3986070869937349  0.8989009270491409  0.981315684326809  1.0000
  H   H10       1.0  0.8995366822751762  0.09354253574158383  0.9946518279755949  1.0000
  C   C1        1.0  0.3835694159793092  0.39379258254024313  0.3963098107766498  1.0000
  C   C2        1.0  0.3845035591410736  0.4231386965152951  0.5762671372104649  1.0000
  C   C3        1.0  0.8860839012364323  0.6058883519281936  0.6050252283961299  1.0000
  C   C4        1.0  0.8835045954452667  0.5781308238624732  0.4249571983147291  1.0000
  C   C5        1.0  0.07198057109983579  0.76494026733684  0.22314502859448035  1.0000
  C   C6        1.0  0.8924918588488353  0.7952235413450168  0.20620288542522763  1.0000
  C   C7        1.0  0.7109680914015044  0.7794925219342305  0.23396037132978623  1.0000
  C   C8        1.0  0.7090648505014059  0.7349613627109051  0.2772830297650515  1.0000
  C   C9        1.0  0.8886234040301132  0.7047130659614568  0.2942716149758624  1.0000
  C   C10       1.0  0.07015537980737459  0.720434362383024  0.26648615499100003  1.0000
  C   C11       1.0  0.8947157696974272  0.8404886903042907  0.16186355874165065  1.0000
  C   C12       1.0  0.8866568493584382  0.6597006117545235  0.33883893818914157  1.0000
  C   C13       1.0  0.884714489478128  0.6215093007579072  0.3776834581056648  1.0000
  C   C14       1.0  0.8972808131521219  0.8792037741286763  0.12346573104208869  1.0000
  C   C15       1.0  0.8952784774006588  0.8321612647156871  0.8330843333325292  1.0000
  C   C16       1.0  0.892342418041011  0.7791794718236532  0.7799319646724002  1.0000
  C   C17       1.0  0.8895906607048117  0.7205296357402774  0.7213626714153989  1.0000
  C   C18       1.0  0.8872220456698229  0.6673469246138097  0.6683522238800705  1.0000
  C   C19       1.0  0.385476837199505  0.3324480674322033  0.3329380274256338  1.0000
  C   C20       1.0  0.38896797434777847  0.2792937093595712  0.27991627676806274  1.0000
  C   C21       1.0  0.39306192525378236  0.22048328879877493  0.2214797500087755  1.0000
  C   C22       1.0  0.39744790119817  0.16714358812479446  0.1686111391671758  1.0000
  C   C23       1.0  0.55734601217123  0.2516761575252033  0.7896571199566651  1.0000
  C   C24       1.0  0.39448617741670944  0.20423767663687903  0.7947389344822184  1.0000
  C   C25       1.0  0.2290633032886262  0.204997584929572  0.7528093786326835  1.0000
  C   C26       1.0  0.22262582173878087  0.24931734764319913  0.7095877762647476  1.0000
  C   C27       1.0  0.3893959686213364  0.29545016876390656  0.7061306281810927  1.0000
  C   C28       1.0  0.5588803245752131  0.29621489458974554  0.74658438035258  1.0000
  C   C29       1.0  0.3966019753603831  0.15951149879372647  0.8390697502675551  1.0000
  C   C30       1.0  0.386821591180599  0.3407210693028447  0.6617815233348382  1.0000
  C   C31       1.0  0.3846015258509752  0.3792282244909445  0.6232426820148049  1.0000
  C   C32       1.0  0.3980696711680309  0.12135710941167595  0.8778770347615606  1.0000
  C   C33       1.0  0.39781495306591813  0.07771826250382222  0.9249835249077307  1.0000
  C   C34       1.0  0.3996394605188557  0.1057177511309249  0.10518331153419068  1.0000
  C   C35       1.0  0.8987679036618132  0.9236011666460444  0.07701635113709678  1.0000
  C   C36       1.0  0.8965978997534166  0.8932107545831086  0.8967514989430398  1.0000
  O   O1        1.0  0.5549995760090809  0.44128854745911644  0.5586592820650367  1.0000
  O   O2        1.0  0.2126371136495564  0.4178277602105709  0.4205604306278659  1.0000
  O   O3        1.0  0.0536826706833935  0.5619206788791901  0.44454982758248474  1.0000
  O   O4        1.0  0.21434147529873124  0.43846329090899167  0.5563140185219595  1.0000
  O   O5        1.0  0.056019473262338706  0.5812189269571351  0.5804396665593927  1.0000
  O   O6        1.0  0.5535074829972402  0.4171377487534683  0.422193563031513  1.0000
  O   O7        1.0  0.3839856737438368  0.5456964834009883  0.5073502530440521  1.0000
  O   O8        1.0  0.7155379471302511  0.5831356414974992  0.5794926968520643  1.0000
  O   O9        1.0  0.7125846961511612  0.5610618632328297  0.4434086646027495  1.0000
  O   O10       1.0  0.8835797332857426  0.4547794941385633  0.49321522763808195  1.0000
  O   O11       1.0  0.22992024731349403  0.0826244359150721  0.0792330875252318  1.0000
  O   O12       1.0  0.5679330381414117  0.06245318224610231  0.9452249768107491  1.0000
  O   O13       1.0  0.7262601214884158  0.9175804416234785  0.9213136461209075  1.0000
  O   O14       1.0  0.5704875537883395  0.0817256972122493  0.08115124971030238  1.0000
  O   O15       1.0  0.7290048529806868  0.9402070161711437  0.05760121188116337  1.0000
  O   O16       1.0  0.2271080872045417  0.05947617213681159  0.9425818936906083  1.0000
  O   O17       1.0  0.3984329805041682  0.9547970518225667  0.9935843616298712  1.0000
  O   O18       1.0  0.06923114931815628  0.9413162285837019  0.05890504819397085  1.0000
  O   O19       1.0  0.0675050820092267  0.9156567017409288  0.9222324057398481  1.0000
  O   O20       1.0  0.8989366222307994  0.045890881427098414  0.0063461218963781025  1.0000
  F   F1        1.0  0.7181381123591706  0.2535023258379638  0.829395981760868  1.0000
  F   F2        1.0  0.07055403548800851  0.15988610528122393  0.7554024724504984  1.0000
