data_image0
_chemical_formula_structural       Zn2H60C52N14O16
_chemical_formula_sum              "Zn2 H60 C52 N14 O16"
_cell_length_a       9.234054243990485
_cell_length_b       18.324374489075048
_cell_length_c       19.39179829362374
_cell_angle_alpha    91.18544558371512
_cell_angle_beta     90.9438305511442
_cell_angle_gamma    91.00232525419003

_space_group_name_H-M_alt    "P 1"
_space_group_IT_number       1

loop_
  _space_group_symop_operation_xyz
  'x, y, z'

loop_
  _atom_site_type_symbol
  _atom_site_label
  _atom_site_symmetry_multiplicity
  _atom_site_fract_x
  _atom_site_fract_y
  _atom_site_fract_z
  _atom_site_occupancy
  Zn  Zn1       1.0  0.5202395857128793  0.42306038574442784  0.4968976472908724  1.0000
  Zn  Zn2       1.0  0.5325558902207774  0.5835203238547706  0.5037255589852165  1.0000
  H   H1        1.0  0.3173184204147148  0.4804755402484631  0.07375928431540761  1.0000
  H   H2        1.0  0.5118929446757435  0.2915705353912799  0.7333750239819354  1.0000
  H   H3        1.0  0.6176173438430013  0.27810025888899054  0.6575775117979107  1.0000
  H   H4        1.0  0.4543327197947066  0.32790504373507195  0.65293436080664  1.0000
  H   H5        1.0  0.22634116263596127  0.6044577151313106  0.7249718153306262  1.0000
  H   H6        1.0  0.32315264932424276  0.7126015834625435  0.6831811479484531  1.0000
  H   H7        1.0  0.49511965068033  0.6717472882540321  0.6742813909049448  1.0000
  H   H8        1.0  0.43483629421362474  0.6983372533906405  0.7579002859602327  1.0000
  H   H9        1.0  0.37769261712019647  0.3572116013683271  0.2812533616471456  1.0000
  H   H10       1.0  0.6346188261532079  0.30078199948858503  0.2625075194598381  1.0000
  H   H11       1.0  0.5294533026197641  0.2751797037179813  0.3350989473846226  1.0000
  H   H12       1.0  0.7492011517021313  0.5076649881664892  0.9268188706509761  1.0000
  H   H13       1.0  0.6673902324501101  0.3436753652732207  0.34500913152324847  1.0000
  H   H14       1.0  0.6935389990169796  0.6646427552777894  0.18199137165539275  1.0000
  H   H15       1.0  0.6006817957153318  0.7127343085121963  0.08484532298097491  1.0000
  H   H16       1.0  0.4446381059375356  0.672116025314395  0.12315248033419834  1.0000
  H   H17       1.0  0.5328287513273509  0.626932118382335  0.0539037344959965  1.0000
  H   H18       1.0  0.6841813797835314  0.3476261650395926  0.8032273917658517  1.0000
  H   H19       1.0  0.5835727319442725  0.3620780829255849  0.9450363985310519  1.0000
  H   H20       1.0  0.6356838452506325  0.28395672891970486  0.8967716069528536  1.0000
  H   H21       1.0  0.4616123111877927  0.3225433332542309  0.8821787147258888  1.0000
  H   H22       1.0  0.28541490576825623  0.6293767505082357  0.8232380434565416  1.0000
  H   H23       1.0  0.28874452687347935  0.4786358798459247  0.9459488792769764  1.0000
  H   H24       1.0  0.48538381208479114  0.6236432494989759  0.9429661016560474  1.0000
  H   H25       1.0  0.35859623691989384  0.6919068760625748  0.9228826694915284  1.0000
  H   H26       1.0  0.5177032543217237  0.6818011421759423  0.8722333792426937  1.0000
  H   H27       1.0  0.4494156246743445  0.3349000753609275  0.19065011597222542  1.0000
  H   H28       1.0  0.5274902870334373  0.2807930444767095  0.0924273050136222  1.0000
  H   H29       1.0  0.6845337403841896  0.3305430955775038  0.12362212035485244  1.0000
  H   H30       1.0  0.5753961998507294  0.36545740217341194  0.05567134393233891  1.0000
  H   H31       1.0  0.2859178451661677  0.3621839777301759  0.43557844514555916  1.0000
  H   H32       1.0  0.6755188977976659  0.6634412093333069  0.39506035570870784  1.0000
  H   H33       1.0  0.7535489314078206  0.3558672451642053  0.5352132020175305  1.0000
  H   H34       1.0  0.777198544878587  0.5123249392333521  0.054694560422923616  1.0000
  H   H35       1.0  0.2676740409739011  0.6336235279359741  0.5393148479409718  1.0000
  H   H36       1.0  0.2268451631463648  0.21009034172158889  0.3996444376198056  1.0000
  H   H37       1.0  0.757656502863455  0.814610156112913  0.412414636162744  1.0000
  H   H38       1.0  0.804141780374728  0.2025218220753828  0.5474011578790084  1.0000
  H   H39       1.0  0.1897713707556719  0.7877967921126443  0.5723772750432091  1.0000
  H   H40       1.0  0.5739670534622974  0.1242340386260352  0.6258026357485422  1.0000
  H   H41       1.0  0.775528619732107  0.1079578122662141  0.6851295001729698  1.0000
  H   H42       1.0  0.8325014898925076  0.0558686183016448  0.6128003042623151  1.0000
  H   H43       1.0  0.7494294569767774  0.0120465798555145  0.6847561290150141  1.0000
  H   H44       1.0  0.21112377083013462  0.8748275259524122  0.45125837023891086  1.0000
  H   H45       1.0  0.7411810017231489  0.6562361025759955  0.2773316977775125  1.0000
  H   H46       1.0  0.1236582910668744  0.9137107737785113  0.3422201821972166  1.0000
  H   H47       1.0  0.31766365155986886  0.9197126749070321  0.33955267066587425  1.0000
  H   H48       1.0  0.21436158203638203  0.9993220160509393  0.3560280000588207  1.0000
  H   H49       1.0  0.1153721101895897  0.0218532401250116  0.47365071724146196  1.0000
  H   H50       1.0  0.0135126714382778  0.12749417815246739  0.5193322274972303  1.0000
  H   H51       1.0  0.18609013656051593  0.16978189398816573  0.5343142183642302  1.0000
  H   H52       1.0  0.1260163580691511  0.09961983814153538  0.5897764255256066  1.0000
  H   H53       1.0  0.7546399821611658  0.9401170899000135  0.595012947055082  1.0000
  H   H54       1.0  0.6845953303119288  0.8497354632106137  0.6733021990392772  1.0000
  H   H55       1.0  0.5046985549172689  0.8512990274354664  0.6398508175507518  1.0000
  H   H56       1.0  0.4872087703164354  0.6968375028024952  0.2379404995387588  1.0000
  H   H57       1.0  0.5721657582715381  0.9264344720693035  0.6911852034667447  1.0000
  H   H58       1.0  0.5704300736028856  0.7420103902504778  0.3113450435721462  1.0000
  H   H59       1.0  0.44040440745940407  0.6703481640058085  0.3229006709721888  1.0000
  H   H60       1.0  0.7371154679260955  0.37752187508926477  0.710692492974424  1.0000
  C   C1        1.0  0.4891203909534169  0.5008909971257225  0.6286296146781611  1.0000
  C   C2        1.0  0.36498912565089375  0.8008134584077028  0.5247948022352915  1.0000
  C   C3        1.0  0.47565618198842685  0.15535622620477343  0.5042199242449997  1.0000
  C   C4        1.0  0.46998715971942323  0.8458829302197586  0.49546692411031784  1.0000
  C   C5        1.0  0.545502125908719  0.03694728685004381  0.5633364510768362  1.0000
  C   C6        1.0  0.3393722810344144  0.9626204914708153  0.47750570499768946  1.0000
  C   C7        1.0  0.32232878290014366  0.0377879069793394  0.4950984179565908  1.0000
  C   C8        1.0  0.5587225459901717  0.9616644853656097  0.5503914635556342  1.0000
  C   C9        1.0  0.460086006587055  0.9263014019277237  0.5032192510873585  1.0000
  C   C10       1.0  0.4476546601754379  0.07930886313679508  0.52042675834727  1.0000
  C   C11       1.0  0.8036852207490811  0.49877733394342993  0.5137765472702327  1.0000
  C   C12       1.0  0.5593262948294538  0.5080292635703927  0.372341154115624  1.0000
  C   C13       1.0  0.2408308003917767  0.49778729266584765  0.4868613266781809  1.0000
  C   C14       1.0  0.9577254577181193  0.4929361610905759  0.5049498221443827  1.0000
  C   C15       1.0  0.08710079466064971  0.4921752724865485  0.49506456036021973  1.0000
  C   C16       1.0  0.6087827851454932  0.5671289682422226  0.25850143258639247  1.0000
  C   C17       1.0  0.5630142031030018  0.4398031371115679  0.7378408711899809  1.0000
  C   C18       1.0  0.41196936711389043  0.5480184321099559  0.7447939440952852  1.0000
  C   C19       1.0  0.5220317290347866  0.4399843342826202  0.2604151083971687  1.0000
  C   C20       1.0  0.6068606026621242  0.5640782774045049  0.18524693053398525  1.0000
  C   C21       1.0  0.5689222489813021  0.43753007750245143  0.8109993786890757  1.0000
  C   C22       1.0  0.42173396123211404  0.5469177872393728  0.8177676655855779  1.0000
  C   C23       1.0  0.3970492933359894  0.2747054438917829  0.46085248522077665  1.0000
  C   C24       1.0  0.5217359321215796  0.43702609209076837  0.18723389305860394  1.0000
  C   C25       1.0  0.5615651926815347  0.4992424372008485  0.14960526086939305  1.0000
  C   C26       1.0  0.5017130794469723  0.4921949659286684  0.8510850507529144  1.0000
  C   C27       1.0  0.5659342556731489  0.5051012379923634  0.2953522783273925  1.0000
  C   C28       1.0  0.4859038161431856  0.49549448010836267  0.7058023847777691  1.0000
  C   C29       1.0  0.4119621598295851  0.4869983637663324  0.04140216112725171  1.0000
  C   C30       1.0  0.6542278687232398  0.5022983251546762  0.9591771944812707  1.0000
  C   C31       1.0  0.3960086347237635  0.4853351402088961  0.9698281090886456  1.0000
  C   C32       1.0  0.6701466873392975  0.5043628061391986  0.030839788519145407  1.0000
  C   C33       1.0  0.5169905707500819  0.49296155308806533  0.92751019910952  1.0000
  C   C34       1.0  0.59029981538783  0.7344767874674076  0.46096218060905886  1.0000
  C   C35       1.0  0.5490555788519061  0.4968442157544004  0.07306414416035521  1.0000
  C   C36       1.0  0.5297005286733808  0.6891334946656188  0.2907249285243979  1.0000
  C   C37       1.0  0.5497987335238007  0.317136845917581  0.6853911986706722  1.0000
  C   C38       1.0  0.39956539119044276  0.6750918783125928  0.707042932960576  1.0000
  C   C39       1.0  0.5823943170302854  0.3214404133544734  0.3099669709518765  1.0000
  C   C40       1.0  0.5512217402678062  0.66083787638302  0.1003788108747159  1.0000
  C   C41       1.0  0.5768454693348773  0.3353878510852226  0.8940102078997755  1.0000
  C   C42       1.0  0.4328108867524989  0.6520243042576722  0.9005353616722477  1.0000
  C   C43       1.0  0.5721492980763117  0.3356855896583113  0.10395529454424952  1.0000
  C   C44       1.0  0.7477478085140135  0.060321164665339204  0.6519524830105681  1.0000
  C   C45       1.0  0.6181974537778886  0.27104439569838235  0.5154059659563759  1.0000
  C   C46       1.0  0.2205049201782288  0.9405239899070991  0.3655435438314072  1.0000
  C   C47       1.0  0.12568734237441964  0.117794316453498  0.5357349963254308  1.0000
  C   C48       1.0  0.6016021607666674  0.8852331864291545  0.6514096493560616  1.0000
  C   C49       1.0  0.37752922103851466  0.724635821062016  0.5224271387922317  1.0000
  C   C50       1.0  0.38329336582373236  0.19853506753926814  0.4616113268866117  1.0000
  C   C51       1.0  0.5841756607278087  0.8107295275782179  0.4618714870526476  1.0000
  C   C52       1.0  0.6075459206690397  0.19539892337425607  0.5209974580352538  1.0000
  N   N1        1.0  0.5102973873824439  0.3122786103456151  0.49004746636925506  1.0000
  N   N2        1.0  0.477963238041376  0.37119948727207225  0.15407190463498927  1.0000
  N   N3        1.0  0.6050883882130478  0.0716718802269867  0.6216123984220802  1.0000
  N   N4        1.0  0.22216060922033168  0.9285752415321368  0.44016043104810626  1.0000
  N   N5        1.0  0.18478384620111402  0.0630919568020332  0.48977531816544234  1.0000
  N   N6        1.0  0.655437671685455  0.9163335885990304  0.587707367245095  1.0000
  N   N7        1.0  0.4919860592335468  0.6924334052911547  0.4935504135925228  1.0000
  N   N8        1.0  0.6460541300790653  0.6348614719632337  0.2948208273104029  1.0000
  N   N9        1.0  0.6319743339493655  0.3854838222996193  0.6967359666768759  1.0000
  N   N10       1.0  0.33124072353260203  0.6024553954992767  0.7097566735575145  1.0000
  N   N11       1.0  0.4753716155672691  0.3779603052868127  0.297843484735374  1.0000
  N   N12       1.0  0.6512246599712129  0.6261507248020806  0.14867571878850336  1.0000
  N   N13       1.0  0.6443877250404668  0.3801359784677132  0.8412678458853764  1.0000
  N   N14       1.0  0.348465144753618  0.600721715945234  0.8562091881620121  1.0000
  O   O1        1.0  0.4447850049914806  0.4459761942629611  0.5922000448451429  1.0000
  O   O2        1.0  0.7047880972121235  0.7035099202477965  0.42864187641158946  1.0000
  O   O3        1.0  0.7476501627783068  0.30090842257459377  0.5366228603885477  1.0000
  O   O4        1.0  0.269411810644158  0.6872668355361071  0.5524932839358386  1.0000
  O   O5        1.0  0.2797484485930823  0.1683860173112066  0.41773861700208675  1.0000
  O   O6        1.0  0.6879481887691199  0.8503240203318612  0.42909648456164723  1.0000
  O   O7        1.0  0.733259064807676  0.16208833395293004  0.5417833430933072  1.0000
  O   O8        1.0  0.24834924851244713  0.8297991866194322  0.5579850787884908  1.0000
  O   O9        1.0  0.507129989590041  0.565089084074316  0.4005903176555635  1.0000
  O   O10       1.0  0.603673374369052  0.4533421840284859  0.4055331688949907  1.0000
  O   O11       1.0  0.5397536639178994  0.5602417423201659  0.6047950147772952  1.0000
  O   O12       1.0  0.734369595475684  0.4423481062682412  0.5343810663154898  1.0000
  O   O13       1.0  0.3024271511872599  0.5563059695099852  0.5090483462832511  1.0000
  O   O14       1.0  0.30785216109302393  0.4450444858998567  0.45871789305961397  1.0000
  O   O15       1.0  0.7514919669436823  0.5600044018995832  0.4996639231462439  1.0000
  O   O16       1.0  0.29033893956025747  0.3082382387105298  0.4252188676734719  1.0000
