data_image0
_chemical_formula_structural       Cu4H24C24Br4N4O16
_chemical_formula_sum              "Cu4 H24 C24 Br4 N4 O16"
_cell_length_a       9.66259411320379
_cell_length_b       9.60078664230337
_cell_length_c       9.811896350108501
_cell_angle_alpha    90.00043761812658
_cell_angle_beta     89.99953399165794
_cell_angle_gamma    110.46065224421199

_space_group_name_H-M_alt    "P 1"
_space_group_IT_number       1

loop_
  _space_group_symop_operation_xyz
  'x, y, z'

loop_
  _atom_site_type_symbol
  _atom_site_label
  _atom_site_symmetry_multiplicity
  _atom_site_fract_x
  _atom_site_fract_y
  _atom_site_fract_z
  _atom_site_occupancy
  Cu  Cu1       1.0  0.4116309559695425  0.4923659064065191  0.34224797082551833  1.0000
  Cu  Cu2       1.0  0.08837101058644942  0.5076353841078072  0.8422515853146494  1.0000
  Cu  Cu3       1.0  0.5883699018983037  0.5076278500898538  0.6577530788934498  1.0000
  Cu  Cu4       1.0  0.911631491559483  0.4923717409345797  0.15776373284177234  1.0000
  H   H1        1.0  0.5068818544162712  0.006032352059861498  0.2580724085956305  1.0000
  H   H2        1.0  0.9931255781056124  0.993977774941335  0.7580753443894539  1.0000
  H   H3        1.0  0.4931200350430842  0.9939613949766293  0.741929660290026  1.0000
  H   H4        1.0  0.006876835506197701  0.0060349273834674  0.241930801249616  1.0000
  H   H5        1.0  0.3066490279363591  0.8026092524016943  0.3796195186446668  1.0000
  H   H6        1.0  0.19335246958080182  0.1973944793064462  0.8796321520660443  1.0000
  H   H7        1.0  0.693340788782109  0.19739129714351827  0.6203723586066872  1.0000
  H   H8        1.0  0.8066519426005172  0.8026092822926926  0.12037399353098271  1.0000
  H   H9        1.0  0.16296364289339485  0.8745485095772592  0.5623261449239864  1.0000
  H   H10       1.0  0.3370430321619295  0.1254567692543347  0.06233362040525492  1.0000
  H   H11       1.0  0.8370346682977826  0.1254497314760243  0.43767490482242993  1.0000
  H   H12       1.0  0.6629676342036532  0.8745558573715397  0.9376735443704902  1.0000
  H   H13       1.0  0.21992051297009146  0.15106028999201723  0.608969611570963  1.0000
  H   H14       1.0  0.280079535729854  0.8489419611260727  0.10896162417650151  1.0000
  H   H15       1.0  0.7800835928694881  0.8489367826027487  0.3910293998051984  1.0000
  H   H16       1.0  0.7199152618407326  0.15106969571865386  0.8910292339253375  1.0000
  H   H17       1.0  0.17454073687606814  0.5198870588497968  0.3633418146757777  1.0000
  H   H18       1.0  0.32546292287874223  0.4801165631279432  0.8633351132237269  1.0000
  H   H19       1.0  0.8254650132632975  0.4801233822711025  0.6366643309409881  1.0000
  H   H20       1.0  0.674537298341626  0.5198783144877621  0.13665880230526284  1.0000
  H   H21       1.0  0.21321385527843972  0.4843316540178222  0.5122474966122184  1.0000
  H   H22       1.0  0.28679027131643414  0.515671141155714  0.012243049136031903  1.0000
  H   H23       1.0  0.7867818446225527  0.5156621497864718  0.48775151478623263  1.0000
  H   H24       1.0  0.7132171710630929  0.4843236702237873  0.9877518855339176  1.0000
  C   C1        1.0  0.4648540436649711  0.18037917355501065  0.3643381221319757  1.0000
  C   C2        1.0  0.035143025544499516  0.8196233990710764  0.8643292467109448  1.0000
  C   C3        1.0  0.5351488773858861  0.8196145640215986  0.6356649659203697  1.0000
  C   C4        1.0  0.9648464608558314  0.18038496060921005  0.13566670725521135  1.0000
  C   C5        1.0  0.4377938645409075  0.031246379261474992  0.3349641431265909  1.0000
  C   C6        1.0  0.06220963746043395  0.9687648946486717  0.8349643255711571  1.0000
  C   C7        1.0  0.562201835360085  0.9687474245428189  0.6650348682718602  1.0000
  C   C8        1.0  0.9377982405033551  0.031254449332799104  0.16503672421560375  1.0000
  C   C9        1.0  0.32809883407112755  0.9191308438769851  0.4031321451963025  1.0000
  C   C10       1.0  0.17190704178635496  0.08087409272194887  0.9031369402333955  1.0000
  C   C11       1.0  0.6718948026499449  0.08086297884422318  0.5968638086977904  1.0000
  C   C12       1.0  0.8281021980746743  0.919137431675935  0.09686512868917423  1.0000
  C   C13       1.0  0.24770442241869248  0.9590033056212942  0.5047582422127449  1.0000
  C   C14       1.0  0.25229698521227567  0.040991666090505405  0.0047637393618487  1.0000
  C   C15       1.0  0.75229325210951  0.0409960565655325  0.4952407691985813  1.0000
  C   C16       1.0  0.7477057826506767  0.958998726999546  0.9952413870204425  1.0000
  C   C17       1.0  0.27649024650330745  0.10732221637480417  0.533421125958789  1.0000
  C   C18       1.0  0.22350661869922553  0.8926751858029431  0.03342616564864901  1.0000
  C   C19       1.0  0.7235102810711993  0.8926793502339119  0.46657584710715133  1.0000
  C   C20       1.0  0.7764901127684853  0.10731860856419931  0.9665820182843134  1.0000
  C   C21       1.0  0.581987130627489  0.3002776603952454  0.2874773132814142  1.0000
  C   C22       1.0  0.9180144170268394  0.6997282216582618  0.7874694709511305  1.0000
  C   C23       1.0  0.4180157018644622  0.6997216544865025  0.7125247556214023  1.0000
  C   C24       1.0  0.0819907850394515  0.3002777632626419  0.21252546377029094  1.0000
  Br  Br1       1.0  0.4464395789981025  0.6764173381615279  0.16648229625788966  1.0000
  Br  Br2       1.0  0.053555469383908885  0.32356631619453674  0.6664817485665255  1.0000
  Br  Br3       1.0  0.5535473200264677  0.3235720851871377  0.8335207918441868  1.0000
  Br  Br4       1.0  0.9464245387965208  0.6764153632581014  0.3335172628507693  1.0000
  N   N1        1.0  0.38199271192497264  0.21479032930121628  0.4626865548051172  1.0000
  N   N2        1.0  0.11800591095823879  0.785207195392914  0.9626746977588496  1.0000
  N   N3        1.0  0.6180075092829966  0.7852045483258577  0.5373114374077731  1.0000
  N   N4        1.0  0.8820024744848782  0.2147931838034367  0.03731004521847581  1.0000
  O   O1        1.0  0.4036355070793435  0.3550772033876584  0.49656423925105037  1.0000
  O   O2        1.0  0.09636124151303697  0.6449216407885173  0.9965545574623533  1.0000
  O   O3        1.0  0.5963643192000845  0.6449165625657471  0.5034347721302482  1.0000
  O   O4        1.0  0.9036419859477434  0.3550787857299581  0.003433243049350701  1.0000
  O   O5        1.0  0.5608753029278191  0.42368837434966616  0.2604820659762695  1.0000
  O   O6        1.0  0.9391214926327294  0.5763151717266338  0.7604843274122147  1.0000
  O   O7        1.0  0.43912333859077546  0.5763020565600172  0.7395118495424173  1.0000
  O   O8        1.0  0.06088162229584528  0.42370533123359166  0.23951264571464753  1.0000
  O   O9        1.0  0.6913497839679792  0.27129821422417416  0.24775456408131907  1.0000
  O   O10       1.0  0.8086509736326876  0.7287074558537653  0.7477549766079933  1.0000
  O   O11       1.0  0.30865289533605283  0.7286977561710088  0.752249543151443  1.0000
  O   O12       1.0  0.191356597945969  0.2713051991631161  0.2522532073515934  1.0000
  O   O13       1.0  0.2553672246599633  0.5512976823150028  0.4337133179630755  1.0000
  O   O14       1.0  0.2446213470202991  0.44869419818020617  0.9337060261743133  1.0000
  O   O15       1.0  0.744631811728297  0.44869386032232206  0.5662989426357969  1.0000
  O   O16       1.0  0.7553576295593275  0.5512874907408333  0.06629502358922681  1.0000
