data_image0
_chemical_formula_structural       Cu4H24C24N12Cl8
_chemical_formula_sum              "Cu4 H24 C24 N12 Cl8"
_cell_length_a       8.090682787216826
_cell_length_b       8.621421891128039
_cell_length_c       14.312619907863393
_cell_angle_alpha    79.1333083777485
_cell_angle_beta     73.58822378042854
_cell_angle_gamma    62.00532194690858

_space_group_name_H-M_alt    "P 1"
_space_group_IT_number       1

loop_
  _space_group_symop_operation_xyz
  'x, y, z'

loop_
  _atom_site_type_symbol
  _atom_site_label
  _atom_site_symmetry_multiplicity
  _atom_site_fract_x
  _atom_site_fract_y
  _atom_site_fract_z
  _atom_site_occupancy
  Cu  Cu1       1.0  0.7980359951912491  0.14168827441658038  0.5929230784097967  1.0000
  Cu  Cu2       1.0  0.46736148445859294  0.6418067858530845  0.09294887993540608  1.0000
  Cu  Cu3       1.0  0.20197113348619689  0.8583138842860335  0.40707221057436266  1.0000
  Cu  Cu4       1.0  0.5326403761558607  0.3581900998449326  0.9070517534629161  1.0000
  H   H1        1.0  0.7839113039570411  0.6560482290711035  0.702089552609351  1.0000
  H   H2        1.0  0.8579594283771217  0.15615439024841035  0.20221194579551838  1.0000
  H   H3        1.0  0.2161004098920571  0.3439460240404344  0.2979103524031713  1.0000
  H   H4        1.0  0.14203589557516977  0.8438411806069509  0.7977881645588668  1.0000
  H   H5        1.0  0.789822008159689  0.5006649272576879  0.7995821132360348  1.0000
  H   H6        1.0  0.9098998181981702  0.0006491440445231001  0.29966996052018396  1.0000
  H   H7        1.0  0.21018684432630869  0.49932932573277344  0.20041806629109257  1.0000
  H   H8        1.0  0.09010034268979436  0.9993437949799214  0.7003292733942387  1.0000
  H   H9        1.0  0.7522820607189477  0.31372855791012455  0.3894035305389707  1.0000
  H   H10       1.0  0.5448290281380754  0.8139757133936455  0.889499593788912  1.0000
  H   H11       1.0  0.2477430144188658  0.6862749199892874  0.6105886696118789  1.0000
  H   H12       1.0  0.4551676006137485  0.18601722064217796  0.11050312554233699  1.0000
  H   H13       1.0  0.6711328257368697  0.6168328959060572  0.3120650661217397  1.0000
  H   H14       1.0  0.39984031473694864  0.11696174077015085  0.8122185235021036  1.0000
  H   H15       1.0  0.3288739552399349  0.3831745239495489  0.6879329689340564  1.0000
  H   H16       1.0  0.6001504358116351  0.8830351468773115  0.18778160250349168  1.0000
  H   H17       1.0  0.6431732172613779  0.8487142661587581  0.40999621129603975  1.0000
  H   H18       1.0  0.09791701314663474  0.34878248560067954  0.9101131893054343  1.0000
  H   H19       1.0  0.3568078827559231  0.15129314486748768  0.5900093220288555  1.0000
  H   H20       1.0  0.9020765864509247  0.6512196657546239  0.08988780280607489  1.0000
  H   H21       1.0  0.7101974317430123  0.7619535817635776  0.57470863169916  1.0000
  H   H22       1.0  0.9530236960162387  0.2621511816259385  0.07486780060951045  1.0000
  H   H23       1.0  0.28978493741963973  0.238051196312945  0.4252969967837359  1.0000
  H   H24       1.0  0.04696987969507664  0.7378443848002049  0.925135309362716  1.0000
  C   C1        1.0  0.7422043408633386  0.41672279067964263  0.4275972384926304  1.0000
  C   C2        1.0  0.4136999988939399  0.9168970021541794  0.9277716482358825  1.0000
  C   C3        1.0  0.25780955180787435  0.583278046484409  0.5724009712279496  1.0000
  C   C4        1.0  0.5862990722119721  0.08310120089534222  0.0722285150146647  1.0000
  C   C5        1.0  0.697748527110008  0.5871025687811198  0.3852958834653535  1.0000
  C   C6        1.0  0.32990330738209656  0.08725860908633355  0.8854995200894962  1.0000
  C   C7        1.0  0.3022626479072132  0.4129009032070313  0.6147011114450933  1.0000
  C   C8        1.0  0.6700912978288476  0.9127422243580622  0.11450242796875894  1.0000
  C   C9        1.0  0.6836966691833343  0.7128578189884676  0.4389921524573594  1.0000
  C   C10       1.0  0.16442216243714122  0.2129863836186985  0.9391772929489832  1.0000
  C   C11       1.0  0.31629703792297204  0.28714564596960906  0.5610106088106478  1.0000
  C   C12       1.0  0.8355753759914535  0.7870157674193692  0.06082363593231574  1.0000
  C   C13       1.0  0.7198344969607079  0.6639491965153893  0.5325113656496683  1.0000
  C   C14       1.0  0.08364849369592528  0.1641510723745724  0.03268886134188159  1.0000
  C   C15       1.0  0.2801596892412164  0.3360569058216284  0.467488300842497  1.0000
  C   C16       1.0  0.9163473088058117  0.8358458106475124  0.9673139265367467  1.0000
  C   C17       1.0  0.7620061711744841  0.4918176393540534  0.5705186068067148  1.0000
  C   C18       1.0  0.17569746421578025  0.991990525990715  0.07065381947722219  1.0000
  C   C19       1.0  0.23799816744823965  0.5081845114878547  0.42948198432976875  1.0000
  C   C20       1.0  0.8243015350355734  0.0080063595862256  0.9293470884356907  1.0000
  C   C21       1.0  0.7867128055132688  0.43049651149927814  0.6713208414727133  1.0000
  C   C22       1.0  0.11150270857616122  0.9305735080836681  0.1714159798211483  1.0000
  C   C23       1.0  0.21329020442367158  0.5695016912330074  0.3286792585476234  1.0000
  C   C24       1.0  0.8884954767392302  0.0694220628927766  0.8285838560186389  1.0000
  N   N1        1.0  0.7700406707535238  0.3710820349357674  0.518646296974758  1.0000
  N   N2        1.0  0.34036228511703853  0.8712660765026002  0.01878532369808278  1.0000
  N   N3        1.0  0.2299707677956632  0.6289201220135681  0.4813498371469437  1.0000
  N   N4        1.0  0.6596327753032792  0.12873080939157688  0.9812156474450475  1.0000
  N   N5        1.0  0.8001979046277159  0.5309566344590804  0.7259838972832923  1.0000
  N   N6        1.0  0.9429325335289037  0.031041121810993392  0.22608434398541274  1.0000
  N   N7        1.0  0.19980897228570169  0.46904025048337417  0.27401688416919967  1.0000
  N   N8        1.0  0.057060899019482976  0.9689531348821914  0.7739144830114526  1.0000
  N   N9        1.0  0.7938877805310584  0.271902999742302  0.700894334399308  1.0000
  N   N10       1.0  0.23333181665726266  0.7718968914952099  0.20096194919469917  1.0000
  N   N11       1.0  0.20611422379250427  0.7280965209008909  0.29910480967428293  1.0000
  N   N12       1.0  0.7666711214251267  0.22809999376448786  0.7990388954880031  1.0000
  Cl  Cl1       1.0  0.7197649685520707  0.9429110104800102  0.6967414042668237  1.0000
  Cl  Cl2       1.0  0.6402508689939669  0.442616235092366  0.19674531204457676  1.0000
  Cl  Cl3       1.0  0.2802273863325695  0.05710168396639399  0.30325160252587574  1.0000
  Cl  Cl4       1.0  0.3597531822105463  0.5573806458591974  0.8032582577413693  1.0000
  Cl  Cl5       1.0  0.8095012253917351  0.016356321981660895  0.4601690428784265  1.0000
  Cl  Cl6       1.0  0.7138885777503248  0.5163587937386964  0.960215339570979  1.0000
  Cl  Cl7       1.0  0.19049806127783608  0.9836458334856244  0.5398288863850311  1.0000
  Cl  Cl8       1.0  0.28611591689562504  0.4836407284616228  0.03978262162026169  1.0000
