data_image0
_chemical_formula_structural       Zn2H84C78N2Cl6O18
_chemical_formula_sum              "Zn2 H84 C78 N2 Cl6 O18"
_cell_length_a       10.78035293178619
_cell_length_b       18.230536928313423
_cell_length_c       18.789463005123995
_cell_angle_alpha    89.97001793684831
_cell_angle_beta     90.3218736271805
_cell_angle_gamma    89.2753671010371

_space_group_name_H-M_alt    "P 1"
_space_group_IT_number       1

loop_
  _space_group_symop_operation_xyz
  'x, y, z'

loop_
  _atom_site_type_symbol
  _atom_site_label
  _atom_site_symmetry_multiplicity
  _atom_site_fract_x
  _atom_site_fract_y
  _atom_site_fract_z
  _atom_site_occupancy
  Zn  Zn1       1.0  0.48437004724952715  0.4203896971645805  0.5047984650505271  1.0000
  Zn  Zn2       1.0  0.478080482141337  0.5755642068391965  0.49833377676708296  1.0000
  H   H1        1.0  0.44212117770535997  0.3113732374821936  0.39883143583570296  1.0000
  H   H2        1.0  0.5567632330556266  0.5837985250976699  0.8719095054246819  1.0000
  H   H3        1.0  0.6371163499429002  0.40406986553882973  0.31350738352814733  1.0000
  H   H4        1.0  0.7020390388170342  0.4051818659220458  0.6908370931062747  1.0000
  H   H5        1.0  0.5766782981603811  0.38502556933980253  0.06652825926155967  1.0000
  H   H6        1.0  0.5959071331102662  0.38332424863494907  0.9346414039144972  1.0000
  H   H7        1.0  0.7725262678202969  0.603535205967681  0.3678001904879976  1.0000
  H   H8        1.0  0.9223882623500472  0.6441625153839042  0.35783639420407093  1.0000
  H   H9        1.0  0.6932782404129159  0.7227884131274891  0.4180505635181006  1.0000
  H   H10       1.0  0.8378690104797857  0.7635320788638181  0.39978755529445203  1.0000
  H   H11       1.0  0.8062474707094012  0.734939114002934  0.2675879070229924  1.0000
  H   H12       1.0  0.5100394322447315  0.3038005688640482  0.6149251935644668  1.0000
  H   H13       1.0  0.6850963340586632  0.7914517219084303  0.3016086769592405  1.0000
  H   H14       1.0  0.6602658369405673  0.6965142163051825  0.28817823669819376  1.0000
  H   H15       1.0  0.13578526916356992  0.6288623904939713  0.6058797292325548  1.0000
  H   H16       1.0  0.991834372572349  0.6733708176172685  0.5816114296798813  1.0000
  H   H17       1.0  0.2523724102710361  0.7312178290795687  0.552125186650045  1.0000
  H   H18       1.0  0.1117366213670863  0.7761709688438216  0.5277188686029034  1.0000
  H   H19       1.0  0.05309409831489382  0.7853938459915781  0.6582644116838665  1.0000
  H   H20       1.0  0.19697304839716887  0.8285421555316506  0.6419182484746101  1.0000
  H   H21       1.0  0.19428849636264542  0.740297969651138  0.6818874621096355  1.0000
  H   H22       1.0  0.3513963152285627  0.16526639524962414  0.2798653319640252  1.0000
  H   H23       1.0  0.6789213499656555  0.9337773120805722  0.5242187718047403  1.0000
  H   H24       1.0  0.4139882539452345  0.250699372973358  0.3061065388655137  1.0000
  H   H25       1.0  0.17325490864449478  0.18307861034833192  0.3624942558010885  1.0000
  H   H26       1.0  0.2335257745082515  0.2666667770310482  0.3926673159143021  1.0000
  H   H27       1.0  0.21131240496576004  0.3210542120308589  0.2695993645758179  1.0000
  H   H28       1.0  0.06751676257030681  0.2896989107915147  0.3023461902531323  1.0000
  H   H29       1.0  0.1493804959341531  0.23703570969210125  0.2380787799290829  1.0000
  H   H30       1.0  0.42074517509931303  0.1419589169873419  0.7230892830868496  1.0000
  H   H31       1.0  0.39179609140640537  0.2288280762398571  0.682585383304932  1.0000
  H   H32       1.0  0.6385937685888906  0.1746428603173413  0.748184118266458  1.0000
  H   H33       1.0  0.6189876396749482  0.2603617208375083  0.7056704168722374  1.0000
  H   H34       1.0  0.28829103465649547  0.9281236330910615  0.4751735218713262  1.0000
  H   H35       1.0  0.4576180118794184  0.29830963366098473  0.7951030054442114  1.0000
  H   H36       1.0  0.5982180250939138  0.2730379785596355  0.8387443581585002  1.0000
  H   H37       1.0  0.4716302982203899  0.2115314577544254  0.8377793297058032  1.0000
  H   H38       1.0  0.7198659123173101  0.013007007537979098  0.6209202257457276  1.0000
  H   H39       1.0  0.7772279697486866  0.10424750580823168  0.6245822369219167  1.0000
  H   H40       1.0  0.8826592913557079  0.9819508631063985  0.5290871048412524  1.0000
  H   H41       1.0  0.933993880298935  0.07368968707530141  0.5323528071689478  1.0000
  H   H42       1.0  0.9943565932746949  0.05834491056141639  0.6612988157115396  1.0000
  H   H43       1.0  0.07160739373684069  0.9922787909988813  0.6079065536669288  1.0000
  H   H44       1.0  0.9423295349276232  0.9662360822249026  0.6597768913094555  1.0000
  H   H45       1.0  0.3716354243472608  0.6912204442203346  0.4071439518201173  1.0000
  H   H46       1.0  0.0823189119515462  0.08331444761670073  0.4454070576033187  1.0000
  H   H47       1.0  0.12724818573965993  0.9939642487088136  0.4738023491179957  1.0000
  H   H48       1.0  0.2065638799424221  0.06624850571186162  0.3336107310483882  1.0000
  H   H49       1.0  0.2447180063664831  0.9758030470390511  0.3592730799607437  1.0000
  H   H50       1.0  0.0129407872091321  0.9457626584647233  0.361056104168874  1.0000
  H   H51       1.0  0.062021704869934496  0.9751135468013171  0.27591237448407196  1.0000
  H   H52       1.0  0.9790144338808916  0.0363854069334408  0.3321500022520495  1.0000
  H   H53       1.0  0.1623151316374987  0.8514678237428868  0.39911385836469987  1.0000
  H   H54       1.0  0.21159669701044953  0.7581487450548678  0.4012663106017626  1.0000
  H   H55       1.0  0.23744252916613107  0.8617001986282844  0.27333043650313016  1.0000
  H   H56       1.0  0.6056922996445594  0.6863277148436424  0.5813696506952652  1.0000
  H   H57       1.0  0.2821923844247323  0.7682147117193169  0.27480786380156264  1.0000
  H   H58       1.0  0.0575311699852676  0.7336367120279166  0.2991516549156755  1.0000
  H   H59       1.0  0.0725241624698398  0.7814415854864126  0.2175722615696998  1.0000
  H   H60       1.0  0.0139651065297244  0.8275760893508918  0.29364229609002007  1.0000
  H   H61       1.0  0.8003726059262848  0.8333707696210626  0.6430467241457548  1.0000
  H   H62       1.0  0.7669655667339442  0.7490845962560259  0.599677347423018  1.0000
  H   H63       1.0  0.6440602637832171  0.8104241085173032  0.735076445887273  1.0000
  H   H64       1.0  0.5958555130060859  0.7293127576133287  0.6924679436094647  1.0000
  H   H65       1.0  0.8062527176475387  0.6712332490602151  0.7124405657295013  1.0000
  H   H66       1.0  0.7391261297961266  0.6993356227571752  0.794077757851582  1.0000
  H   H67       1.0  0.7727280026000403  0.36021675304108663  0.4478315179820739  1.0000
  H   H68       1.0  0.8579975862482743  0.7523865426285496  0.7552209077999449  1.0000
  H   H69       1.0  0.8593826012135963  0.57474758746514  0.8307207432937743  1.0000
  H   H70       1.0  0.9501705105258722  0.5200035714831373  0.8905895369332409  1.0000
  H   H71       1.0  0.9662563394974272  0.6873057728044715  0.8735364997294894  1.0000
  H   H72       1.0  0.057859903364807515  0.6338239989943873  0.9325339590195794  1.0000
  H   H73       1.0  0.15394289415867488  0.5664259533173776  0.828072944965015  1.0000
  H   H74       1.0  0.17553412095507068  0.662142743455945  0.820359625318474  1.0000
  H   H75       1.0  0.06020299538877791  0.6185677532002246  0.7682924612647923  1.0000
  H   H76       1.0  0.9942581459519602  0.5746502810436952  0.06996343242720827  1.0000
  H   H77       1.0  0.9180887500919468  0.5106288253102919  0.1263763842059049  1.0000
  H   H78       1.0  0.1948627158192551  0.3652858994484092  0.5522356100498909  1.0000
  H   H79       1.0  0.9582750141459686  0.6727830024547431  0.1621410530376863  1.0000
  H   H80       1.0  0.881360927929272  0.6085073176469962  0.2162341182314477  1.0000
  H   H81       1.0  0.0790741897232863  0.5307995034697157  0.222900471655393  1.0000
  H   H82       1.0  0.1035441666532009  0.6199310696542142  0.25687255259930447  1.0000
  H   H83       1.0  0.1567814971346166  0.5970469039620241  0.170775285732141  1.0000
  H   H84       1.0  0.5384243143354155  0.5928527456156799  0.13258495449740335  1.0000
  C   C1        1.0  0.5390399669871188  0.5004941624928917  0.6355352827378339  1.0000
  C   C2        1.0  0.5868852115703973  0.50004332194397  0.7107165982738621  1.0000
  C   C3        1.0  0.6290148239118167  0.4272599182578817  0.0392141521190936  1.0000
  C   C4        1.0  0.6406228771086759  0.4261291470512275  0.9657747219480936  1.0000
  C   C5        1.0  0.700396082815587  0.48298596669463484  0.9296538562237228  1.0000
  C   C6        1.0  0.6778163363237582  0.4857160512789633  0.078468361194858  1.0000
  C   C7        1.0  0.7607371830247728  0.5378059128079826  0.9690887389604085  1.0000
  C   C8        1.0  0.7483483310936874  0.5389754584018506  0.04391595183196979  1.0000
  C   C9        1.0  0.4543844739886609  0.2758854413048796  0.4449517716602855  1.0000
  C   C10       1.0  0.4941537943757126  0.2716379439885018  0.5670531466023049  1.0000
  C   C11       1.0  0.44759196150661745  0.19943648943306866  0.44091992498671556  1.0000
  C   C12       1.0  0.47624855580197323  0.49696409962556504  0.36440039467697  1.0000
  C   C13       1.0  0.4905797127364906  0.1950003952971144  0.5668390211951716  1.0000
  C   C14       1.0  0.4711230931510286  0.1571932748432658  0.5023823666210061  1.0000
  C   C15       1.0  0.7143037942811646  0.49936646899547565  0.47753087739459227  1.0000
  C   C16       1.0  0.2484586578992989  0.5030326012596548  0.5171468731342725  1.0000
  C   C17       1.0  0.5848524907947166  0.038146582780221615  0.5170113460363267  1.0000
  C   C18       1.0  0.367551365120832  0.03538871504015621  0.48455700232730675  1.0000
  C   C19       1.0  0.5909138821838981  0.9616603567721714  0.5147047230342137  1.0000
  C   C20       1.0  0.3717944639336608  0.95893481145297  0.48555741276327763  1.0000
  C   C21       1.0  0.4840747169126162  0.921373683596805  0.4993360943673864  1.0000
  C   C22       1.0  0.47419892809515574  0.076295492148958  0.5006139513426289  1.0000
  C   C23       1.0  0.6420543013110632  0.4936670624992703  0.15403839540766737  1.0000
  C   C24       1.0  0.4178203031904176  0.8002389063457825  0.44649978213386277  1.0000
  C   C25       1.0  0.5620753344185514  0.7977243279629962  0.5448916979145507  1.0000
  C   C26       1.0  0.42114359350721753  0.7235878124940314  0.44659424545917387  1.0000
  C   C27       1.0  0.5558416548462617  0.7212067234763851  0.54365993749402  1.0000
  C   C28       1.0  0.48816485590418784  0.8402711932384364  0.49684009398834644  1.0000
  C   C29       1.0  0.8648890029567796  0.36248448626322016  0.47105907855119955  1.0000
  C   C30       1.0  0.10271261904101442  0.36544279470506075  0.5289190078130088  1.0000
  C   C31       1.0  0.925011748507771  0.29757327376788834  0.48758462989215434  1.0000
  C   C32       1.0  0.0435144201441489  0.2994322017737829  0.5206299617474243  1.0000
  C   C33       1.0  0.046366459137217896  0.43287513084678153  0.5074325847315677  1.0000
  C   C34       1.0  0.675120303253216  0.49012425474010957  0.8523716091930068  1.0000
  C   C35       1.0  0.920123579892376  0.431497089901022  0.484098004889482  1.0000
  C   C36       1.0  0.8526174398418294  0.4992338440296251  0.4736421857365655  1.0000
  C   C37       1.0  0.10999412112394681  0.5019162436216149  0.5103946902365378  1.0000
  C   C38       1.0  0.9165955750429192  0.5652974919105632  0.4751087067293439  1.0000
  C   C39       1.0  0.04477028422392951  0.5665169079177302  0.49505310123678453  1.0000
  C   C40       1.0  0.5075477305977003  0.5560916293521814  0.23965888059183968  1.0000
  C   C41       1.0  0.5481379359594882  0.5510586121980054  0.7619927926424808  1.0000
  C   C42       1.0  0.5618406657518734  0.5515672830753714  0.17254407613400957  1.0000
  C   C43       1.0  0.5914925641679005  0.5458223894818844  0.831720733535029  1.0000
  C   C44       1.0  0.8345542225991239  0.6463839631801774  0.38789666491846475  1.0000
  C   C45       1.0  0.6720491384673153  0.4419464072356263  0.206925080914246  1.0000
  C   C46       1.0  0.7727584427827311  0.7212289194639396  0.38169812250107776  1.0000
  C   C47       1.0  0.7290239465621013  0.7368827186919448  0.3055632378217012  1.0000
  C   C48       1.0  0.09078391571169671  0.6666123822568437  0.5674890403627088  1.0000
  C   C49       1.0  0.1552853869575017  0.7399230045812571  0.5678596668776377  1.0000
  C   C50       1.0  0.1495328722535376  0.7755588343237108  0.6414487163511138  1.0000
  C   C51       1.0  0.3566170067063368  0.2045853733262959  0.32405180779343107  1.0000
  C   C52       1.0  0.2272484139203854  0.23079672203888182  0.3458110931593764  1.0000
  C   C53       1.0  0.16050288482253453  0.2717953031425182  0.2854993319620433  1.0000
  C   C54       1.0  0.4640446825169207  0.18688133888981887  0.6934140278504584  1.0000
  C   C55       1.0  0.5703264498646732  0.2185784123260746  0.7368000880441697  1.0000
  C   C56       1.0  0.7160674586840868  0.44038782647124464  0.8002881164735454  1.0000
  C   C57       1.0  0.521737991277135  0.2521923592157479  0.806004740645953  1.0000
  C   C58       1.0  0.7667320451520753  0.05583358604313561  0.5900518084938824  1.0000
  C   C59       1.0  0.8934219659212275  0.02971201017977171  0.564404088502961  1.0000
  C   C60       1.0  0.9799124961836085  0.010503914773103402  0.626695062341973  1.0000
  C   C61       1.0  0.15567471001536154  0.0411655224219345  0.4410827543429576  1.0000
  C   C62       1.0  0.17255123787320056  0.0187424768020321  0.36347320504370356  1.0000
  C   C63       1.0  0.05013970578251299  0.9926160165642415  0.3314142669308068  1.0000
  C   C64       1.0  0.229399917571584  0.8116091963386723  0.3764880625888195  1.0000
  C   C65       1.0  0.21447090184067014  0.8079950810022396  0.29624016819303006  1.0000
  C   C66       1.0  0.08244640590987022  0.786582537368247  0.27553603641408836  1.0000
  C   C67       1.0  0.6163942585127417  0.44547615181846106  0.27329867596745316  1.0000
  C   C68       1.0  0.7269790975008164  0.7931799909700459  0.6328911719777393  1.0000
  C   C69       1.0  0.6768751740955921  0.7637978121922232  0.7027706401299695  1.0000
  C   C70       1.0  0.7756767295336644  0.7193665583276642  0.7433083988905762  1.0000
  C   C71       1.0  0.910566534335949  0.5753590557158788  0.8816441782979396  1.0000
  C   C72       1.0  0.010940735270615697  0.6330868522770602  0.8803417907621736  1.0000
  C   C73       1.0  0.10497188555905981  0.6192256820428312  0.8210445064802057  1.0000
  C   C74       1.0  0.9233983077783635  0.5691825440165914  0.11189153071143204  1.0000
  C   C75       1.0  0.9558677839773537  0.6143542568201142  0.17688573736413093  1.0000
  C   C76       1.0  0.08038274464696121  0.5892597065034194  0.20844945596645906  1.0000
  C   C77       1.0  0.6716221480740572  0.4448962864372064  0.7306445704119324  1.0000
  C   C78       1.0  0.5309915427232355  0.5012808910538877  0.290870773830349  1.0000
  N   N1        1.0  0.4782531693070595  0.3098688456635088  0.5065986361708423  1.0000
  N   N2        1.0  0.486412410878998  0.6860479008217412  0.4953885485347412  1.0000
  Cl  Cl1       1.0  0.8529711359462979  0.21543180372308512  0.4696271222655567  1.0000
  Cl  Cl2       1.0  0.11635049308317491  0.21945095328737105  0.549130436811353  1.0000
  Cl  Cl3       1.0  0.40780032986265274  0.6298549117336166  0.2540338489200735  1.0000
  Cl  Cl4       1.0  0.4375832657443723  0.6179706521288892  0.7419739480201384  1.0000
  Cl  Cl5       1.0  0.7792920870728749  0.3722446729152935  0.19037294054643888  1.0000
  Cl  Cl6       1.0  0.8224470702825499  0.3717368040096077  0.8221394806997393  1.0000
  O   O1        1.0  0.4918409018670929  0.4409068108129615  0.6142545105367175  1.0000
  O   O2        1.0  0.09839822145001162  0.6343891977828877  0.4971715830737793  1.0000
  O   O3        1.0  0.4208281309828052  0.1635595448508624  0.3794676152896982  1.0000
  O   O4        1.0  0.5021202655078268  0.15373939687940208  0.6270276509268056  1.0000
  O   O5        1.0  0.6865800314366837  0.0797908861757008  0.532368220497929  1.0000
  O   O6        1.0  0.26202334434645286  0.07582300560306982  0.4720312508553732  1.0000
  O   O7        1.0  0.35193373598639255  0.8373264097326683  0.39536957690621216  1.0000
  O   O8        1.0  0.6350107666683087  0.8339887844209815  0.5921607425053919  1.0000
  O   O9        1.0  0.8272913208359115  0.5933207563929345  0.9394563309676225  1.0000
  O   O10       1.0  0.8044444701423075  0.5930790069187424  0.08323524560005069  1.0000
  O   O11       1.0  0.48999284018341893  0.4346706315414579  0.39441302496472724  1.0000
  O   O12       1.0  0.552563528280885  0.5591801926901497  0.6002435995259389  1.0000
  O   O13       1.0  0.4266910769581216  0.5537275966570405  0.39196945249453546  1.0000
  O   O14       1.0  0.666731675359685  0.44289687722882576  0.5063483258121904  1.0000
  O   O15       1.0  0.30348375097049995  0.444121196960772  0.4981192307364991  1.0000
  O   O16       1.0  0.6530215295870506  0.5557263889241568  0.45783111049586  1.0000
  O   O17       1.0  0.3032125002340464  0.5611969150428707  0.5364238070979681  1.0000
  O   O18       1.0  0.8628708488252457  0.6323477770409269  0.46233095387782425  1.0000
