data_image0
_chemical_formula_structural       Zn16H8C96S16O52F24
_chemical_formula_sum              "Zn16 H8 C96 S16 O52 F24"
_cell_length_a       19.688140012115465
_cell_length_b       19.755790078808836
_cell_length_c       33.40571778171165
_cell_angle_alpha    78.97990629070543
_cell_angle_beta     79.17188931025342
_cell_angle_gamma    63.915664560442245

_space_group_name_H-M_alt    "P 1"
_space_group_IT_number       1

loop_
  _space_group_symop_operation_xyz
  'x, y, z'

loop_
  _atom_site_type_symbol
  _atom_site_label
  _atom_site_symmetry_multiplicity
  _atom_site_fract_x
  _atom_site_fract_y
  _atom_site_fract_z
  _atom_site_occupancy
  Zn  Zn1       1.0  0.0550784667041597  0.4011366906862721  0.4781395387911117  1.0000
  Zn  Zn2       1.0  0.9844233284751811  0.4835930145558364  0.5605086950249287  1.0000
  Zn  Zn3       1.0  0.059505630509363486  0.5605217926262258  0.4826053492298569  1.0000
  Zn  Zn4       1.0  0.9007688601128194  0.5553018075793617  0.47900220523636966  1.0000
  Zn  Zn5       1.0  0.6948012792272921  0.34876919575671667  0.2719810928930712  1.0000
  Zn  Zn6       1.0  0.6900850161379141  0.18907031134706637  0.26639255574063003  1.0000
  Zn  Zn7       1.0  0.7678695347611254  0.26677135767546656  0.18990042171139979  1.0000
  Zn  Zn8       1.0  0.848486168581779  0.19453063514970398  0.2717403046306259  1.0000
  Zn  Zn9       1.0  0.26576426528824015  0.7661877282581601  0.6895599427185033  1.0000
  Zn  Zn10      1.0  0.34916462718589253  0.696125740388567  0.7717074477370003  1.0000
  Zn  Zn11      1.0  0.1934112003999644  0.8487689776439569  0.7712294506124948  1.0000
  Zn  Zn12      1.0  0.19054861705977538  0.6892914002795011  0.7674372792345706  1.0000
  Zn  Zn13      1.0  0.5596078962400952  0.061193494784539774  0.983641261347138  1.0000
  Zn  Zn14      1.0  0.40151311201037027  0.05407224512200067  0.9775058857884031  1.0000
  Zn  Zn15      1.0  0.5564382662675982  0.901224532428209  0.9787832867479123  1.0000
  Zn  Zn16      1.0  0.4821163675723028  0.9832745850129924  0.06011850779312064  1.0000
  H   H1        1.0  0.7487979855398662  0.4517374641753807  0.3501075456423662  1.0000
  H   H2        1.0  0.0010690344035709002  0.29858549553731006  0.399894232098056  1.0000
  H   H3        1.0  0.20050700422581968  0.7004304418852954  0.5992419443592921  1.0000
  H   H4        1.0  0.04957843568488579  0.5496642794090576  0.6507092821480072  1.0000
  H   H5        1.0  0.6507520250881809  0.15092378465421066  0.04947119967807372  1.0000
  H   H6        1.0  0.5993699455382425  0.09897084769427529  0.20053139987904695  1.0000
  H   H7        1.0  0.29888438308437765  0.000515342391104069  0.8997007884952379  1.0000
  H   H8        1.0  0.4512503163725938  0.7492742001447396  0.8501130890596257  1.0000
  C   C1        1.0  0.061456531620876796  0.31670889339881814  0.5615928480534221  1.0000
  C   C2        1.0  0.06968024498200259  0.569810887885737  0.5686393134026771  1.0000
  C   C3        1.0  0.183431905110055  0.43933974020534095  0.4385346333675527  1.0000
  C   C4        1.0  0.9374749375511725  0.6836882920545265  0.4387012805187992  1.0000
  C   C5        1.0  0.9303483029384124  0.43114877484675423  0.43105127881688077  1.0000
  C   C6        1.0  0.816927435733362  0.5611213422196714  0.5620452512915718  1.0000
  C   C7        1.0  0.5664442295860113  0.3103962058685854  0.31117962362070267  1.0000
  C   C8        1.0  0.6817028358172335  0.18068738258988779  0.18051344975665976  1.0000
  C   C9        1.0  0.68937036900234  0.43331367803369153  0.18857008937314387  1.0000
  C   C10       1.0  0.9343905270067836  0.18843678583363047  0.18912814748336604  1.0000
  C   C11       1.0  0.8192993501042524  0.3190267511070887  0.319180010919375  1.0000
  C   C12       1.0  0.8117527200873481  0.06603756690530109  0.31119911730939254  1.0000
  C   C13       1.0  0.43304158325049247  0.6893185558324078  0.6882960725970477  1.0000
  C   C14       1.0  0.3181613787677833  0.8202699965547283  0.8189587152223154  1.0000
  C   C15       1.0  0.1884565067218347  0.9330867918815288  0.6881224470236446  1.0000
  C   C16       1.0  0.0660125137839032  0.8103999904251611  0.811301352816443  1.0000
  C   C17       1.0  0.1803750262597674  0.6802276304584468  0.6813399009260763  1.0000
  C   C18       1.0  0.3128323572623231  0.5667508569235196  0.8115552602878253  1.0000
  C   C19       1.0  0.4378712022450556  0.18363009864485502  0.9385979565610113  1.0000
  C   C20       1.0  0.43211141028168487  0.9295475388991009  0.9307825407504351  1.0000
  C   C21       1.0  0.6837305270870148  0.9401209369624656  0.9390270591841273  1.0000
  C   C22       1.0  0.5611046896683476  0.8165876489814039  0.061763702137085416  1.0000
  C   C23       1.0  0.5684715827631308  0.06914831557686804  0.06948453280408272  1.0000
  C   C24       1.0  0.3156435938120339  0.061188106009737536  0.06051897636110941  1.0000
  C   C25       1.0  0.9005118266057293  0.40390615723564605  0.40230962661992453  1.0000
  C   C26       1.0  0.8493006066038263  0.3464264479606386  0.34774739129082377  1.0000
  C   C27       1.0  0.8292370288952853  0.4457797432614968  0.3875071774508072  1.0000
  C   C28       1.0  0.9206495205836589  0.3045791682313351  0.362493122801389  1.0000
  C   C29       1.0  0.8042542093330596  0.41787806428237684  0.3609507181579801  1.0000
  C   C30       1.0  0.9456215246927897  0.3324853707044469  0.38904876211683603  1.0000
  C   C31       1.0  0.0987825343389659  0.5989337611017264  0.5967692976357881  1.0000
  C   C32       1.0  0.1512841176817687  0.6511532836069378  0.6531883987691032  1.0000
  C   C33       1.0  0.1417446874437971  0.6418936447589232  0.583253252597764  1.0000
  C   C34       1.0  0.10832879344704337  0.6081988168813341  0.6667019126692252  1.0000
  C   C35       1.0  0.1673671702635389  0.6673485445692509  0.610692765113555  1.0000
  C   C36       1.0  0.08270346174798249  0.5827456171002795  0.6392628220734266  1.0000
  C   C37       1.0  0.30455026310140454  0.45259512540234687  0.4006549871455434  1.0000
  C   C38       1.0  0.44533003136755406  0.2971558873529931  0.3491778086166163  1.0000
  C   C39       1.0  0.2581594350091123  0.4143471019997591  0.41378459527839334  1.0000
  C   C40       1.0  0.4917830248746498  0.33532241746819846  0.3360396132553091  1.0000
  C   C41       1.0  0.37698568483835254  0.3393141908849629  0.3727634418972414  1.0000
  C   C42       1.0  0.37296341179219883  0.4103989998573284  0.377102560875869  1.0000
  C   C43       1.0  0.7249623783350998  0.5767358666986343  0.6291391806570416  1.0000
  C   C44       1.0  0.5249670646297842  0.6732177972316935  0.6211543310135994  1.0000
  C   C45       1.0  0.7422202407870769  0.585829993221431  0.5867876768449917  1.0000
  C   C46       1.0  0.5077351118927352  0.6642697512211554  0.6635259381425981  1.0000
  C   C47       1.0  0.6039715171116525  0.6415412638864242  0.6082538306335009  1.0000
  C   C48       1.0  0.6459558250092031  0.6083688420229266  0.6420030704604969  1.0000
  C   C49       1.0  0.07720985095755852  0.2245508362450011  0.6287603843724767  1.0000
  C   C50       1.0  0.1732469241820809  0.025210734147641724  0.6209926110151683  1.0000
  C   C51       1.0  0.08622153521623231  0.24204437566096706  0.5863909170867032  1.0000
  C   C52       1.0  0.16410208004747057  0.007753877313923922  0.6633473479758436  1.0000
  C   C53       1.0  0.1417886321804431  0.10406041485152433  0.6080343647810976  1.0000
  C   C54       1.0  0.10868515862528479  0.14569694047173706  0.641738202818864  1.0000
  C   C55       1.0  0.8445976169809057  0.8012093755564325  0.39728818921911824  1.0000
  C   C56       1.0  0.9045702279093106  0.9487219127956196  0.3527846767409385  1.0000
  C   C57       1.0  0.9127346128271084  0.7582505293300984  0.4138815070568428  1.0000
  C   C58       1.0  0.836427834146143  0.991585155082447  0.33614045159905004  1.0000
  C   C59       1.0  0.908209182559332  0.879153304274908  0.3751151333940186  1.0000
  C   C60       1.0  0.8410237010989406  0.8707072808015044  0.37493537814631833  1.0000
  C   C61       1.0  0.6534346796010695  0.15280612678849792  0.1513131326457895  1.0000
  C   C62       1.0  0.5967340402438949  0.09705004506788144  0.09867843489877258  1.0000
  C   C63       1.0  0.6668740961120889  0.1664544440851616  0.1082754899307758  1.0000
  C   C64       1.0  0.5832501800442244  0.08344604575170694  0.14171514180876693  1.0000
  C   C65       1.0  0.639309593701995  0.1393471416004387  0.0826228226901264  1.0000
  C   C66       1.0  0.6108380284317079  0.11052290959197833  0.16737639641779367  1.0000
  C   C67       1.0  0.6732676447062715  0.5252361423124728  0.12133033196231928  1.0000
  C   C68       1.0  0.5766784782918605  0.7246126130729139  0.1289405267037225  1.0000
  C   C69       1.0  0.6642198465212203  0.5079002111267529  0.16371428676544034  1.0000
  C   C70       1.0  0.5858889106662699  0.7419808774566478  0.08657760925503058  1.0000
  C   C71       1.0  0.6083328891548517  0.645791278557994  0.14194984587560808  1.0000
  C   C72       1.0  0.6416178657815051  0.6040671823290682  0.10829130793162278  1.0000
  C   C73       1.0  0.08095279682424208  0.12463103575604616  0.1768407558636014  1.0000
  C   C74       1.0  0.1690709969825335  0.12509634063201258  0.07289675494143207  1.0000
  C   C75       1.0  0.008841191674541398  0.1635087744182186  0.16419499625323647  1.0000
  C   C76       1.0  0.24120657929601913  0.0862859059905433  0.08548793771961978  1.0000
  C   C77       1.0  0.11023871001965801  0.13938860188807214  0.10593126063213987  1.0000
  C   C78       1.0  0.13983514887457457  0.11033171556510274  0.14381267267928166  1.0000
  C   C79       1.0  0.3458336739112511  0.8497780574456186  0.8476439571607272  1.0000
  C   C80       1.0  0.40434963095911064  0.9000020100126349  0.9021601981120211  1.0000
  C   C81       1.0  0.3041871603844157  0.9207692740464355  0.8623612367859436  1.0000
  C   C82       1.0  0.4459773362167495  0.8290216867337751  0.8874476554612868  1.0000
  C   C83       1.0  0.3325901263677054  0.9452860444754664  0.8888950483794245  1.0000
  C   C84       1.0  0.417578925753176  0.8045087085859353  0.8609111384420131  1.0000
  C   C85       1.0  0.4055706916100235  0.4488579116292114  0.8529966174252692  1.0000
  C   C86       1.0  0.3452005131017799  0.3014119790097213  0.8970467815608173  1.0000
  C   C87       1.0  0.3375988036111011  0.4920189549233955  0.8362860158504688  1.0000
  C   C88       1.0  0.41318474208338785  0.25829847022658475  0.9137930467420501  1.0000
  C   C89       1.0  0.3417551673565669  0.3710154215625038  0.8748391038638202  1.0000
  C   C90       1.0  0.4089658480696201  0.37929946138378773  0.8752206721804611  1.0000
  C   C91       1.0  0.9449156816564183  0.7973538823232436  0.849373457218938  1.0000
  C   C92       1.0  0.8047048042909636  0.9531827722134598  0.9007250244959406  1.0000
  C   C93       1.0  0.9914368480176633  0.8354203734362002  0.8361337582001835  1.0000
  C   C94       1.0  0.7581543576500707  0.9151913504546841  0.9140141557527952  1.0000
  C   C95       1.0  0.8728947247508427  0.9108249383634406  0.8771154257508087  1.0000
  C   C96       1.0  0.8766297048095949  0.8397653053862302  0.8729238344907343  1.0000
  S   S1        1.0  0.29841042599271356  0.324873693695402  0.3971734264022188  1.0000
  S   S2        1.0  0.4515842384985048  0.4247765501571337  0.35270620807581565  1.0000
  S   S3        1.0  0.6605837656778846  0.6338959292339512  0.5618133510533311  1.0000
  S   S4        1.0  0.5894059733417052  0.6161539796501857  0.6884445200727284  1.0000
  S   S5        1.0  0.1341325229074286  0.1607884081890845  0.5615450181092427  1.0000
  S   S6        1.0  0.1162291951246175  0.08895704930806403  0.6882239383315323  1.0000
  S   S7        1.0  0.9741987731350147  0.8031753579078612  0.4021272098432859  1.0000
  S   S8        1.0  0.7750851555178002  0.9465647576611218  0.3478489434133891  1.0000
  S   S9        1.0  0.6159545341628743  0.5892153540925096  0.18847446431702503  1.0000
  S   S10       1.0  0.6341372596542101  0.6606944218586436  0.06177032615033802  1.0000
  S   S11       1.0  0.0123124538876667  0.18327083858364554  0.11091910048045148  1.0000
  S   S12       1.0  0.23778755403580476  0.06655795902449313  0.13878526686187337  1.0000
  S   S13       1.0  0.276049500176498  0.44718572233669124  0.8477503297552785  1.0000
  S   S14       1.0  0.4746593770533565  0.3032065902226507  0.902335208136172  1.0000
  S   S15       1.0  0.9515293342557101  0.9249966799706898  0.8525886529460464  1.0000
  S   S16       1.0  0.7979522343877646  0.8256621620650936  0.8974785715199545  1.0000
  O   O1        1.0  0.0003234250815679999  0.49930262497769456  0.5000974258445794  1.0000
  O   O2        1.0  0.07700543330903997  0.3158158803613277  0.5226243416247484  1.0000
  O   O3        1.0  0.03216025617395251  0.5310858136198391  0.5859438516335159  1.0000
  O   O4        1.0  0.15570264377576848  0.5053293263863026  0.44975571919533747  1.0000
  O   O5        1.0  0.027245389620709708  0.37481662433778246  0.5808341983904909  1.0000
  O   O6        1.0  0.15327961611954782  0.3917468188977723  0.4464066361220843  1.0000
  O   O7        1.0  0.08443117040757639  0.5857559230760714  0.5302505272005434  1.0000
  O   O8        1.0  0.0043888405732133  0.6568633419154253  0.44959334092952463  1.0000
  O   O9        1.0  0.8876903567010713  0.49570251089286205  0.4428942162731601  1.0000
  O   O10       1.0  0.8908879676196834  0.6527491120269815  0.4470816489471189  1.0000
  O   O11       1.0  0.9965967551475287  0.3866288477746951  0.44122676332134597  1.0000
  O   O12       1.0  0.8755406542437497  0.5265788563458502  0.5811886072806941  1.0000
  O   O13       1.0  0.8155625579167918  0.5771184370842162  0.5231070334694508  1.0000
  O   O14       1.0  0.7492754549550609  0.2503949890371615  0.2502207589673517  1.0000
  O   O15       1.0  0.5967718614168973  0.3578153167408971  0.3037225632821503  1.0000
  O   O16       1.0  0.6645097119903625  0.1634256952670868  0.2187229847551464  1.0000
  O   O17       1.0  0.7250089898129559  0.37525436577085  0.1693836340602957  1.0000
  O   O18       1.0  0.5938735151380355  0.24478685993140223  0.2994563575470366  1.0000
  O   O19       1.0  0.6728314588670798  0.4341643172376593  0.22751943663450894  1.0000
  O   O20       1.0  0.7201406304604275  0.21888155516883526  0.16509513842186863  1.0000
  O   O21       1.0  0.8765493177612099  0.22392733799507186  0.16907608963337142  1.0000
  O   O22       1.0  0.8614178454948058  0.25387373458835344  0.3079665182566558  1.0000
  O   O23       1.0  0.933935452796284  0.1727992878216613  0.22795991891599948  1.0000
  O   O24       1.0  0.7534700245121755  0.3639104439485124  0.30856150967206725  1.0000
  O   O25       1.0  0.745418546300769  0.09244826125409143  0.2995492050375788  1.0000
  O   O26       1.0  0.8580322426265851  0.0972642190579054  0.3034704823597281  1.0000
  O   O27       1.0  0.2501666929710353  0.7500832978694519  0.7499573384862899  1.0000
  O   O28       1.0  0.3745590907313029  0.7234068902670291  0.6690398216125358  1.0000
  O   O29       1.0  0.3635131367007034  0.7550534452396535  0.8081414079235713  1.0000
  O   O30       1.0  0.1720676449247023  0.9341238515406904  0.7270458820409401  1.0000
  O   O31       1.0  0.4342748727349601  0.6741336081609643  0.727282013525979  1.0000
  O   O32       1.0  0.22308571591936038  0.8748797325608282  0.668981370826458  1.0000
  O   O33       1.0  0.25250186536548813  0.8620066157447185  0.8078442642924342  1.0000
  O   O34       1.0  0.0956378839320706  0.8584171085135072  0.803056219338387  1.0000
  O   O35       1.0  0.16550510032418939  0.6643364051414409  0.719727608778342  1.0000
  O   O36       1.0  0.0942443286092995  0.7441163032521559  0.8003627559029594  1.0000
  O   O37       1.0  0.2180202885589821  0.7188305904884301  0.6640624031382245  1.0000
  O   O38       1.0  0.3588455083423837  0.598361205690594  0.8036760583736748  1.0000
  O   O39       1.0  0.24629248795516648  0.5929645608938188  0.8002611559083519  1.0000
  O   O40       1.0  0.5000631330561233  0.00020243678046236188  0.9997870757439812  1.0000
  O   O41       1.0  0.5038713496499129  0.1577160602885428  0.95057242661354  1.0000
  O   O42       1.0  0.3873361558903737  0.995392032149887  0.9409369033598123  1.0000
  O   O43       1.0  0.6539006453880418  0.8922945474902163  0.9468968761243843  1.0000
  O   O44       1.0  0.3921255323495174  0.15177602251183947  0.9458486138089696  1.0000
  O   O45       1.0  0.6559475589044084  0.0059723228759410996  0.9504985174570634  1.0000
  O   O46       1.0  0.49715571239925527  0.8872421175583372  0.9425378955271667  1.0000
  O   O47       1.0  0.5785647941497416  0.8156510637329221  0.022877782993660417  1.0000
  O   O48       1.0  0.5301340518635695  0.03086175632923034  0.0849077851045692  1.0000
  O   O49       1.0  0.5249603701443207  0.8747649307977953  0.08084147435661748  1.0000
  O   O50       1.0  0.5855917443661197  0.08650331817302266  0.0312735814638714  1.0000
  O   O51       1.0  0.3162076360479418  0.07591060309938061  0.0216400306764584  1.0000
  O   O52       1.0  0.373393580379492  0.02642279462233436  0.08066880639364632  1.0000
  F   F1        1.0  0.7818810546548461  0.5153172652214342  0.3986065838009408  1.0000
  F   F2        1.0  0.9680414040440156  0.23511992890639272  0.3513399363069992  1.0000
  F   F3        1.0  0.15992115194003986  0.6601451159242445  0.5427763019912746  1.0000
  F   F4        1.0  0.0901620474918445  0.58992375479842  0.7071750059701356  1.0000
  F   F5        1.0  0.7073849975084556  0.20677898565879366  0.09006587677918533  1.0000
  F   F6        1.0  0.542629289234732  0.04324160088984288  0.15992411885575558  1.0000
  F   F7        1.0  0.23445250165831055  0.968295169866174  0.8511222191783357  1.0000
  F   F8        1.0  0.5157918264159206  0.7815648023046292  0.8986031035729524  1.0000
  F   F9        1.0  0.2877673335537878  0.5224001834358062  0.4089986205923281  1.0000
  F   F10       1.0  0.4620669150639145  0.22733200077011173  0.3408277583242594  1.0000
  F   F11       1.0  0.7767722975796473  0.5417815859959281  0.6558667874537533  1.0000
  F   F12       1.0  0.4731667498379153  0.7082045610290422  0.5944343978933944  1.0000
  F   F13       1.0  0.042344470326710786  0.27599469563849516  0.6554448419114108  1.0000
  F   F14       1.0  0.2080851359171447  0.973706077865735  0.594350585346909  1.0000
  F   F15       1.0  0.7870527547406637  0.7803763983927396  0.4015228625439348  1.0000
  F   F16       1.0  0.9620202953341702  0.9696499416837271  0.3486145262465924  1.0000
  F   F17       1.0  0.7082211213875382  0.4737068648323375  0.09471722915962028  1.0000
  F   F18       1.0  0.541675465549268  0.7761299662305063  0.15556838819639296  1.0000
  F   F19       1.0  0.09498597658134142  0.10230511974209117  0.2161100377217906  1.0000
  F   F20       1.0  0.1549347526336504  0.1474740498837619  0.0336263850085601  1.0000
  F   F21       1.0  0.4631234764626129  0.469662249812771  0.8489701796953851  1.0000
  F   F22       1.0  0.2876008536782564  0.28069231084586493  0.9011037494252107  1.0000
  F   F23       1.0  0.9615595966747676  0.7275423983693512  0.8410866086055433  1.0000
  F   F24       1.0  0.7881836043992364  0.022992558395749648  0.9090138278232088  1.0000
