data_image0
_chemical_formula_structural       Co8H48C48N32
_chemical_formula_sum              "Co8 H48 C48 N32"
_cell_length_a       9.82516963369561
_cell_length_b       14.801098554764112
_cell_length_c       15.067577970015252
_cell_angle_alpha    89.99989632291515
_cell_angle_beta     89.99989168701545
_cell_angle_gamma    98.91871689853448

_space_group_name_H-M_alt    "P 1"
_space_group_IT_number       1

loop_
  _space_group_symop_operation_xyz
  'x, y, z'

loop_
  _atom_site_type_symbol
  _atom_site_label
  _atom_site_symmetry_multiplicity
  _atom_site_fract_x
  _atom_site_fract_y
  _atom_site_fract_z
  _atom_site_occupancy
  Co  Co1       1.0  0.5492555705733649  0.7648477826742451  0.9231314227554959  1.0000
  Co  Co2       1.0  0.04925818129454029  0.2648489738572621  0.5768674987573519  1.0000
  Co  Co3       1.0  0.4507422203845833  0.23515154661244972  0.0768665448030248  1.0000
  Co  Co4       1.0  0.9507438407985019  0.7351510375987759  0.4231317961512886  1.0000
  Co  Co5       1.0  0.08635605963317518  0.9188635621270508  0.7749392099551926  1.0000
  Co  Co6       1.0  0.586357390594287  0.41886444927467187  0.7250600572127508  1.0000
  Co  Co7       1.0  0.9136422124137551  0.081137818839963  0.22506074863123618  1.0000
  Co  Co8       1.0  0.4136458095550637  0.5811362456439609  0.2749399013712264  1.0000
  H   H1        1.0  0.7892571174760973  0.8005934673157288  0.7835540650831234  1.0000
  H   H2        1.0  0.2892601118047509  0.30059366663098797  0.7164451591233316  1.0000
  H   H3        1.0  0.210740457610278  0.19940928187338613  0.21644323879583985  1.0000
  H   H4        1.0  0.7107403559917884  0.6994083973677834  0.28355546313780877  1.0000
  H   H5        1.0  0.7922846150722692  0.8516056105497047  0.0590805811093347  1.0000
  H   H6        1.0  0.2922934347997881  0.3516073643630194  0.4409170871721741  1.0000
  H   H7        1.0  0.20771151673587698  0.14839098359115613  0.9409173864526321  1.0000
  H   H8        1.0  0.7077148538172224  0.6483933284021437  0.5590822077319757  1.0000
  H   H9        1.0  0.048125032886552815  0.9219265634342053  0.9879157296784766  1.0000
  H   H10       1.0  0.548135444100154  0.4219244965008074  0.5120849068783713  1.0000
  H   H11       1.0  0.9518697049880841  0.07807276714282105  0.0120842289119523  1.0000
  H   H12       1.0  0.45187322074804115  0.5780734602531866  0.4879177064113165  1.0000
  H   H13       1.0  0.2382048656635334  0.791257325070312  0.8898979831127461  1.0000
  H   H14       1.0  0.7382065867910653  0.2912584655161297  0.6101013209401527  1.0000
  H   H15       1.0  0.7617934063822744  0.2087440558959699  0.11010263915035517  1.0000
  H   H16       1.0  0.26179238222430706  0.708741547233899  0.3898966466170321  1.0000
  H   H17       1.0  0.6089856047768691  0.970013936594903  0.8443049988689849  1.0000
  H   H18       1.0  0.1089871461324918  0.47001153461541645  0.6557001229798016  1.0000
  H   H19       1.0  0.39101384532186495  0.02998812783178551  0.1556982780994716  1.0000
  H   H20       1.0  0.8910152521973698  0.5299857408331052  0.34429917193102  1.0000
  H   H21       1.0  0.3898654825130378  0.0477087018129154  0.7772301390016378  1.0000
  H   H22       1.0  0.8898662841613855  0.5477065830203786  0.7227727253009772  1.0000
  H   H23       1.0  0.6101365395788819  0.952291309642398  0.222769819583668  1.0000
  H   H24       1.0  0.1101369714920253  0.45229000809947456  0.27722988799327913  1.0000
  H   H25       1.0  0.4921235810774788  0.5917723785892195  0.0641574596547301  1.0000
  H   H26       1.0  0.9921228027207644  0.09177553774156172  0.4358424104886182  1.0000
  H   H27       1.0  0.5078777995613278  0.4082248972916035  0.9358405079033786  1.0000
  H   H28       1.0  0.007879379735271667  0.9082251576079162  0.5641575480959843  1.0000
  H   H29       1.0  0.4559514735741245  0.8713640044748419  0.0814871604893384  1.0000
  H   H30       1.0  0.9559419710316841  0.37136446968170134  0.418512260820222  1.0000
  H   H31       1.0  0.5440503881604214  0.12863532309068404  0.9185088160366417  1.0000
  H   H32       1.0  0.044052927203694026  0.6286355447873009  0.5814896887995216  1.0000
  H   H33       1.0  0.4000786389006805  0.7899672651345143  0.2462317272840551  1.0000
  H   H34       1.0  0.9000663216864948  0.28996672684000674  0.2537685707865975  1.0000
  H   H35       1.0  0.5999274539701034  0.21003274460109372  0.753764912915372  1.0000
  H   H36       1.0  0.09992873691413709  0.710033971523899  0.7462327151557702  1.0000
  H   H37       1.0  0.6575268793299216  0.5754245282576491  0.8784554639789732  1.0000
  H   H38       1.0  0.15752558837471037  0.07542699051242611  0.6215449850202504  1.0000
  H   H39       1.0  0.3424729470101369  0.42457480016444293  0.12154515828497378  1.0000
  H   H40       1.0  0.8424740220881403  0.9245757578084268  0.37845829194750275  1.0000
  H   H41       1.0  0.36634417384429696  0.7116297175727625  0.7499577655850798  1.0000
  H   H42       1.0  0.8663408681467787  0.21162849971313602  0.7500455021177712  1.0000
  H   H43       1.0  0.6336536171091395  0.288369611711012  0.2500428566801247  1.0000
  H   H44       1.0  0.13365552887653107  0.7883735660089927  0.2499551201458914  1.0000
  H   H45       1.0  0.39041004182020334  0.5523412821020701  0.6579470848636788  1.0000
  H   H46       1.0  0.8904108153446086  0.05234122757381239  0.8420551069038992  1.0000
  H   H47       1.0  0.6095860899811781  0.4476553120344066  0.3420548647583174  1.0000
  H   H48       1.0  0.10958252860103107  0.9476608394423071  0.15794418800830803  1.0000
  C   C1        1.0  0.8249823024354936  0.8241264006280319  0.8490204164005988  1.0000
  C   C2        1.0  0.324987233614543  0.32412537554155574  0.6509780582343578  1.0000
  C   C3        1.0  0.17501511228675776  0.1758756646669184  0.1509768874790751  1.0000
  C   C4        1.0  0.6750158061695543  0.675874635482181  0.3490225640269954  1.0000
  C   C5        1.0  0.8292864975306953  0.8516415832049944  0.9912774930164616  1.0000
  C   C6        1.0  0.3292971603531995  0.35164155330321745  0.5087229187128841  1.0000
  C   C7        1.0  0.17070604459433267  0.14835706434027432  0.0087218018992701  1.0000
  C   C8        1.0  0.6707099502018748  0.6483584559956981  0.4912790308992854  1.0000
  C   C9        1.0  0.9561494830179809  0.8863612294896162  0.9561741971096964  1.0000
  C   C10       1.0  0.45615633216382884  0.38635838795717364  0.5438266595428374  1.0000
  C   C11       1.0  0.0438476109726409  0.11363946801479592  0.0438250978013954  1.0000
  C   C12       1.0  0.5438502972977586  0.6136395696584956  0.4561759537481151  1.0000
  C   C13       1.0  0.3097230636396374  0.8503569602145122  0.8677509960109617  1.0000
  C   C14       1.0  0.8097250858347564  0.3503553158525251  0.6322501059500638  1.0000
  C   C15       1.0  0.6902763864636015  0.14964510421510374  0.1322496262508039  1.0000
  C   C16       1.0  0.19027731249398275  0.6496419595952648  0.3677498526374308  1.0000
  C   C17       1.0  0.49944664351153983  0.9442448469790039  0.8433918704945284  1.0000
  C   C18       1.0  0.9994489037592232  0.4442445167318497  0.6566101575596263  1.0000
  C   C19       1.0  0.5005574139636123  0.05575516361243161  0.15661007911953817  1.0000
  C   C20       1.0  0.0005497445279018685  0.5557541282298358  0.3433878099989656  1.0000
  C   C21       1.0  0.39092024408807896  0.982397775082042  0.8095948333145202  1.0000
  C   C22       1.0  0.8909191761843828  0.4823966877646129  0.6904079257338082  1.0000
  C   C23       1.0  0.6090800633432137  0.0176036050218258  0.1904064526239893  1.0000
  C   C24       1.0  0.10908322214772434  0.5176005876853723  0.30959004182366806  1.0000
  C   C25       1.0  0.4741106169190273  0.6568801673399279  0.0912314394967098  1.0000
  C   C26       1.0  0.9741067170066626  0.1568827035450795  0.40876833803002194  1.0000
  C   C27       1.0  0.5258893697885298  0.3431198449785243  0.9087671917365227  1.0000
  C   C28       1.0  0.02589139467614398  0.843117993527763  0.5912316205571102  1.0000
  C   C29       1.0  0.454238830202712  0.8010793974184126  0.1022848594761001  1.0000
  C   C30       1.0  0.9542297189761721  0.3010812762395006  0.39771402439716746  1.0000
  C   C31       1.0  0.5457637284969009  0.19891856192793267  0.8977111170506618  1.0000
  C   C32       1.0  0.04576619695589565  0.6989187378008526  0.6022859341919258  1.0000
  C   C33       1.0  0.4269232226071295  0.760630411914079  0.1839005508621128  1.0000
  C   C34       1.0  0.9269145487467654  0.2606331544605993  0.3160977746634829  1.0000
  C   C35       1.0  0.5730805141499147  0.23936823089559317  0.8160954256633061  1.0000
  C   C36       1.0  0.07308067021912024  0.7393682277982025  0.6839028476015157  1.0000
  C   C37       1.0  0.5803898291166547  0.5903580337087391  0.8312667599377831  1.0000
  C   C38       1.0  0.0803892353346498  0.09035970766435504  0.6687330947466846  1.0000
  C   C39       1.0  0.41960881916821785  0.40964061125148993  0.1687325349741542  1.0000
  C   C40       1.0  0.9196105354934473  0.9096437245514013  0.331269518543685  1.0000
  C   C41       1.0  0.42945859634130557  0.6593004042465723  0.7636633595750693  1.0000
  C   C42       1.0  0.9294569963144281  0.15930195173437067  0.7363372674967437  1.0000
  C   C43       1.0  0.5705407489097565  0.3406968724952081  0.2363352716609697  1.0000
  C   C44       1.0  0.07053752568752  0.8407007987443437  0.26366269109080054  1.0000
  C   C45       1.0  0.44176030348562995  0.5806266148155361  0.7177243858579274  1.0000
  C   C46       1.0  0.9417594048711563  0.08062737675628992  0.7822770285543754  1.0000
  C   C47       1.0  0.5582400039422807  0.4193747652861363  0.2822788911106001  1.0000
  C   C48       1.0  0.05823581409472209  0.9193740055025117  0.2177235937106232  1.0000
  N   N1        1.0  0.7465552464798363  0.8123037230003052  0.922865124076722  1.0000
  N   N2        1.0  0.24655957095500713  0.31230354494617546  0.5771341324462184  1.0000
  N   N3        1.0  0.2534416871466688  0.1876962906099422  0.0771341708350732  1.0000
  N   N4        1.0  0.7534436291943365  0.6876971499724649  0.4228658261377588  1.0000
  N   N5        1.0  0.9525243267237327  0.8690039066252455  0.8659181693731453  1.0000
  N   N6        1.0  0.4525311902738737  0.3690022340139479  0.6340813950755758  1.0000
  N   N7        1.0  0.0474719099388352  0.1309974752049072  0.13408046186120257  1.0000
  N   N8        1.0  0.547474581859653  0.6309964079274623  0.3659205545386327  1.0000
  N   N9        1.0  0.44712424523628164  0.8603140344096761  0.8799114496150438  1.0000
  N   N10       1.0  0.9471242733127949  0.3603124177007971  0.620092118945351  1.0000
  N   N11       1.0  0.5528752048635751  0.13968803001773725  0.1200911636767401  1.0000
  N   N12       1.0  0.052874054244959716  0.6396848594718209  0.3799065122913206  1.0000
  N   N13       1.0  0.2708964563243441  0.9223754984677017  0.8250732281317354  1.0000
  N   N14       1.0  0.7708956013209017  0.42237512915119174  0.674927794838375  1.0000
  N   N15       1.0  0.7291047084383918  0.07762519731261361  0.1749267304535067  1.0000
  N   N16       1.0  0.22910593967864654  0.577622830621607  0.3250721637490415  1.0000
  N   N17       1.0  0.484370323261004  0.7349542490960419  0.04377051803675869  1.0000
  N   N18       1.0  0.9843662622668886  0.2349566807260217  0.4562297725618975  1.0000
  N   N19       1.0  0.515630039685618  0.26504302721635753  0.9562267858453096  1.0000
  N   N20       1.0  0.01563168905067165  0.7650433324519172  0.5437708497026106  1.0000
  N   N21       1.0  0.43932209414275997  0.669050174812533  0.17648602825148876  1.0000
  N   N22       1.0  0.9393149494083559  0.16905084847547164  0.3235144346396055  1.0000
  N   N23       1.0  0.5606829810335866  0.3309498353531809  0.8235112756252433  1.0000
  N   N24       1.0  0.0606821445800207  0.8309498490274835  0.6764861876248318  1.0000
  N   N25       1.0  0.517497767658412  0.6650562118441672  0.8358991961790422  1.0000
  N   N26       1.0  0.017497349961843205  0.16505857990031816  0.664101268324842  1.0000
  N   N27       1.0  0.4825000232961471  0.3349431174403322  0.1641007624094968  1.0000
  N   N28       1.0  0.9825024208662541  0.834944852315438  0.335901344965535  1.0000
  N   N29       1.0  0.5376876536636812  0.5370360401782934  0.7608421108368049  1.0000
  N   N30       1.0  0.03768783855454669  0.0370375585296898  0.739158554682497  1.0000
  N   N31       1.0  0.46231201231337576  0.46296260435035924  0.2391578477511729  1.0000
  N   N32       1.0  0.9623083981035163  0.9629638232975426  0.2608427312585349  1.0000
