data_image0
_chemical_formula_structural       Cd8H120C184N16O24
_chemical_formula_sum              "Cd8 H120 C184 N16 O24"
_cell_length_a       18.83455023681657
_cell_length_b       18.834430723157745
_cell_length_c       18.83446094390977
_cell_angle_alpha    108.40357446490263
_cell_angle_beta     108.40337232314226
_cell_angle_gamma    111.62845319502284

_space_group_name_H-M_alt    "P 1"
_space_group_IT_number       1

loop_
  _space_group_symop_operation_xyz
  'x, y, z'

loop_
  _atom_site_type_symbol
  _atom_site_label
  _atom_site_symmetry_multiplicity
  _atom_site_fract_x
  _atom_site_fract_y
  _atom_site_fract_z
  _atom_site_occupancy
  Cd  Cd1       1.0  0.2721910925503935  0.2575374200991335  0.3936481775003813  1.0000
  Cd  Cd2       1.0  0.8638860235628557  0.8785446803694726  0.6063526098441658  1.0000
  Cd  Cd3       1.0  0.7424591162581394  0.13611315215201358  0.014656892810449981  1.0000
  Cd  Cd4       1.0  0.12145325083862714  0.7278021492106392  0.9853417157422372  1.0000
  Cd  Cd5       1.0  0.9778096894594344  0.8714588079560104  0.48534620915456383  1.0000
  Cd  Cd6       1.0  0.3861127879616433  0.4924645299249661  0.5146537942576828  1.0000
  Cd  Cd7       1.0  0.5075339421588085  0.022183078834501904  0.893646194383827  1.0000
  Cd  Cd8       1.0  0.1285355829352142  0.6138856159445539  0.1063518475504424  1.0000
  H   H1        1.0  0.2844044294743854  0.4759583080072648  0.6344765146291638  1.0000
  H   H2        1.0  0.1663725780246638  0.4313775033183234  0.6729484715105017  1.0000
  H   H3        1.0  0.03987507427915204  0.2782503898060824  0.59086652966068  1.0000
  H   H4        1.0  0.9697155901106742  0.12124479455881237  0.476331416503001  1.0000
  H   H5        1.0  0.9749523064646796  0.013714620475660437  0.36499973240842126  1.0000
  H   H6        1.0  0.16382494926916283  0.08937314290167113  0.313691088352016  1.0000
  H   H7        1.0  0.9785709976757392  0.937541120491865  0.2451872528584218  1.0000
  H   H8        1.0  0.9260258104056975  0.8119743948961117  0.11147469941781202  1.0000
  H   H9        1.0  0.9559364336334898  0.7256144965452835  0.007480840248213758  1.0000
  H   H10       1.0  0.21886204069262052  0.9196967494487539  0.13992721992897122  1.0000
  H   H11       1.0  0.20114053620067557  0.014933020818787722  0.2479201957586952  1.0000
  H   H12       1.0  0.4247357230487696  0.1709322714998792  0.5690302723548444  1.0000
  H   H13       1.0  0.5145710320459431  0.10630223406480618  0.6096471286026814  1.0000
  H   H14       1.0  0.48971467658265067  0.010813479768579284  0.35719748838815957  1.0000
  H   H15       1.0  0.39803200939734756  0.07362962620331359  0.3172694318410194  1.0000
  H   H16       1.0  0.8414798735623493  0.6499251948858814  0.3655204605723625  1.0000
  H   H17       1.0  0.7584275421613286  0.493420836710989  0.3270528832134262  1.0000
  H   H18       1.0  0.6873801276167342  0.44900376318771157  0.40913431147149043  1.0000
  H   H19       1.0  0.6449130246746437  0.49338587922669325  0.5236720419152477  1.0000
  H   H20       1.0  0.6487182750990358  0.6099539780760637  0.635007735398034  1.0000
  H   H21       1.0  0.7756809257876187  0.8501319105074358  0.6863094714763848  1.0000
  H   H22       1.0  0.6923517350920534  0.7333819335375082  0.754811192442972  1.0000
  H   H23       1.0  0.7005047474471625  0.8145483539344343  0.8885215159082733  1.0000
  H   H24       1.0  0.718144845385908  0.9484571801487225  0.9925201012272924  1.0000
  H   H25       1.0  0.7797749916123708  0.07893372413965252  0.8600717799751723  1.0000
  H   H26       1.0  0.7670101618331702  0.9532163935377584  0.7520769963980671  1.0000
  H   H27       1.0  0.6019000655890994  0.8557027158266451  0.43096161740459854  1.0000
  H   H28       1.0  0.4966593246781842  0.9049260828465724  0.39034518896549747  1.0000
  H   H29       1.0  0.6536116994729542  0.13251520817187418  0.6427921904602557  1.0000
  H   H30       1.0  0.7563505733711298  0.080758501818508  0.6827232947990894  1.0000
  H   H31       1.0  0.524044817396238  0.15852496572671274  0.8084468664523785  1.0000
  H   H32       1.0  0.568631134715119  0.2415776043958714  0.7349961679871554  1.0000
  H   H33       1.0  0.7217616614518009  0.3126260946566717  0.7616269620016567  1.0000
  H   H34       1.0  0.8787603469316212  0.3550859395376025  0.8484707596921198  1.0000
  H   H35       1.0  0.9862827224908983  0.3512781735655609  0.9612361586961597  1.0000
  H   H36       1.0  0.9106255042058109  0.2243163699616204  0.07445148347055411  1.0000
  H   H37       1.0  0.062456874526844806  0.30763645673457063  0.04102319576025341  1.0000
  H   H38       1.0  0.18801698982817075  0.29949749404445214  0.11404584506537672  1.0000
  H   H39       1.0  0.2743787213866682  0.28186259983527157  0.23031346156262344  1.0000
  H   H40       1.0  0.08029814174009432  0.22022078808654308  0.2991585586739518  1.0000
  H   H41       1.0  0.9850653824733014  0.23297471830129965  0.1862002984490585  1.0000
  H   H42       1.0  0.8290639144279197  0.3980980569709089  0.253806117394326  1.0000
  H   H43       1.0  0.89368692535475  0.503333911147415  0.4082703887601299  1.0000
  H   H44       1.0  0.9891781737736737  0.3463764038541298  0.4788986391531438  1.0000
  H   H45       1.0  0.9263695770120821  0.24363996657636747  0.3244005226973032  1.0000
  H   H46       1.0  0.35006768398902477  0.7155912944599339  0.1915497515857396  1.0000
  H   H47       1.0  0.50657338983536  0.8336280566531827  0.26500713837632633  1.0000
  H   H48       1.0  0.5509936533494938  0.960128492316848  0.23837678347012312  1.0000
  H   H49       1.0  0.5066170717882488  0.030283727902201477  0.15153107187741457  1.0000
  H   H50       1.0  0.3900506599389786  0.025048144279324364  0.03876030892890014  1.0000
  H   H51       1.0  0.14986682049191563  0.8361743010779535  0.9255456095523868  1.0000
  H   H52       1.0  0.2666198881863125  0.021429400973346457  0.9589682145428213  1.0000
  H   H53       1.0  0.18545158041438015  0.07397854645021347  0.8859558319757994  1.0000
  H   H54       1.0  0.05154767812659603  0.04406989628523658  0.7696873959683828  1.0000
  H   H55       1.0  0.9210662605256205  0.7811428634034102  0.70083810771402  1.0000
  H   H56       1.0  0.04678037527271796  0.798864074252258  0.8137952270782024  1.0000
  H   H57       1.0  0.14428792988383066  0.575256669652653  0.7461943845142827  1.0000
  H   H58       1.0  0.09506662543908106  0.4854152058126148  0.5917319898726702  1.0000
  H   H59       1.0  0.8674767316971953  0.5102774071649919  0.5210989663789506  1.0000
  H   H60       1.0  0.9192381037497841  0.6019683363892129  0.6755976236950617  1.0000
  H   H61       1.0  0.965607008171304  0.10008311970634029  0.6915530146185063  1.0000
  H   H62       1.0  0.08364877574269515  0.2565848581479174  0.7650149555925624  1.0000
  H   H63       1.0  0.21014900788375718  0.30100353823833365  0.7383852210103825  1.0000
  H   H64       1.0  0.28029986655261035  0.2566208708170592  0.6515274247413743  1.0000
  H   H65       1.0  0.27504931007433714  0.14004492195802956  0.5387543654779493  1.0000
  H   H66       1.0  0.08616767601225209  0.8998676662322822  0.42553075138052776  1.0000
  H   H67       1.0  0.2714209412469516  0.01661811985190556  0.4589495848675612  1.0000
  H   H68       1.0  0.32397243083968164  0.9354542862534957  0.3859354038893485  1.0000
  H   H69       1.0  0.2940555570140618  0.8015337761682064  0.26967453450976825  1.0000
  H   H70       1.0  0.03113364407467856  0.6710628544962206  0.2008375315313131  1.0000
  H   H71       1.0  0.048852420290693005  0.7967748421052647  0.3137974317828025  1.0000
  H   H72       1.0  0.8252618893636026  0.8942921859896061  0.24619874183753157  1.0000
  H   H73       1.0  0.7354447082341836  0.8450924772221173  0.09173531351126486  1.0000
  H   H74       1.0  0.7602787931911409  0.6174813906622276  0.021090785185577915  1.0000
  H   H75       1.0  0.8519724735517754  0.6692406285406136  0.1755870271210042  1.0000
  H   H76       1.0  0.40853117975468933  0.27405242262425134  0.3084519766908046  1.0000
  H   H77       1.0  0.491568008775161  0.31863149435062604  0.23498554294259574  1.0000
  H   H78       1.0  0.5626171063404045  0.4717609604238505  0.2616149196058048  1.0000
  H   H79       1.0  0.6050919103326678  0.6287698812430451  0.34847092235006033  1.0000
  H   H80       1.0  0.6012876857968835  0.7362930394021207  0.4612410752056135  1.0000
  H   H81       1.0  0.47434069767938797  0.6606373838505065  0.5744698613568744  1.0000
  H   H82       1.0  0.5576657359027452  0.8124706406967875  0.541050063535323  1.0000
  H   H83       1.0  0.5495265550554508  0.9380385957994123  0.6140714635110243  1.0000
  H   H84       1.0  0.5318650221232701  0.024384255526093943  0.7303316829230297  1.0000
  H   H85       1.0  0.47022394602169015  0.8302930395259552  0.7991655790754919  1.0000
  H   H86       1.0  0.48297697513484666  0.7350528640375062  0.6862048479530857  1.0000
  H   H87       1.0  0.6480981613537297  0.579069607967064  0.7538006068504689  1.0000
  H   H88       1.0  0.7533600504501123  0.6437172115898449  0.908267063119915  1.0000
  H   H89       1.0  0.5963853024440484  0.7391904240974867  0.9788995117413466  1.0000
  H   H90       1.0  0.4936510146267708  0.6763863814048606  0.82440190661913  1.0000
  H   H91       1.0  0.7259470573146418  0.034395064815178976  0.13447533700946934  1.0000
  H   H92       1.0  0.6813679110114351  0.9163521446948693  0.17293447058833786  1.0000
  H   H93       1.0  0.5282405675828628  0.7898521698626341  0.09085734125958564  1.0000
  H   H94       1.0  0.3712282008003028  0.719698349219982  0.9763231415904697  1.0000
  H   H95       1.0  0.26370950415464717  0.7249451120823808  0.864993441787938  1.0000
  H   H96       1.0  0.3393639274686537  0.9138284667282904  0.813700170254613  1.0000
  H   H97       1.0  0.187528840178473  0.7285775096670764  0.7451993404886039  1.0000
  H   H98       1.0  0.06195845417325066  0.676028682863013  0.6114860191547179  1.0000
  H   H99       1.0  0.9756156980162844  0.7059470441088537  0.5074837735543128  1.0000
  H   H100      1.0  0.16970618351879804  0.9688687368706681  0.639933868700389  1.0000
  H   H101      1.0  0.26494376386993707  0.9511503119793192  0.747928100959193  1.0000
  H   H102      1.0  0.42094179254519304  0.17474262497810136  0.06903049721092462  1.0000
  H   H103      1.0  0.35629799256772543  0.26456170496738457  0.10965184798665469  1.0000
  H   H104      1.0  0.2608117253070432  0.2397189488260096  0.8572024675452212  1.0000
  H   H105      1.0  0.3236138688376897  0.1480239481655303  0.8172671367372216  1.0000
  H   H106      1.0  0.8999230590544512  0.5914723421922047  0.8655239291476065  1.0000
  H   H107      1.0  0.743423190186533  0.5084333919961139  0.8270644428067088  1.0000
  H   H108      1.0  0.6990006244661303  0.43738324105206067  0.9091413725322328  1.0000
  H   H109      1.0  0.7433824088455766  0.39491022103899825  0.023674417131566393  1.0000
  H   H110      1.0  0.8599528414158685  0.3987129197391682  0.1350033602214752  1.0000
  H   H111      1.0  0.10013148752758384  0.5256697677854876  0.1862972815076915  1.0000
  H   H112      1.0  0.9833845981548424  0.44233148960021407  0.25480121204272893  1.0000
  H   H113      1.0  0.06454857730037841  0.45048373298470784  0.38851393321175454  1.0000
  H   H114      1.0  0.19846364834433677  0.4681386581301086  0.4925191222261703  1.0000
  H   H115      1.0  0.32894417077532995  0.5297858597763182  0.36007891374394063  1.0000
  H   H116      1.0  0.20323715061916658  0.5170331392106817  0.2520832862944857  1.0000
  H   H117      1.0  0.10570304408641833  0.35190049706488963  0.9309724281203416  1.0000
  H   H118      1.0  0.15491013019450872  0.2466411496802793  0.8903579237225827  1.0000
  H   H119      1.0  0.3825213028557429  0.40361684459895747  0.14279844171698386  1.0000
  H   H120      1.0  0.33075488272515946  0.5063487904563574  0.18273099356349584  1.0000
  C   C1        1.0  0.22644032491676575  0.3485985769611305  0.528104664775924  1.0000
  C   C2        1.0  0.22862517363174817  0.40867021255536434  0.5970940492045571  1.0000
  C   C3        1.0  0.16160988926456107  0.38282370798611265  0.6182506338817149  1.0000
  C   C4        1.0  0.09057956888632651  0.2975607160114109  0.5728319137397193  1.0000
  C   C5        1.0  0.08651600104764882  0.23368521368099252  0.5049096986499536  1.0000
  C   C6        1.0  0.15401890862136025  0.258335907705984  0.48206534798013234  1.0000
  C   C7        1.0  0.02079358972879678  0.14323824627422982  0.45908217335328777  1.0000
  C   C8        1.0  0.023000664429197605  0.08348800675499042  0.3963482531844917  1.0000
  C   C9        1.0  0.09150176228598646  0.11345078799876522  0.3763725676390592  1.0000
  C   C10       1.0  0.10121391466746843  0.05702490911884442  0.3119470283664327  1.0000
  C   C11       1.0  0.04306255063671222  0.9720469121780231  0.2513369523144178  1.0000
  C   C12       1.0  0.06041443047530491  0.9218051504917071  0.18977862845462568  1.0000
  C   C13       1.0  0.991988309952845  0.8388459728350741  0.11989288019203337  1.0000
  C   C14       1.0  0.0083428511244108  0.7903052736048721  0.0614810260230172  1.0000
  C   C15       1.0  0.15459874089278003  0.8986028763729978  0.135361710427901  1.0000
  C   C16       1.0  0.14389307546139923  0.9515277067618302  0.19613109382822813  1.0000
  C   C17       1.0  0.35412117695263134  0.1674908913472493  0.41921220464998754  1.0000
  C   C18       1.0  0.4062918322422037  0.12647684893840255  0.44094228170125405  1.0000
  C   C19       1.0  0.4393028336102418  0.1352759810072044  0.5232665588763652  1.0000
  C   C20       1.0  0.4899247624877178  0.09979603199655437  0.5458011880131225  1.0000
  C   C21       1.0  0.5099501089561542  0.05547422311910572  0.4870190880002596  1.0000
  C   C22       1.0  0.47517697063602793  0.04523135937824932  0.4039067557888672  1.0000
  C   C23       1.0  0.42399664465162357  0.08039693847312887  0.3811773969433929  1.0000
  C   C24       1.0  0.8204890434502164  0.6983357194476343  0.4718896767626932  1.0000
  C   C25       1.0  0.8115710697464281  0.6315281178463296  0.4029019425940207  1.0000
  C   C26       1.0  0.7645714785119112  0.543355875294303  0.3817499274024741  1.0000
  C   C27       1.0  0.7247264288031515  0.5177453246176283  0.4271698079986521  1.0000
  C   C28       1.0  0.7287755326514116  0.581608018542049  0.49509145352249817  1.0000
  C   C29       1.0  0.7762664409088204  0.671952730731654  0.5179288197324112  1.0000
  C   C30       1.0  0.6841579135559498  0.5617148036122473  0.5409210802665854  1.0000
  C   C31       1.0  0.6871425119997527  0.6266540604370548  0.6036594956702148  1.0000
  C   C32       1.0  0.7370831628449822  0.7151272565009137  0.6236293519616964  1.0000
  C   C33       1.0  0.7450789690923401  0.7892652159284523  0.6880531148675361  1.0000
  C   C34       1.0  0.7207071224054787  0.7917222533568025  0.7486622800071459  1.0000
  C   C35       1.0  0.7320231395369917  0.8706298075771673  0.8102151872153416  1.0000
  C   C36       1.0  0.7189548374170655  0.8720944103231147  0.8801061584171634  1.0000
  C   C37       1.0  0.7288287153994234  0.9468619048473884  0.9385161843325279  1.0000
  C   C38       1.0  0.7632439858142633  0.01923466377538571  0.8646349730417597  1.0000
  C   C39       1.0  0.7553997870740404  0.9477601866491057  0.8038677092722395  1.0000
  C   C40       1.0  0.748274402268436  0.9349051455688057  0.5807836105683891  1.0000
  C   C41       1.0  0.685530753706125  0.9653453358063048  0.5590535301001794  1.0000
  C   C42       1.0  0.6120035760339138  0.9160325136599712  0.4767275937594634  1.0000
  C   C43       1.0  0.553993774662203  0.9441216291810552  0.4541934909392041  1.0000
  C   C44       1.0  0.5684517193785509  0.0229275763036156  0.5129765245585888  1.0000
  C   C45       1.0  0.6413184137287544  0.07126448816282499  0.5960869859218789  1.0000
  C   C46       1.0  0.6992132850496091  0.04281439498535622  0.618814678433715  1.0000
  C   C47       1.0  0.6514037872336476  0.17951325968709142  0.8778488277836375  1.0000
  C   C48       1.0  0.5913345676676159  0.18843333162588038  0.8199596131611457  1.0000
  C   C49       1.0  0.6171836865622352  0.23543230066329796  0.7787891226221005  1.0000
  C   C50       1.0  0.7024470973010255  0.27527955112833513  0.7930232247913764  1.0000
  C   C51       1.0  0.7663195877503028  0.27123103311157604  0.8528366046480044  1.0000
  C   C52       1.0  0.7416660233599048  0.22373574464559462  0.8956868730888844  1.0000
  C   C53       1.0  0.8567650678350776  0.3158439441247793  0.8775569981376493  1.0000
  C   C54       1.0  0.9165124794127308  0.312854547631858  0.9395067212612391  1.0000
  C   C55       1.0  0.8865466522730759  0.2629155108594433  0.9780449326108358  1.0000
  C   C56       1.0  0.9429707687904313  0.254914617834487  0.044181500925915926  1.0000
  C   C57       1.0  0.027947104240091402  0.27927935434185264  0.0710069485135563  1.0000
  C   C58       1.0  0.07819079509431498  0.26797025811643493  0.13860484006242052  1.0000
  C   C59       1.0  0.1611518360211761  0.2810439819480877  0.15314022720584566  1.0000
  C   C60       1.0  0.20969084566625182  0.27117397620161654  0.21803581834998198  1.0000
  C   C61       1.0  0.1013972751700791  0.23675725824229943  0.25599522146075065  1.0000
  C   C62       1.0  0.04847205164033852  0.24459661675192737  0.1923620255551128  1.0000
  C   C63       1.0  0.8325026037466473  0.2517198642159216  0.18662783149812862  1.0000
  C   C64       1.0  0.8735229898461443  0.3144646978434338  0.2798134099187308  1.0000
  C   C65       1.0  0.864724532772982  0.3879923863979968  0.3040288687738838  1.0000
  C   C66       1.0  0.9001986319772045  0.44599830779444016  0.3901285883089045  1.0000
  C   C67       1.0  0.9445197745667074  0.4315382179552785  0.45447734577856386  1.0000
  C   C68       1.0  0.9547634796144778  0.35867129241704276  0.4299460343942555  1.0000
  C   C69       1.0  0.9195954523636233  0.30077587502218966  0.343596474585425  1.0000
  C   C70       1.0  0.3016646775431512  0.7735549091120291  0.12215273249383778  1.0000
  C   C71       1.0  0.368468039010004  0.77137243912631  0.1800426054301099  1.0000
  C   C72       1.0  0.456639016859974  0.8383906706130518  0.22121441966028502  1.0000
  C   C73       1.0  0.4822515674606295  0.9094200085941326  0.20697971456174008  1.0000
  C   C74       1.0  0.41839166044430703  0.9134835438054341  0.14716761879564894  1.0000
  C   C75       1.0  0.32804656679772404  0.8459772068576827  0.10431366747719306  1.0000
  C   C76       1.0  0.4382875000788573  0.9792055605455091  0.12244385180905226  1.0000
  C   C77       1.0  0.37334939119308796  0.9770027984319613  0.06048867941551348  1.0000
  C   C78       1.0  0.28487141809204536  0.9085009867316105  0.0219516801683213  1.0000
  C   C79       1.0  0.2107338676389859  0.8987883190931215  0.95581011950938  1.0000
  C   C80       1.0  0.20827680556482142  0.9569404347614777  0.9289851109158319  1.0000
  C   C81       1.0  0.12936987151090323  0.939589658111821  0.8613926400390283  1.0000
  C   C82       1.0  0.12790796460981826  0.008016383161887622  0.8468604601159058  1.0000
  C   C83       1.0  0.05314045406176857  0.9916595981571988  0.7819647962795956  1.0000
  C   C84       1.0  0.9807651930358717  0.8454074712355325  0.744010051073076  1.0000
  C   C85       1.0  0.05223947166726366  0.8561129280232652  0.8076398624078466  1.0000
  C   C86       1.0  0.06508968643122874  0.6458752402579293  0.8133696204813816  1.0000
  C   C87       1.0  0.03464620233933159  0.5937037432046  0.7201846854998737  1.0000
  C   C88       1.0  0.08395941060148007  0.5606921635130252  0.6959700887911923  1.0000
  C   C89       1.0  0.055870836338101526  0.5100675373098726  0.6098708754434128  1.0000
  C   C90       1.0  0.9770642312376341  0.4900424755214844  0.5455241178385252  1.0000
  C   C91       1.0  0.9287255334930933  0.5248156599351574  0.5700532404497451  1.0000
  C   C92       1.0  0.9571793938301527  0.5759993421317092  0.6564041485927278  1.0000
  C   C93       1.0  0.023560414299900863  0.051670091828349  0.6221565469453695  1.0000
  C   C94       1.0  0.021385340356971566  0.11848018396182179  0.6800439613873053  1.0000
  C   C95       1.0  0.08840604667149425  0.2066496358037498  0.7212178509768634  1.0000
  C   C96       1.0  0.15943826731757574  0.23225982086899685  0.7069846050116125  1.0000
  C   C97       1.0  0.16349142248824228  0.1683978553047539  0.6471665499702867  1.0000
  C   C98       1.0  0.09598146866026976  0.07805193335772033  0.6043107329560797  1.0000
  C   C99       1.0  0.2292151070299014  0.1882906222099906  0.6224437260314488  1.0000
  C   C100      1.0  0.227003158220363  0.12334751612398528  0.5604845546007908  1.0000
  C   C101      1.0  0.15849926919090518  0.03487377273234673  0.5219474686901648  1.0000
  C   C102      1.0  0.14878364642761008  0.9607372474904424  0.45579727798620706  1.0000
  C   C103      1.0  0.20692508388684422  0.9582734432750045  0.42896576122001306  1.0000
  C   C104      1.0  0.18957781995595724  0.8793604625530664  0.36137837072041634  1.0000
  C   C105      1.0  0.2580049583190984  0.8779001660624318  0.3468490109234992  1.0000
  C   C106      1.0  0.2416531424727282  0.8031372680642548  0.2819603175643124  1.0000
  C   C107      1.0  0.09539538943028701  0.7307609288580467  0.244009193552607  1.0000
  C   C108      1.0  0.10610192305423277  0.802240366032109  0.3076301940430284  1.0000
  C   C109      1.0  0.8958661671752212  0.815090088350175  0.31336401497031824  1.0000
  C   C110      1.0  0.843701579664348  0.7846453542265907  0.22017762904626892  1.0000
  C   C111      1.0  0.8106937067127831  0.8339646530183631  0.19596936157379474  1.0000
  C   C112      1.0  0.7600813214984399  0.8058864265492218  0.10987093500452255  1.0000
  C   C113      1.0  0.7400509778486893  0.7270770480246044  0.04552407373358144  1.0000
  C   C114      1.0  0.7748207407061046  0.6787305458832762  0.07004533196887054  1.0000
  C   C115      1.0  0.8260030846477378  0.7071846659872706  0.15639324603891677  1.0000
  C   C116      1.0  0.4295158633404982  0.4014026563554226  0.3778463396057319  1.0000
  C   C117      1.0  0.4384383960990805  0.3413400815378084  0.3199590380017981  1.0000
  C   C118      1.0  0.4854324231546628  0.3671880991474269  0.2787850350553074  1.0000
  C   C119      1.0  0.5252759155889352  0.4524520089063914  0.29301680255873924  1.0000
  C   C120      1.0  0.5212338478774114  0.5163250133580776  0.35283534465519034  1.0000
  C   C121      1.0  0.47374267750512195  0.4916700515857926  0.39569089839222477  1.0000
  C   C122      1.0  0.5658464801303257  0.6067706401890548  0.37755630264479134  1.0000
  C   C123      1.0  0.5628649047604599  0.6665201779170362  0.4395137624094618  1.0000
  C   C124      1.0  0.5129275482836065  0.6365509022109493  0.47805070987990206  1.0000
  C   C125      1.0  0.5049401077046838  0.6929855299819536  0.5442015252894733  1.0000
  C   C126      1.0  0.5293066295088097  0.7779600922030739  0.5710331817434166  1.0000
  C   C127      1.0  0.5179853461683026  0.8281989036857528  0.6386254313561326  1.0000
  C   C128      1.0  0.531052575031879  0.9111553288523383  0.6531538940768442  1.0000
  C   C129      1.0  0.5211787410458302  0.9596937209378144  0.7180440709574969  1.0000
  C   C130      1.0  0.48675346091634697  0.8513856150763389  0.7559958329675354  1.0000
  C   C131      1.0  0.4946099003576806  0.7984703265143764  0.6923725232340133  1.0000
  C   C132      1.0  0.5017268962638752  0.5825079731650291  0.686632754783595  1.0000
  C   C133      1.0  0.5644720226407574  0.623530327575779  0.7798174795934616  1.0000
  C   C134      1.0  0.637998247693858  0.6147303140328405  0.8040308298496798  1.0000
  C   C135      1.0  0.6960165764685655  0.6502148462648734  0.8901302577076535  1.0000
  C   C136      1.0  0.6815525482194292  0.6945367031573401  0.9544756604936854  1.0000
  C   C137      1.0  0.6086819389335502  0.7047748080429272  0.929947831811603  1.0000
  C   C138      1.0  0.5507902120121104  0.6696161294968307  0.8436000765641156  1.0000
  C   C139      1.0  0.5985949511847083  0.9764396245583316  0.028110573359121822  1.0000
  C   C140      1.0  0.6586586418128916  0.9786172612448497  0.09709678548674122  1.0000
  C   C141      1.0  0.6328124790440484  0.9115950459958243  0.11824416535061043  1.0000
  C   C142      1.0  0.5475483577892107  0.8405638924192544  0.07282644594869231  1.0000
  C   C143      1.0  0.483675733409932  0.8365109683424097  0.00491262748419544  1.0000
  C   C144      1.0  0.5083280385524559  0.9040168684108992  0.9820708631499144  1.0000
  C   C145      1.0  0.39322965761959955  0.7707828488854535  0.9590773820859227  1.0000
  C   C146      1.0  0.33348326274811063  0.7729908718053339  0.8963436052459246  1.0000
  C   C147      1.0  0.3634479204094346  0.8414967816599488  0.8763755423205951  1.0000
  C   C148      1.0  0.30701342061303194  0.8512136174487355  0.8119562438433903  1.0000
  C   C149      1.0  0.22204088562232024  0.7930745169790329  0.7513505352744545  1.0000
  C   C150      1.0  0.1717996611393604  0.8104229387277402  0.6897885054213547  1.0000
  C   C151      1.0  0.08884077784264828  0.7419976221776923  0.6199009195056107  1.0000
  C   C152      1.0  0.04030289348534673  0.7583465449228514  0.5614881629168808  1.0000
  C   C153      1.0  0.14860982192145403  0.9046065917552829  0.6353718145073657  1.0000
  C   C154      1.0  0.20152564660585875  0.8939000878259907  0.6961432388204472  1.0000
  C   C155      1.0  0.41749876234253247  0.10413393774170036  0.9192187425582575  1.0000
  C   C156      1.0  0.37648045297740385  0.15630078715447124  0.9409449475513297  1.0000
  C   C157      1.0  0.385276567979453  0.18930917228467342  0.0232698423763793  1.0000
  C   C158      1.0  0.34979185310667305  0.23992100208496944  0.045804843253733886  1.0000
  C   C159      1.0  0.30547198751161647  0.25994829973025463  0.9870243963193629  1.0000
  C   C160      1.0  0.2952294184515199  0.22518191814399577  0.9039124066584281  1.0000
  C   C161      1.0  0.33039249643462665  0.17399854200393602  0.8811786670738897  1.0000
  C   C162      1.0  0.9483311451214789  0.5704890202235904  0.9718922336985828  1.0000
  C   C163      1.0  0.8815242946449332  0.5615681675252661  0.9029062307583332  1.0000
  C   C164      1.0  0.7933550616765146  0.5145739413412542  0.8817596002720977  1.0000
  C   C165      1.0  0.7677445814972759  0.4747306945905408  0.9271799131693826  1.0000
  C   C166      1.0  0.8316043264310483  0.4787733596379484  0.9950960281611787  1.0000
  C   C167      1.0  0.9219503252971962  0.5262643297995525  0.01793200557990111  1.0000
  C   C168      1.0  0.8117141629629502  0.4341574534173562  0.04092542076573139  1.0000
  C   C169      1.0  0.8766510312778026  0.43713809101749496  0.10365398355051529  1.0000
  C   C170      1.0  0.9651268381435617  0.4870770829735635  0.12362727707082431  1.0000
  C   C171      1.0  0.03926478652689268  0.4950644709871597  0.18804580095491016  1.0000
  C   C172      1.0  0.0417296164182233  0.4706958401641331  0.24865224536999622  1.0000
  C   C173      1.0  0.12064565575190042  0.48202434245879994  0.31021761786725227  1.0000
  C   C174      1.0  0.12210548852922194  0.46895437051490774  0.38010402779450203  1.0000
  C   C175      1.0  0.19686402595517194  0.47882348185063267  0.43851561484894575  1.0000
  C   C176      1.0  0.2692462619457602  0.5132593156075346  0.3646419141099743  1.0000
  C   C177      1.0  0.19776940996553805  0.5054042805281257  0.303868821930962  1.0000
  C   C178      1.0  0.18490961443786352  0.4982731298183083  0.0807813475432013  1.0000
  C   C179      1.0  0.215350525018934  0.4355290021971073  0.059056010645278385  1.0000
  C   C180      1.0  0.16603403512628742  0.3620022629368763  0.9767312036897807  1.0000
  C   C181      1.0  0.19411616499705536  0.30398534322868914  0.9541985466297974  1.0000
  C   C182      1.0  0.2729268601107507  0.3184498129593081  0.012982756624076277  1.0000
  C   C183      1.0  0.3212702704692205  0.39132092188155104  0.0960915289324049  1.0000
  C   C184      1.0  0.2928143580782745  0.44921000056088917  0.11882287962863806  1.0000
  N   N1        1.0  0.15381920058516138  0.19870857179596166  0.4188388207599659  1.0000
  N   N2        1.0  0.08857929299383471  0.818952233987446  0.0686556308184336  1.0000
  N   N3        1.0  0.7798671887964447  0.7349807646015522  0.5811591670827099  1.0000
  N   N4        1.0  0.7503013200609061  0.019925590801520045  0.9313418345546934  1.0000
  N   N5        1.0  0.8012899052259714  0.22013216027109925  0.9551098821260455  1.0000
  N   N6        1.0  0.18104430081227463  0.2496975320437401  0.26962477011451813  1.0000
  N   N7        1.0  0.2650195044539174  0.8461787422568393  0.04488667729925308  1.0000
  N   N8        1.0  0.9800762305960407  0.9114240595017977  0.7303770114236628  1.0000
  N   N9        1.0  0.09617906396416494  0.015024309536976047  0.5448820126423186  1.0000
  N   N10       1.0  0.1614119360738044  0.7300698295659914  0.2303750999719369  1.0000
  N   N11       1.0  0.47014481664933805  0.5512976984713732  0.45512049421774514  1.0000
  N   N12       1.0  0.49969500109473586  0.9310357088002804  0.7696264355579957  1.0000
  N   N13       1.0  0.44870043659365416  0.9038161335756814  0.918845349270711  1.0000
  N   N14       1.0  0.06895997114917658  0.8385897911892716  0.5686631287089838  1.0000
  N   N15       1.0  0.9849768267393632  0.529863365969618  0.08115791597924023  1.0000
  N   N16       1.0  0.2699349751600977  0.5003122139036692  0.43134716517736393  1.0000
  O   O1        1.0  0.2861568328215683  0.36964154460329024  0.5045722146371007  1.0000
  O   O2        1.0  0.3200227586846225  0.1561068651220623  0.3430008038585867  1.0000
  O   O3        1.0  0.34582733774500707  0.21336188046227994  0.47886769343757163  1.0000
  O   O4        1.0  0.8650645710989765  0.7815871243954648  0.49542266677782737  1.0000
  O   O5        1.0  0.8130952919965467  0.9770126007608583  0.6569932038849302  1.0000
  O   O6        1.0  0.734482425938488  0.8669528502819405  0.5211233223615324  1.0000
  O   O7        1.0  0.6303610864422639  0.13493844598568228  0.9165244195331185  1.0000
  O   O8        1.0  0.8438893590766626  0.18689554073721845  0.16391083357061126  1.0000
  O   O9        1.0  0.7866307498395173  0.2655067092109818  0.13246812003550448  1.0000
  O   O10       1.0  0.21841333231822097  0.7138352563051953  0.08347524632534943  1.0000
  O   O11       1.0  0.022981938158537083  0.6799774681941457  0.8360859603157563  1.0000
  O   O12       1.0  0.13304287386154112  0.6541677249006813  0.867529671220936  1.0000
  O   O13       1.0  0.9638371344784249  0.968421622696454  0.5834781102303311  1.0000
  O   O14       1.0  0.9299688400967413  0.7729834507381881  0.33608750696075157  1.0000
  O   O15       1.0  0.9041507455204894  0.883039568329764  0.36751953569380913  1.0000
  O   O16       1.0  0.3849503806469415  0.3803581143396643  0.41652661359461973  1.0000
  O   O17       1.0  0.4368883525572971  0.5938727575631335  0.6639083531254502  1.0000
  O   O18       1.0  0.5155244912116005  0.536642316630328  0.6324757437951548  1.0000
  O   O19       1.0  0.6196395882980285  0.036162522400019305  0.004587021227713687  1.0000
  O   O20       1.0  0.4061176742396313  0.07003590486198163  0.8430107039089024  1.0000
  O   O21       1.0  0.46336718801971005  0.09584044263432662  0.9788787694539992  1.0000
  O   O22       1.0  0.031578262468656186  0.6150576648475268  0.9954176116644362  1.0000
  O   O23       1.0  0.22702033501049365  0.5631045468763604  0.1569874257465927  1.0000
  O   O24       1.0  0.11695993225709603  0.48448375456566595  0.0211197878262794  1.0000
