data_image0
_chemical_formula_structural       Zn16C96S16Br16N16O84
_chemical_formula_sum              "Zn16 C96 S16 Br16 N16 O84"
_cell_length_a       19.487047367759814
_cell_length_b       19.45216097167167
_cell_length_c       33.02192480635626
_cell_angle_alpha    79.54535316141252
_cell_angle_beta     79.44953107204076
_cell_angle_gamma    64.11917572821548

_space_group_name_H-M_alt    "P 1"
_space_group_IT_number       1

loop_
  _space_group_symop_operation_xyz
  'x, y, z'

loop_
  _atom_site_type_symbol
  _atom_site_label
  _atom_site_symmetry_multiplicity
  _atom_site_fract_x
  _atom_site_fract_y
  _atom_site_fract_z
  _atom_site_occupancy
  Zn  Zn1       1.0  0.05878261076196621  0.4026549728291612  0.4751043037463631  1.0000
  Zn  Zn2       1.0  0.9816535933689892  0.48849568367927526  0.5601109765031964  1.0000
  Zn  Zn3       1.0  0.0633156626594484  0.5580168866313641  0.4827363130421176  1.0000
  Zn  Zn4       1.0  0.8989204017949673  0.549479190381824  0.48004575972387903  1.0000
  Zn  Zn5       1.0  0.6970281753001402  0.3517922321459109  0.2688417564972596  1.0000
  Zn  Zn6       1.0  0.6961932838638135  0.1831420080966665  0.26465567300195403  1.0000
  Zn  Zn7       1.0  0.7643526664008391  0.26966404380589626  0.18886908687773743  1.0000
  Zn  Zn8       1.0  0.8467911271116931  0.1950097155547041  0.2744198434835141  1.0000
  Zn  Zn9       1.0  0.2619111960453395  0.7688598791056052  0.6886942425311986  1.0000
  Zn  Zn10      1.0  0.34813668912987333  0.6938315140212051  0.7729003204423536  1.0000
  Zn  Zn11      1.0  0.19783104207994742  0.8513269152367041  0.7690562952906889  1.0000
  Zn  Zn12      1.0  0.19613688513759803  0.6828353033380452  0.7648426604205979  1.0000
  Zn  Zn13      1.0  0.5638879854032339  0.05767668786596392  0.9830763606928913  1.0000
  Zn  Zn14      1.0  0.3995950384836107  0.05111275913195358  0.9788466814609436  1.0000
  Zn  Zn15      1.0  0.5582505484848282  0.9031607356548857  0.9752133896572416  1.0000
  Zn  Zn16      1.0  0.4787137368116916  0.9915573812879399  0.06010073399325219  1.0000
  C   C1        1.0  0.0631566744420766  0.32223532557590306  0.5587705246162927  1.0000
  C   C2        1.0  0.06838023965780589  0.5699233977074554  0.5662617667705804  1.0000
  C   C3        1.0  0.18577916255622987  0.4399191567057131  0.4367185916761116  1.0000
  C   C4        1.0  0.938009401893666  0.677554579107699  0.4402626971425009  1.0000
  C   C5        1.0  0.9343179415233464  0.4285662511330273  0.43170505121515396  1.0000
  C   C6        1.0  0.8160167343667837  0.5585337795206227  0.5620870373913577  1.0000
  C   C7        1.0  0.5725198369071407  0.30802849357840495  0.3076761818821794  1.0000
  C   C8        1.0  0.6839832945019992  0.18270887259073018  0.18026105846735874  1.0000
  C   C9        1.0  0.6899500278189735  0.43589764645817997  0.1870794247862619  1.0000
  C   C10       1.0  0.9290583378045342  0.19162832327592821  0.1910298081729067  1.0000
  C   C11       1.0  0.8153080209278442  0.31996849815373435  0.31812920122911953  1.0000
  C   C12       1.0  0.8137172063560102  0.06403849578334314  0.31088136057363164  1.0000
  C   C13       1.0  0.4279817893956945  0.6897193268610521  0.6895606476154229  1.0000
  C   C14       1.0  0.31793409718114424  0.8175361105702167  0.817939791804079  1.0000
  C   C15       1.0  0.1905197729876988  0.9348006595281574  0.68705155901646  1.0000
  C   C16       1.0  0.07269026765857228  0.8083382594129629  0.8077153989403244  1.0000
  C   C17       1.0  0.1816287757377637  0.6816675909171507  0.6810760536416609  1.0000
  C   C18       1.0  0.31403867870277213  0.563725640043053  0.8107920362181744  1.0000
  C   C19       1.0  0.44021667845171203  0.17735335508901057  0.9398280530152833  1.0000
  C   C20       1.0  0.43270579352079613  0.9293216168220652  0.9323307109094331  1.0000
  C   C21       1.0  0.6857827160703492  0.9395393862326458  0.9368034554170208  1.0000
  C   C22       1.0  0.5602082349793633  0.8242703137024064  0.05958740935502504  1.0000
  C   C23       1.0  0.5689528305997484  0.06982693150904848  0.0667653117699913  1.0000
  C   C24       1.0  0.31442172607350466  0.06399457027308837  0.06094863446071492  1.0000
  C   C25       1.0  0.904461307307315  0.40107630099704744  0.40181217575928235  1.0000
  C   C26       1.0  0.8464097237259907  0.3484277986389941  0.34687464131308593  1.0000
  C   C27       1.0  0.8338431273752178  0.44919078816788965  0.3862568846342213  1.0000
  C   C28       1.0  0.920025305241566  0.30281412134340246  0.35969111417929867  1.0000
  C   C29       1.0  0.8026450040920565  0.42088024209881775  0.36154143437523345  1.0000
  C   C30       1.0  0.9460203659731544  0.326752833366683  0.38927267555771305  1.0000
  C   C31       1.0  0.09811465459104339  0.5981740470026367  0.595783290058847  1.0000
  C   C32       1.0  0.15248518242217557  0.652935998804189  0.6514937310905821  1.0000
  C   C33       1.0  0.14247732611172376  0.640782557168073  0.5806842484871169  1.0000
  C   C34       1.0  0.10410893593521559  0.6148093748893402  0.6665058695706493  1.0000
  C   C35       1.0  0.1736276446335836  0.6634047645648876  0.6083774506451434  1.0000
  C   C36       1.0  0.08155031772882639  0.5829872942579114  0.639155277938876  1.0000
  C   C37       1.0  0.31148793107050926  0.4528202364929966  0.4000317866659913  1.0000
  C   C38       1.0  0.4517394200718811  0.29092349526251116  0.3490065173911745  1.0000
  C   C39       1.0  0.26368265106430755  0.41486208753396864  0.4134222408278418  1.0000
  C   C40       1.0  0.49879170268024337  0.3295401165928381  0.3351208409086511  1.0000
  C   C41       1.0  0.3818177949450856  0.3369430882635029  0.3712053982549648  1.0000
  C   C42       1.0  0.37855541180067587  0.4089875655683029  0.3750820304042933  1.0000
  C   C43       1.0  0.7227219825020512  0.5787270776807601  0.6312193133528509  1.0000
  C   C44       1.0  0.5208840182821816  0.6779120727924234  0.6205037720033529  1.0000
  C   C45       1.0  0.7411392331193412  0.586490481665727  0.5883467458816015  1.0000
  C   C46       1.0  0.502898101812093  0.6691199975529613  0.6633636855270666  1.0000
  C   C47       1.0  0.6009986464121795  0.6420662524428309  0.6084541797810488  1.0000
  C   C48       1.0  0.6424265102834638  0.6090392992458927  0.6428185133743156  1.0000
  C   C49       1.0  0.07322263220309108  0.22984630438391915  0.6278722891159346  1.0000
  C   C50       1.0  0.1717110793346777  0.027380473784198486  0.6177534311181176  1.0000
  C   C51       1.0  0.0829751846489231  0.24736645880938107  0.585014447943678  1.0000
  C   C52       1.0  0.163122172819449  0.009554422202221184  0.660636151590765  1.0000
  C   C53       1.0  0.1420387054490959  0.10768617781912578  0.605908468859326  1.0000
  C   C54       1.0  0.1085918361750444  0.14971887086862518  0.6401043286731537  1.0000
  C   C55       1.0  0.8406810809938462  0.7992685943622105  0.3995572644244518  1.0000
  C   C56       1.0  0.9067924688060529  0.9461861481390911  0.355666548935119  1.0000
  C   C57       1.0  0.9091762593822424  0.7552738237091458  0.4167069434003849  1.0000
  C   C58       1.0  0.8387183205776338  0.9900629082283172  0.3380591858105575  1.0000
  C   C59       1.0  0.9088996277330635  0.8751302713805557  0.3764874247427628  1.0000
  C   C60       1.0  0.8408165585619968  0.8674796020138728  0.37566068813347897  1.0000
  C   C61       1.0  0.6538421015109819  0.15431759133255704  0.15096310417341394  1.0000
  C   C62       1.0  0.5991497796605002  0.0984554413880331  0.09591968567266211  1.0000
  C   C63       1.0  0.6713392467874115  0.16762937012455129  0.10763124247483805  1.0000
  C   C64       1.0  0.5864352255998497  0.08043743519843352  0.13925244679377613  1.0000
  C   C65       1.0  0.6396831684739084  0.1445510277195793  0.0804050647368086  1.0000
  C   C66       1.0  0.6084957624748385  0.11293202982322725  0.16645544535382584  1.0000
  C   C67       1.0  0.6704759541819242  0.5290500831051475  0.11788523565508768  1.0000
  C   C68       1.0  0.5708107571076866  0.7312625323516213  0.12860494873986286  1.0000
  C   C69       1.0  0.661888327325066  0.5107693047181597  0.16074568103638137  1.0000
  C   C70       1.0  0.5804322502352335  0.7492690317266478  0.08578112204439492  1.0000
  C   C71       1.0  0.6065102258365158  0.6510531104569138  0.14058777914800658  1.0000
  C   C72       1.0  0.64019506959405  0.6094566112601925  0.10624852501713626  1.0000
  C   C73       1.0  0.07903851859730789  0.1222949669190925  0.17926760880354212  1.0000
  C   C74       1.0  0.16423830237447123  0.1247848820229009  0.0729729571965692  1.0000
  C   C75       1.0  0.0058696270595816995  0.1614434630652823  0.16674713027072133  1.0000
  C   C76       1.0  0.23764937703378308  0.08649063222909349  0.08527993999360459  1.0000
  C   C77       1.0  0.1066069425631468  0.14081429184772534  0.107295694078104  1.0000
  C   C78       1.0  0.1372811289635507  0.1116930544459223  0.145256307281727  1.0000
  C   C79       1.0  0.347347481000753  0.8461839447463644  0.8475421215461766  1.0000
  C   C80       1.0  0.4029933844037146  0.9005446261000284  0.902994003777337  1.0000
  C   C81       1.0  0.30298099209249335  0.919050937713557  0.8617307428319805  1.0000
  C   C82       1.0  0.4444177270071136  0.8254370666444752  0.8915599342458976  1.0000
  C   C83       1.0  0.33319786122559236  0.9483391841785215  0.8865264831042694  1.0000
  C   C84       1.0  0.42001105382870924  0.8007168488179913  0.8616256453166004  1.0000
  C   C85       1.0  0.40742930051652576  0.44657153887300194  0.8558215013993263  1.0000
  C   C86       1.0  0.34224314221827973  0.2991226639472514  0.8999298647735473  1.0000
  C   C87       1.0  0.33912376606608063  0.49019960438113935  0.8383692642773966  1.0000
  C   C88       1.0  0.41104777704661893  0.2553149763606227  0.9167518239216649  1.0000
  C   C89       1.0  0.34184471833586366  0.36759008195074466  0.8761661092091019  1.0000
  C   C90       1.0  0.4098712911942641  0.3754856781113529  0.8767668896994322  1.0000
  C   C91       1.0  0.9518000940745139  0.7911003106359114  0.8489163736403569  1.0000
  C   C92       1.0  0.8112994931200033  0.9526919731174812  0.9001016424536131  1.0000
  C   C93       1.0  0.9987780471915498  0.829841433735751  0.8350720335516258  1.0000
  C   C94       1.0  0.7636557738530952  0.9145263855748027  0.9134908313973684  1.0000
  C   C95       1.0  0.8783732016173714  0.909094109223041  0.8750683757426148  1.0000
  C   C96       1.0  0.8818309301520273  0.8370027491833409  0.8711391787732269  1.0000
  S   S1        1.0  0.30177053794476194  0.3248879738282326  0.3961638928642158  1.0000
  S   S2        1.0  0.4582567173631205  0.4215026965024504  0.3500616238473029  1.0000
  S   S3        1.0  0.660012715505445  0.6324681714225874  0.5623970072822359  1.0000
  S   S4        1.0  0.5839046263708881  0.618560102351175  0.6889868731773987  1.0000
  S   S5        1.0  0.13371123102407267  0.16575911851057873  0.5596318593484355  1.0000
  S   S6        1.0  0.1171570550910488  0.09130647186986346  0.686296845281369  1.0000
  S   S7        1.0  0.9731510460274677  0.7980559757371495  0.40433460456650744  1.0000
  S   S8        1.0  0.7767287392816371  0.9448776765171658  0.3478405537246374  1.0000
  S   S9        1.0  0.6153451685396547  0.5921379834371475  0.18663324591348382  1.0000
  S   S10       1.0  0.6316477429843702  0.6680177276544581  0.06014545837660991  1.0000
  S   S11       1.0  0.0081408886581968  0.1837910671526899  0.1133703621963207  1.0000
  S   S12       1.0  0.23584122478006717  0.06863146490183417  0.1388580884442661  1.0000
  S   S13       1.0  0.27735783704610384  0.44482872079292696  0.8484916814580217  1.0000
  S   S14       1.0  0.47462949972441487  0.29850826432785027  0.9043590137056229  1.0000
  S   S15       1.0  0.9580472880069595  0.9217569957120871  0.8500608903005257  1.0000
  S   S16       1.0  0.8019448428282133  0.8246316513968279  0.8960862046042594  1.0000
  Br  Br1       1.0  0.7818514006967163  0.5540957134293261  0.395795068027425  1.0000
  Br  Br2       1.0  0.9875707589777035  0.21128964559648009  0.3361379817270418  1.0000
  Br  Br3       1.0  0.6989757300654489  0.4799053541554628  0.3512392350140701  1.0000
  Br  Br4       1.0  0.0349131143557955  0.25505903011875114  0.4138313826869862  1.0000
  Br  Br5       1.0  0.1581202004086606  0.6730567579423191  0.5233946120253634  1.0000
  Br  Br6       1.0  0.0640638867219749  0.610061924693113  0.723331914153526  1.0000
  Br  Br7       1.0  0.24716251876426298  0.7040039387420973  0.5868598520223146  1.0000
  Br  Br8       1.0  0.03344249172571521  0.5161096671151171  0.6621363257879908  1.0000
  Br  Br9       1.0  0.7408399973336443  0.21256746304153742  0.08469081933967713  1.0000
  Br  Br10      1.0  0.5447751064933185  0.007979850541516901  0.16198502274971824  1.0000
  Br  Br11      1.0  0.649242679405283  0.18027242418155948  0.023241596675077927  1.0000
  Br  Br12      1.0  0.5712846794238473  0.10467355983456618  0.2235745181830993  1.0000
  Br  Br13      1.0  0.19958827134566798  0.977678658323299  0.8508601202045797  1.0000
  Br  Br14      1.0  0.5308863749656395  0.754069659292291  0.9182452744683972  1.0000
  Br  Br15      1.0  0.28082675173961047  0.05346332258016416  0.8952832804555583  1.0000
  Br  Br16      1.0  0.4889857772038935  0.7082200744620056  0.8394233058919767  1.0000
  N   N1        1.0  0.3021023934859457  0.5262429135362083  0.4105565031461039  1.0000
  N   N2        1.0  0.46861064678495257  0.21162851261708943  0.3448818972486123  1.0000
  N   N3        1.0  0.7741840435046825  0.5493612679061853  0.6633754266274962  1.0000
  N   N4        1.0  0.4684274768754051  0.7214959398469317  0.5895135807324081  1.0000
  N   N5        1.0  0.028886989818282388  0.28243363647797537  0.6588494911840996  1.0000
  N   N6        1.0  0.20124043172739184  0.9752758324989936  0.5857854806741258  1.0000
  N   N7        1.0  0.7723734297580549  0.7841713913398252  0.4054841810213929  1.0000
  N   N8        1.0  0.9696739393724061  0.9670047687193268  0.35714611587562217  1.0000
  N   N9        1.0  0.7013030087153352  0.4770870439309291  0.08589974354219984  1.0000
  N   N10       1.0  0.5269558836479716  0.7834844967820872  0.15981033249305202  1.0000
  N   N11       1.0  0.0990638111888273  0.08979720328428435  0.22107512740549853  1.0000
  N   N12       1.0  0.14193802029230798  0.14399200522473168  0.03111054125736251  1.0000
  N   N13       1.0  0.4703695381837391  0.46741589498211766  0.8568202275642279  1.0000
  N   N14       1.0  0.27409819270506114  0.28364210399632833  0.9061372853841833  1.0000
  N   N15       1.0  0.9686114603618139  0.7117936178910539  0.8448569470261589  1.0000
  N   N16       1.0  0.8017854168750063  0.026134157853128656  0.9107039600057761  1.0000
  O   O1        1.0  0.0005939304385619995  0.49942267606082424  0.4992819421064071  1.0000
  O   O2        1.0  0.06434601567696062  0.31904663221531127  0.5202038952918215  1.0000
  O   O3        1.0  0.0019791895737811  0.5700088765110393  0.5765897733298573  1.0000
  O   O4        1.0  0.14587393078186042  0.5113683202565084  0.4383855976795061  1.0000
  O   O5        1.0  0.04969450067153499  0.3805473045700225  0.5762263063652496  1.0000
  O   O6        1.0  0.16541827805219364  0.38537302065130047  0.4521676466964593  1.0000
  O   O7        1.0  0.111134886897446  0.5478304585921379  0.5327520607576801  1.0000
  O   O8        1.0  0.9964008227376198  0.6613455818857615  0.4588501655749582  1.0000
  O   O9        1.0  0.8854677652207597  0.46683124260037084  0.4596758482965699  1.0000
  O   O10       1.0  0.90492163387524  0.634651152302858  0.4388661478165261  1.0000
  O   O11       1.0  0.006002630168616503  0.41158347287603897  0.4270554945313307  1.0000
  O   O12       1.0  0.8739071106165425  0.5067784967182332  0.578384602169308  1.0000
  O   O13       1.0  0.8140947709711811  0.5890028574919054  0.5242601892396976  1.0000
  O   O14       1.0  0.7502573939349019  0.2502109496043303  0.24945518996174343  1.0000
  O   O15       1.0  0.6078343123690856  0.35019945509665695  0.30786574513798115  1.0000
  O   O16       1.0  0.7066845972577127  0.13854665121774445  0.21323366995017073  1.0000
  O   O17       1.0  0.7440715967645487  0.37867992177186943  0.1712568356454085  1.0000
  O   O18       1.0  0.5919431256186414  0.2531534364791952  0.2862145473723601  1.0000
  O   O19       1.0  0.6572902672204748  0.43720459278240015  0.22447714362090207  1.0000
  O   O20       1.0  0.685201918678196  0.24859979882079822  0.17009443024227275  1.0000
  O   O21       1.0  0.8731481019974937  0.20850682799444054  0.17028660472049495  1.0000
  O   O22       1.0  0.8304515758771202  0.24847142857974072  0.32323598623089117  1.0000
  O   O23       1.0  0.9254571760392309  0.20026397609851168  0.22865384434772557  1.0000
  O   O24       1.0  0.776037746901089  0.3690145000299693  0.2906268022033062  1.0000
  O   O25       1.0  0.7418257757631321  0.09658227788345648  0.3070008433802727  1.0000
  O   O26       1.0  0.8644284379509058  0.08748668147934777  0.29320700385589055  1.0000
  O   O27       1.0  0.2503998746183882  0.7498512181591436  0.7495617252752282  1.0000
  O   O28       1.0  0.3700072501445391  0.7014556723332106  0.6724504825938098  1.0000
  O   O29       1.0  0.3351727216678598  0.7456645031638232  0.8219367028036118  1.0000
  O   O30       1.0  0.1587997455269559  0.9366914161785541  0.7246653382496931  1.0000
  O   O31       1.0  0.4307661950757904  0.6908448755376851  0.7279145536605826  1.0000
  O   O32       1.0  0.24324887280172905  0.876984572700934  0.6709966116607546  1.0000
  O   O33       1.0  0.2779212719476902  0.86697121787558  0.7908125099697471  1.0000
  O   O34       1.0  0.10816296231385542  0.8502831083461684  0.808073205136104  1.0000
  O   O35       1.0  0.2043573975323341  0.6376230591742525  0.7140698504974524  1.0000
  O   O36       1.0  0.09203320252638039  0.7536070717425856  0.7861876931335915  1.0000
  O   O37       1.0  0.18188563442114972  0.7479906742514045  0.6710638903602656  1.0000
  O   O38       1.0  0.36493172723209705  0.586228798015206  0.7922406910118838  1.0000
  O   O39       1.0  0.24196368582285288  0.596686081692674  0.8074639976504868  1.0000
  O   O40       1.0  0.5003817340422001  0.9998429662992693  0.9995572712288238  1.0000
  O   O41       1.0  0.49748556856278736  0.1613149236600007  0.9593061111235742  1.0000
  O   O42       1.0  0.3838475577062255  0.9689882145402179  0.9598339396860284  1.0000
  O   O43       1.0  0.6649889142130688  0.8851902148182444  0.9520307783425609  1.0000
  O   O44       1.0  0.40845979732056753  0.13388930432835605  0.9371313346760531  1.0000
  O   O45       1.0  0.6461816999056893  0.010979498401297836  0.9387446116143181  1.0000
  O   O46       1.0  0.5044678210831534  0.9121555594255284  0.9275740663738006  1.0000
  O   O47       1.0  0.563455653204656  0.8204793151829216  0.02089030786075344  1.0000
  O   O48       1.0  0.502548304126357  0.0702536090760262  0.07752674406349773  1.0000
  O   O49       1.0  0.544416612989501  0.8829741036354686  0.07724663291369183  1.0000
  O   O50       1.0  0.6114501506509527  0.04747643409721286  0.03325910142550013  1.0000
  O   O51       1.0  0.31871625740304665  0.09524959475687916  0.023900602452045012  1.0000
  O   O52       1.0  0.37033743184404955  0.015544847895810628  0.08070172897669181  1.0000
  O   O53       1.0  0.33764737398225003  0.5587410336826579  0.38519081786760273  1.0000
  O   O54       1.0  0.2638807580103446  0.549608073895797  0.4433288200995875  1.0000
  O   O55       1.0  0.41116323803132804  0.19882625782319954  0.3450848478930483  1.0000
  O   O56       1.0  0.5358046444097795  0.16305883456821135  0.3431942793025513  1.0000
  O   O57       1.0  0.7478079611224616  0.5245733104598072  0.6972352410947025  1.0000
  O   O58       1.0  0.8364532296047145  0.5539583114129271  0.6562054177028501  1.0000
  O   O59       1.0  0.4914471203907739  0.7002600806046714  0.5541753686107285  1.0000
  O   O60       1.0  0.40799330587005045  0.7765796651563119  0.5992423909976595  1.0000
  O   O61       1.0  0.04964010010061769  0.2595530380937773  0.6942545845081015  1.0000
  O   O62       1.0  0.9736243302059432  0.3425523675367899  0.6490940739095025  1.0000
  O   O63       1.0  0.22627523014205048  0.001252379442682592  0.5518684114549616  1.0000
  O   O64       1.0  0.1965396849917553  0.912974211335495  0.5931612299123685  1.0000
  O   O65       1.0  0.7311242771682842  0.8130651401589614  0.37673012152154683  1.0000
  O   O66       1.0  0.7582475443798132  0.7475646686288466  0.43804479208716884  1.0000
  O   O67       1.0  0.032938995426683  0.9113155980545002  0.36146761600022603  1.0000
  O   O68       1.0  0.9564279749262069  0.03527627232620732  0.35611541150368003  1.0000
  O   O69       1.0  0.7255015771640957  0.5038064023918593  0.05194687549990106  1.0000
  O   O70       1.0  0.698933859629818  0.41365232922068174  0.09328157805739322  1.0000
  O   O71       1.0  0.5490833658094019  0.7609025836736903  0.1949147355482168  1.0000
  O   O72       1.0  0.4708174572028341  0.8431258343116566  0.15052527640715851  1.0000
  O   O73       1.0  0.163282995174967  0.08226593277503011  0.22736142987405833  1.0000
  O   O74       1.0  0.0543439900985661  0.06965629615061178  0.24636376900967596  1.0000
  O   O75       1.0  0.07794804648699477  0.19885497562743373  0.027260407259099402  1.0000
  O   O76       1.0  0.18397133524818088  0.10432004486128217  0.0036584405802315926  1.0000
  O   O77       1.0  0.5335237069156092  0.41178943186327627  0.8616936123341788  1.0000
  O   O78       1.0  0.4576054325154288  0.5358254565595286  0.8547285373317237  1.0000
  O   O79       1.0  0.23214836943168388  0.3130350923923402  0.8777103344809235  1.0000
  O   O80       1.0  0.26089474060795226  0.24629391554904592  0.9386008686694538  1.0000
  O   O81       1.0  0.9110269251851194  0.698840244364319  0.8457060205399929  1.0000
  O   O82       1.0  0.0358363528149255  0.663316369475325  0.842618271260733  1.0000
  O   O83       1.0  0.8366053573426908  0.05913966741722019  0.8851662445378212  1.0000
  O   O84       1.0  0.7642318449132687  0.0489800675554973  0.9437086655611182  1.0000
