data_image0
_chemical_formula_structural       Zn2H16C20N4O8
_chemical_formula_sum              "Zn2 H16 C20 N4 O8"
_cell_length_a       6.34007138081862
_cell_length_b       8.697461062898357
_cell_length_c       9.371777466817301
_cell_angle_alpha    82.352409853607
_cell_angle_beta     79.62036041779473
_cell_angle_gamma    82.45360589498037

_space_group_name_H-M_alt    "P 1"
_space_group_IT_number       1

loop_
  _space_group_symop_operation_xyz
  'x, y, z'

loop_
  _atom_site_type_symbol
  _atom_site_label
  _atom_site_symmetry_multiplicity
  _atom_site_fract_x
  _atom_site_fract_y
  _atom_site_fract_z
  _atom_site_occupancy
  Zn  Zn1       1.0  0.24824088218334592  0.0809761576793449  0.4580447453306745  1.0000
  Zn  Zn2       1.0  0.7517474425640529  0.9190170939774305  0.5419593333792818  1.0000
  H   H1        1.0  0.31845478948864064  0.9609158702041328  0.7689251590106849  1.0000
  H   H2        1.0  0.6815503825762549  0.039082175485056304  0.23107522157447852  1.0000
  H   H3        1.0  0.7419003854431098  0.47902726783054556  0.7696183148571549  1.0000
  H   H4        1.0  0.2581089853108267  0.5209649404351779  0.23037912303386324  1.0000
  H   H5        1.0  0.10242997742098231  0.5586921004972893  0.6534409357676978  1.0000
  H   H6        1.0  0.8975804738377634  0.44131295245272634  0.3465525693069864  1.0000
  H   H7        1.0  0.39004982483356093  0.6458523470492993  0.7689825437203055  1.0000
  H   H8        1.0  0.6099706174764636  0.35414105211339825  0.23100595037363555  1.0000
  H   H9        1.0  0.3265213580380078  0.8364748336624643  0.026156466327698497  1.0000
  H   H10       1.0  0.6734704806055377  0.16353594663183912  0.9738417135442675  1.0000
  H   H11       1.0  0.7970244184314623  0.22636038225014943  0.6534900880697309  1.0000
  H   H12       1.0  0.20295988712553745  0.7736281555651914  0.3465140153908877  1.0000
  H   H13       1.0  0.0033086641797908157  0.7028829953061829  0.15835735616790464  1.0000
  H   H14       1.0  0.9966920210660889  0.2971419108789775  0.8416422012273087  1.0000
  H   H15       1.0  0.6940247196201313  0.6962449482738862  0.030666337157413195  1.0000
  H   H16       1.0  0.3059708108115303  0.3037624611856629  0.969344645848949  1.0000
  C   C1        1.0  0.8303493306828996  0.8279594540496265  0.833507525372866  1.0000
  C   C2        1.0  0.16964462267638686  0.1720385148510175  0.16649526926706673  1.0000
  C   C3        1.0  0.1854056330426772  0.9034044965335041  0.8343607207930291  1.0000
  C   C4        1.0  0.8145915470337428  0.09659347034341441  0.1656384883447473  1.0000
  C   C5        1.0  0.6124277689399308  0.44126275859582614  0.7255878800479039  1.0000
  C   C6        1.0  0.38758298534454383  0.5587306554666256  0.27441243741596105  1.0000
  C   C7        1.0  0.25501260168081796  0.4870544330073941  0.662221696732594  1.0000
  C   C8        1.0  0.7449968154654344  0.512947124128935  0.3377745202097061  1.0000
  C   C9        1.0  0.4143472441137633  0.53450210767339  0.724190813314209  1.0000
  C   C10       1.0  0.5856740379143873  0.4654959543829379  0.275794840350521  1.0000
  C   C11       1.0  0.18637431280662042  0.8330336596208169  0.9752287013179028  1.0000
  C   C12       1.0  0.8136249039982316  0.16697133419782523  0.024769351538459723  1.0000
  C   C13       1.0  0.645810998666427  0.3026506926777017  0.664219926103094  1.0000
  C   C14       1.0  0.3541830711983495  0.6973367955867431  0.33578848550095586  1.0000
  C   C15       1.0  0.007497544347792495  0.7584686893424363  0.046979353340077495  1.0000
  C   C16       1.0  0.9925106985580358  0.24153987910216304  0.9530171590960563  1.0000
  C   C17       1.0  0.8336259988682642  0.7550202337499387  0.9772428932217353  1.0000
  C   C18       1.0  0.16636815590700144  0.24498596108428933  0.022764143348332794  1.0000
  C   C19       1.0  0.2861914039585827  0.3440335756465771  0.6007890222048502  1.0000
  C   C20       1.0  0.713811614872398  0.6559679237370872  0.39920689769761  1.0000
  N   N1        1.0  0.48714934228332396  0.2565727602682344  0.6057464917501463  1.0000
  N   N2        1.0  0.5128432196712823  0.7434240116642669  0.39425449018039416  1.0000
  N   N3        1.0  0.014471537867564166  0.9000825939773521  0.7672615518517105  1.0000
  N   N4        1.0  0.9855198655949027  0.09992117160624762  0.23273759184576182  1.0000
  O   O1        1.0  0.520684050107903  0.12279610723374648  0.5427384023042947  1.0000
  O   O2        1.0  0.47931012126819894  0.8772006681011889  0.45726132030689115  1.0000
  O   O3        1.0  0.14752122358265754  0.2903359549125284  0.5427185168302415  1.0000
  O   O4        1.0  0.8524751631679592  0.7096666979413514  0.45728231178802764  1.0000
  O   O5        1.0  0.6771299894180203  0.8331621356349287  0.7604038685778035  1.0000
  O   O6        1.0  0.32286714341353934  0.166835884213512  0.2396017417406711  1.0000
  O   O7        1.0  0.01326445046862556  0.9700400705907483  0.6303790759301577  1.0000
  O   O8        1.0  0.986729790922219  0.02996602712902791  0.36961622514196074  1.0000
