data_image0
_chemical_formula_structural       Zn4H44C76N8O16
_chemical_formula_sum              "Zn4 H44 C76 N8 O16"
_cell_length_a       11.493433438000553
_cell_length_b       15.221698433000807
_cell_length_c       18.170990817000106
_cell_angle_alpha    89.99998807508925
_cell_angle_beta     89.99999691456456
_cell_angle_gamma    89.99996464174487

_space_group_name_H-M_alt    "P 1"
_space_group_IT_number       1

loop_
  _space_group_symop_operation_xyz
  'x, y, z'

loop_
  _atom_site_type_symbol
  _atom_site_label
  _atom_site_symmetry_multiplicity
  _atom_site_fract_x
  _atom_site_fract_y
  _atom_site_fract_z
  _atom_site_occupancy
  Zn  Zn1       1.0  0.5000000641091445  0.4476909427336436  0.901651390469553  1.0000
  Zn  Zn2       1.0  0.5000000556115012  0.5523088029583292  0.0983484603916551  1.0000
  Zn  Zn3       1.0  0.5000002469711191  0.05230937076315462  0.4016511722527412  1.0000
  Zn  Zn4       1.0  0.4999998727492568  0.9476910318857252  0.59834867860841  1.0000
  H   H1        1.0  0.5000002667991481  0.0282483529873829  0.1671581825858865  1.0000
  H   H2        1.0  0.4999998529212278  0.9717520496614969  0.8328416682752647  1.0000
  H   H3        1.0  0.5000000642753905  0.4717520187717951  0.6671583966078032  1.0000
  H   H4        1.0  0.5000000554449855  0.5282483838770844  0.332841454253348  1.0000
  H   H5        1.0  0.5000001603504884  0.20400262084149287  0.9796449572637442  1.0000
  H   H6        1.0  0.49999995937015734  0.7959971248504802  0.0203548935974638  1.0000
  H   H7        1.0  0.5000001440798486  0.2959970163200368  0.4796446965614436  1.0000
  H   H8        1.0  0.4999999756407973  0.7040027293719364  0.5203551542997644  1.0000
  H   H9        1.0  0.5000001513706209  0.30723889762987255  0.2008937980100853  1.0000
  H   H10       1.0  0.49999996834999655  0.6927608480620293  0.7991066031788422  1.0000
  H   H11       1.0  0.5000001768277046  0.19276080879047447  0.7008935103446134  1.0000
  H   H12       1.0  0.49999994289267147  0.8072395938584125  0.2991063405165378  1.0000
  H   H13       1.0  0.30234725215879626  0.32274566131670923  0.9521164569165708  1.0000
  H   H14       1.0  0.3023471458635072  0.6772541764904362  0.047883400666854904  1.0000
  H   H15       1.0  0.6976530546187832  0.17725398268457576  0.4521162101941556  1.0000
  H   H16       1.0  0.6976536568622292  0.8227456708920186  0.5478836339448208  1.0000
  H   H17       1.0  0.6976537376241224  0.67725342741808  0.0478839442723995  1.0000
  H   H18       1.0  0.6976529738568685  0.3227462261584435  0.9521164501942961  1.0000
  H   H19       1.0  0.3023461950395685  0.8227464199645026  0.5478836406670098  1.0000
  H   H20       1.0  0.3023464628584165  0.17725407479995434  0.4521162169163873  1.0000
  H   H21       1.0  0.08697906136317361  0.3153575740009417  0.9526601850132366  1.0000
  H   H22       1.0  0.08697981913923769  0.6846417072204006  0.0473396798949466  1.0000
  H   H23       1.0  0.9130203753059905  0.18464206986538306  0.4526604800057683  1.0000
  H   H24       1.0  0.9130201135708164  0.8153581402972777  0.5473404574639175  1.0000
  H   H25       1.0  0.9130201882954196  0.6846421716911594  0.0473402161757051  1.0000
  H   H26       1.0  0.9130203005814082  0.31535803847156535  0.9526601709662613  1.0000
  H   H27       1.0  0.08697974441436432  0.8153583327834327  0.5473399211831023  1.0000
  H   H28       1.0  0.08697913608751409  0.184642262351737  0.4526599437249672  1.0000
  H   H29       1.0  0.0866161434442461  0.5753101806791749  0.8551239290378803  1.0000
  H   H30       1.0  0.08661623526493402  0.424689757668375  0.14487593588260242  1.0000
  H   H31       1.0  0.9133837630223026  0.9246895903661567  0.3551241821672733  1.0000
  H   H32       1.0  0.9133840977095175  0.07531061962707503  0.6448762049623298  1.0000
  H   H33       1.0  0.9133839762763998  0.42468956501279115  0.1448759218233278  1.0000
  H   H34       1.0  0.9133838844557117  0.5753099880235982  0.8551239149786056  1.0000
  H   H35       1.0  0.0866163566980447  0.07531081228265893  0.6448762190216044  1.0000
  H   H36       1.0  0.08661602201083701  0.9246897830217408  0.3551241962265408  1.0000
  H   H37       1.0  0.3017563832030206  0.5695781811296002  0.858010945113641  1.0000
  H   H38       1.0  0.301757340647967  0.43042165695266743  0.1419889124898575  1.0000
  H   H39       1.0  0.6982435230173679  0.9304215891984242  0.3580112045606684  1.0000
  H   H40       1.0  0.6982429925726449  0.06957872106008982  0.641989189885912  1.0000
  H   H41       1.0  0.6982428664555796  0.4304215645625078  0.1419894560753079  1.0000
  H   H42       1.0  0.698243649134703  0.5695780887390995  0.8580109383713292  1.0000
  H   H43       1.0  0.3017565967032568  0.0695781564934776  0.6419891966282663  1.0000
  H   H44       1.0  0.3017571271477308  0.9304216815887901  0.358010660975232  1.0000
  C   C1        1.0  0.5000002094291389  0.16607068354324644  0.1919840044814833  1.0000
  C   C2        1.0  0.49999991029174845  0.8339284051917416  0.8080163967075009  1.0000
  C   C3        1.0  0.5000001195288847  0.33392902509083905  0.6919836922042036  1.0000
  C   C4        1.0  0.5000000001914913  0.6660713775580477  0.3080161586569403  1.0000
  C   C5        1.0  0.49999937075281764  0.09425347377449358  0.1440741301654  1.0000
  C   C6        1.0  0.49999987890607406  0.9057456149607648  0.8559257206958791  1.0000
  C   C7        1.0  0.5000000922282696  0.40574624676353466  0.6440738053672135  1.0000
  C   C8        1.0  0.5000000274921064  0.5942541558853521  0.35592604549393775  1.0000
  C   C9        1.0  0.4999993690618183  0.1064203253454323  0.06713501147054052  1.0000
  C   C10       1.0  0.49999988059680334  0.8935794203467395  0.9328648393906818  1.0000
  C   C11       1.0  0.5000001004795536  0.3935794143089737  0.5671346887935726  1.0000
  C   C12       1.0  0.4999991491787982  0.6064209883401122  0.4328651620675927  1.0000
  C   C13       1.0  0.49999933506784794  0.19256643178437127  0.0389009904629773  1.0000
  C   C14       1.0  0.4999999145907736  0.8074333139078006  0.9610988603982449  1.0000
  C   C15       1.0  0.5000001368809279  0.30743331488508835  0.5389006828050498  1.0000
  C   C16       1.0  0.4999999828397391  0.6925664308069487  0.46109861772843175  1.0000
  C   C17       1.0  0.4999993036500427  0.2644421106945814  0.0870034794770191  1.0000
  C   C18       1.0  0.4999999460085717  0.7355576349975907  0.9129963713842031  1.0000
  C   C19       1.0  0.5000001641971963  0.23555762402321537  0.5870037346778929  1.0000
  C   C20       1.0  0.4999999555231582  0.7644427786256004  0.4129966665109849  1.0000
  C   C21       1.0  0.500000175791719  0.25138048387631784  0.1634016260981994  1.0000
  C   C22       1.0  0.4999999439286569  0.748619918772569  0.8365982247629516  1.0000
  C   C23       1.0  0.5000001556031181  0.24861988881622213  0.6634018790218194  1.0000
  C   C24       1.0  0.4999999641175066  0.7513798568756797  0.3365985221671082  1.0000
  C   C25       1.0  0.5000002120569321  0.1510605218011492  0.2741991153040857  1.0000
  C   C26       1.0  0.4999999076637137  0.8489392238908238  0.7258007355571223  1.0000
  C   C27       1.0  0.5000001098909195  0.3489391664056143  0.7741993507376037  1.0000
  C   C28       1.0  0.5000000098294349  0.6510612362432013  0.225801050451274  1.0000
  C   C29       1.0  0.5000001378098062  0.35556598002233397  0.05582520471775611  1.0000
  C   C30       1.0  0.4999999819110883  0.6444331087126544  0.9441751964712354  1.0000
  C   C31       1.0  0.5000002027582015  0.14443310548499974  0.5558249254778573  1.0000
  C   C32       1.0  0.4999999169621744  0.8555672971638799  0.4441749253832867  1.0000
  C   C33       1.0  0.4999994012886404  0.03250019644801941  0.0196494400121452  1.0000
  C   C34       1.0  0.49999984836995276  0.9674995492440815  0.9803509611768035  1.0000
  C   C35       1.0  0.5000000723016313  0.4674995550047002  0.5196491044476589  1.0000
  C   C36       1.0  0.49999917735671323  0.5325008476443787  0.4803507464135066  1.0000
  C   C37       1.0  0.25005911311527024  0.3772231710519236  0.9314373385393963  1.0000
  C   C38       1.0  0.250059049573693  0.6227766911237821  0.0685630711500806  1.0000
  C   C39       1.0  0.7499411954257765  0.12277582113033961  0.4314376498642432  1.0000
  C   C40       1.0  0.7499408813267722  0.8772231511208519  0.5685627428241985  1.0000
  C   C41       1.0  0.749941006605617  0.6227759176830715  0.068563062649595  1.0000
  C   C42       1.0  0.7499410701469316  0.3772230545681197  0.9314373300388467  1.0000
  C   C43       1.0  0.25005892429484794  0.8772239245615623  0.5685627513246844  1.0000
  C   C44       1.0  0.2500592383941367  0.12277593761420752  0.4314371080370663  1.0000
  C   C45       1.0  0.12915703518428498  0.3740868869405958  0.9313223223746477  1.0000
  C   C46       1.0  0.1291569690700456  0.6259130315810142  0.0686775410990137  1.0000
  C   C47       1.0  0.8708432733660274  0.12591341918406582  0.431322629040686  1.0000
  C   C48       1.0  0.8708429618206353  0.874086810635106  0.5686777595357383  1.0000
  C   C49       1.0  0.8708422144743081  0.6259128587515124  0.068678078814294  1.0000
  C   C50       1.0  0.870842280588569  0.37408671411115796  0.9313223097622084  1.0000
  C   C51       1.0  0.1291568463542987  0.874086983464679  0.5686783224759111  1.0000
  C   C52       1.0  0.12915715790001062  0.12591293505686002  0.4313220913254696  1.0000
  C   C53       1.0  0.0645166188652269  0.4455454225970641  0.9043804732401242  1.0000
  C   C54       1.0  0.0645166088469651  0.5544545260498878  0.0956193924319706  1.0000
  C   C55       1.0  0.9354828219203098  0.054454890221869306  0.4043802398383676  1.0000
  C   C56       1.0  0.9354824496842226  0.945545966429421  0.5956190458841489  1.0000
  C   C57       1.0  0.9354826307933735  0.5544543230950366  0.0956199279488175  1.0000
  C   C58       1.0  0.9354826408116566  0.4455452196422841  0.9043804584292516  1.0000
  C   C59       1.0  0.0645164277380132  0.9455455124271452  0.5956201613505173  1.0000
  C   C60       1.0  0.0645167999741716  0.054454436219806716  0.4043797043215704  1.0000
  C   C61       1.0  0.1288776891180987  0.5171471447975905  0.8774589840251821  1.0000
  C   C62       1.0  0.1288777353146031  0.4828527738542476  0.1225403291302527  1.0000
  C   C63       1.0  0.8711222154440533  0.9828526206984236  0.3774586781238085  1.0000
  C   C64       1.0  0.8711217295019933  0.017148265947774608  0.6225411601153468  1.0000
  C   C65       1.0  0.871121560540523  0.4828526008945816  0.1225408668360402  1.0000
  C   C66       1.0  0.8711215143437698  0.5171476287949021  0.8774589714031862  1.0000
  C   C67       1.0  0.12887790427659243  0.017147124993549298  0.6225411727373995  1.0000
  C   C68       1.0  0.12887839021809103  0.9828527936579549  0.37745924107346707  1.0000
  C   C69       1.0  0.24973626600549886  0.5150974108765568  0.8790076043610142  1.0000
  C   C70       1.0  0.2497363106590882  0.4849024514496493  0.12099225501171419  1.0000
  C   C71       1.0  0.7502645084866373  0.9849023542344783  0.379007302212699  1.0000
  C   C72       1.0  0.7502640243518286  0.0150979317799624  0.6209925401369106  1.0000
  C   C73       1.0  0.7502647237774198  0.48490167785822536  0.1209927968279558  1.0000
  C   C74       1.0  0.7502638090615577  0.5150972942423238  0.8790075958494938  1.0000
  C   C75       1.0  0.24973648129576284  0.015098048414202503  0.6209925486484309  1.0000
  C   C76       1.0  0.2497360953685472  0.9849024708689175  0.3790073107242407  1.0000
  N   N1        1.0  0.3099219634261345  0.4468251172359814  0.9063198238510851  1.0000
  N   N2        1.0  0.3099219546190001  0.5531747170409816  0.093680033474719  1.0000
  N   N3        1.0  0.690078347256339  0.053174538143984804  0.4063195990187793  1.0000
  N   N4        1.0  0.6900788442018496  0.9468251189627924  0.5936802453778185  1.0000
  N   N5        1.0  0.6900772862324587  0.5531746284561195  0.0936805773378566  1.0000
  N   N6        1.0  0.690078165101646  0.4468250286509915  0.906319817386489  1.0000
  N   N7        1.0  0.3099226425263382  0.9468252075477893  0.5936802518424145  1.0000
  N   N8        1.0  0.3099221455808491  0.05317462672903871  0.4063190551556488  1.0000
  O   O1        1.0  0.5000000955408411  0.3619534565142075  0.9860700196602679  1.0000
  O   O2        1.0  0.5000000241795136  0.6380469461346084  0.013930381528609802  1.0000
  O   O3        1.0  0.5000002083413904  0.1380468360078524  0.48606978649565485  1.0000
  O   O4        1.0  0.49999991137925553  0.8619529096841207  0.5139300643655531  1.0000
  O   O5        1.0  0.5000001099668908  0.41895049115077404  0.1014517700464452  1.0000
  O   O6        1.0  0.5000000097537551  0.581049254541199  0.8985480808147628  1.0000
  O   O7        1.0  0.500000226710455  0.08104923997704108  0.6014515018571913  1.0000
  O   O8        1.0  0.49999989301019104  0.9189505057149249  0.3985483490040096  1.0000
  O   O9        1.0  0.5000002448592654  0.06878060792078602  0.2933318160925396  1.0000
  O   O10       1.0  0.49999987486135916  0.9312191377711089  0.706668585096395  1.0000
  O   O11       1.0  0.500000075457244  0.4312190755323114  0.7933314868533401  1.0000
  O   O12       1.0  0.5000000442634018  0.5687806701596616  0.2066683640078679  1.0000
  O   O13       1.0  0.5000001843140112  0.2144016740131534  0.3178956813121872  1.0000
  O   O14       1.0  0.499999935406926  0.7855974147219698  0.6821036192213583  1.0000
  O   O15       1.0  0.50000013390801  0.2855980033367089  0.8178959277888396  1.0000
  O   O16       1.0  0.49999998581236577  0.7144023993121706  0.1821039230723116  1.0000
