data_image0
_chemical_formula_structural       Ag2H22C38S2N6O8F6
_chemical_formula_sum              "Ag2 H22 C38 S2 N6 O8 F6"
_cell_length_a       8.531326895423529
_cell_length_b       10.850449006722677
_cell_length_c       11.179073169368374
_cell_angle_alpha    100.60355662811104
_cell_angle_beta     102.42324479179797
_cell_angle_gamma    105.92843902826924

_space_group_name_H-M_alt    "P 1"
_space_group_IT_number       1

loop_
  _space_group_symop_operation_xyz
  'x, y, z'

loop_
  _atom_site_type_symbol
  _atom_site_label
  _atom_site_symmetry_multiplicity
  _atom_site_fract_x
  _atom_site_fract_y
  _atom_site_fract_z
  _atom_site_occupancy
  Ag  Ag1       1.0  0.4283055123734203  0.6165746158805093  0.24821732472217667  1.0000
  Ag  Ag2       1.0  0.5716930736206578  0.3834237191012805  0.7517781638132631  1.0000
  H   H1        1.0  0.361654756450598  0.5579292867668073  0.7952258485366741  1.0000
  H   H2        1.0  0.6383514829221824  0.4420730351104041  0.20477161586393317  1.0000
  H   H3        1.0  0.08563431939651889  0.7364923797252488  0.44395399532763236  1.0000
  H   H4        1.0  0.9143662906141543  0.26350794688431733  0.5560412920407458  1.0000
  H   H5        1.0  0.021194889599321743  0.576435823527561  0.21346063255597167  1.0000
  H   H6        1.0  0.9788040759289843  0.42356052344995737  0.7865363446504077  1.0000
  H   H7        1.0  0.12992805890037573  0.3721130996960866  0.23486232307669036  1.0000
  H   H8        1.0  0.8700673014366913  0.6278832292783677  0.765135851478192  1.0000
  H   H9        1.0  0.35607638198847275  0.31820472956314216  0.2866306326932531  1.0000
  H   H10       1.0  0.6439165747206417  0.6817916029694048  0.7133644665838618  1.0000
  H   H11       1.0  0.387110080980051  0.1057402075866349  0.1942704601769094  1.0000
  H   H12       1.0  0.612892110513812  0.8942581166718147  0.8057309821056152  1.0000
  H   H13       1.0  0.2743215041004491  0.9598367960958072  0.5113565971855465  1.0000
  H   H14       1.0  0.725681541423441  0.040166482039254006  0.4886467819540101  1.0000
  H   H15       1.0  0.2433289277019668  0.175883236568616  0.60451070493054  1.0000
  H   H16       1.0  0.7566672866265591  0.8241180498732491  0.39548851259443296  1.0000
  H   H17       1.0  0.33917080607599104  0.7252010806764702  0.9296074704597572  1.0000
  H   H18       1.0  0.6608253448291136  0.2747942632810236  0.07038975906093008  1.0000
  H   H19       1.0  0.30061401240379854  0.9679202815029486  0.9890218009011278  1.0000
  H   H20       1.0  0.6993857755392483  0.03207803913199571  0.010978353877518967  1.0000
  H   H21       1.0  0.1972967096811971  0.022718818321209297  0.759901876439784  1.0000
  H   H22       1.0  0.8027103204910235  0.9772824969942422  0.24010000624831912  1.0000
  C   C1        1.0  0.2015279658834856  0.592408724793053  0.5126493897517718  1.0000
  C   C2        1.0  0.7984710312986749  0.4075905988128454  0.4873472406263275  1.0000
  C   C3        1.0  0.12074269414566884  0.6478348801375874  0.42333811690089374  1.0000
  C   C4        1.0  0.879254278942767  0.3521624590221322  0.5766569268703776  1.0000
  C   C5        1.0  0.08827424580355372  0.5639783845910102  0.3023678362045175  1.0000
  C   C6        1.0  0.9117239290795781  0.436018954585066  0.697628298262167  1.0000
  C   C7        1.0  0.14821113984135087  0.45544308479190954  0.31277183279899395  1.0000
  C   C8        1.0  0.8517874462684318  0.5445552394174838  0.6872263373972913  1.0000
  C   C9        1.0  0.21840327213651287  0.4699714742442326  0.44289965214915833  1.0000
  C   C10       1.0  0.7815965157293974  0.5300268535723094  0.5570987148555916  1.0000
  C   C11       1.0  0.28763585315780205  0.39190899056494294  0.5119691769782265  1.0000
  C   C12       1.0  0.7123651365027969  0.6080893372679556  0.4880302807219365  1.0000
  C   C13       1.0  0.30045504292864683  0.2628362314016713  0.45333661657674185  1.0000
  C   C14       1.0  0.6995411396688879  0.737162085593404  0.5466611600026141  1.0000
  C   C15       1.0  0.337207736060364  0.24066214964752675  0.3363582024864868  1.0000
  C   C16       1.0  0.6627892371052084  0.759335182330595  0.6636386290586741  1.0000
  C   C17       1.0  0.3546109066035187  0.12067640324686119  0.2836277332401664  1.0000
  C   C18       1.0  0.645390083134217  0.8793219174044395  0.7163735122338935  1.0000
  C   C19       1.0  0.3339891430997213  0.0197786426501025  0.3474338243346224  1.0000
  C   C20       1.0  0.6660154837145171  0.9802226510878428  0.6525712402843383  1.0000
  C   C21       1.0  0.3549251567521028  0.8982092825271624  0.2946923936262423  1.0000
  C   C22       1.0  0.6450822530314825  0.101790037602413  0.7053127655066902  1.0000
  C   C23       1.0  0.29217820151609436  0.03915033270556731  0.46321807790928915  1.0000
  C   C24       1.0  0.7078232311407222  0.9608519460166324  0.5367857503530402  1.0000
  C   C25       1.0  0.2754645474474842  0.15979716231383634  0.5149444416208411  1.0000
  C   C26       1.0  0.7245340704318579  0.8402041277515406  0.48505606340800256  1.0000
  C   C27       1.0  0.257356675753755  0.6251800384796412  0.6451247346268901  1.0000
  C   C28       1.0  0.7426435231845402  0.37481928873341286  0.35487209255967406  1.0000
  C   C29       1.0  0.25621926154578023  0.74021219332446  0.7326728274442686  1.0000
  C   C30       1.0  0.7437781228464431  0.25978612368697185  0.26732603983050046  1.0000
  C   C31       1.0  0.2989421769051219  0.7797677546142766  0.8633349463609576  1.0000
  C   C32       1.0  0.701060014473036  0.22023058041657606  0.13666381426072147  1.0000
  C   C33       1.0  0.2791280316270104  0.906776223963881  0.8949955393580851  1.0000
  C   C34       1.0  0.7208725469226422  0.09322110806330391  0.1050045642733153  1.0000
  C   C35       1.0  0.2262016270372556  0.937381218491531  0.783106002890037  1.0000
  C   C36       1.0  0.7738021772851198  0.06261810877058589  0.21689409638276655  1.0000
  C   C37       1.0  0.0857374473458705  0.23645348128845714  0.9374529202901272  1.0000
  C   C38       1.0  0.9142631947429081  0.7635497824506956  0.06255185300638999  1.0000
  S   S1        1.0  0.3027895094813715  0.35683713675446443  0.9711545476392658  1.0000
  S   S2        1.0  0.6972115119487938  0.6431641569344179  0.02884724489345561  1.0000
  N   N1        1.0  0.3715100986260325  0.7978787833381205  0.2514310918095362  1.0000
  N   N2        1.0  0.6284997781317898  0.20212648289933813  0.7485773428315524  1.0000
  N   N3        1.0  0.34199770314681627  0.42954182814840164  0.639113910786179  1.0000
  N   N4        1.0  0.6580041087742501  0.5704584877051175  0.3608851489384506  1.0000
  N   N5        1.0  0.3227549577181963  0.5412899569984689  0.698687468060868  1.0000
  N   N6        1.0  0.6772472652752627  0.4587113582515698  0.30131005184558296  1.0000
  O   O1        1.0  0.2113536257465115  0.8370551732513009  0.6827004837720878  1.0000
  O   O2        1.0  0.78864777510217  0.1629441432057064  0.3173001157707276  1.0000
  O   O3        1.0  0.3652423158941501  0.38971470810346187  0.1103231463122327  1.0000
  O   O4        1.0  0.6347599072535671  0.6102865927833747  0.8896779491420048  1.0000
  O   O5        1.0  0.38751337456576357  0.2791309743134534  0.9046619255036248  1.0000
  O   O6        1.0  0.6124864450311448  0.7208703229498709  0.09533788244673495  1.0000
  O   O7        1.0  0.2724038899247392  0.4660840597402541  0.9221093489574131  1.0000
  O   O8        1.0  0.7275951391426929  0.5339182189492321  0.07789229791409726  1.0000
  F   F1        1.0  0.9802132709967708  0.2952893367812451  0.9801049179693564  1.0000
  F   F2        1.0  0.01978898399764267  0.7047149227799707  0.019900300091343606  1.0000
  F   F3        1.0  0.018790386148268116  0.1829630460236515  0.8097585632423617  1.0000
  F   F4        1.0  0.9812082635392091  0.8170412063069039  0.19024517050598902  1.0000
  F   F5        1.0  0.08947455880053923  0.13513810115887281  0.9923713764513522  1.0000
  F   F6        1.0  0.9105228574383804  0.8648631745269457  0.007631613429872231  1.0000
