data_image0
_chemical_formula_structural       Zn4H26C42O14
_chemical_formula_sum              "Zn4 H26 C42 O14"
_cell_length_a       15.046817729766062
_cell_length_b       15.071133919550936
_cell_length_c       19.620305145531255
_cell_angle_alpha    89.03732461232264
_cell_angle_beta     88.59961124503596
_cell_angle_gamma    90.08338559265808

_space_group_name_H-M_alt    "P 1"
_space_group_IT_number       1

loop_
  _space_group_symop_operation_xyz
  'x, y, z'

loop_
  _atom_site_type_symbol
  _atom_site_label
  _atom_site_symmetry_multiplicity
  _atom_site_fract_x
  _atom_site_fract_y
  _atom_site_fract_z
  _atom_site_occupancy
  Zn  Zn1       1.0  0.43492297535384944  0.4309342024247301  0.5685335164600931  1.0000
  Zn  Zn2       1.0  0.4215443851965616  0.5691816990368396  0.43845188494100285  1.0000
  Zn  Zn3       1.0  0.5709701600585788  0.4271831276999336  0.43891330703282716  1.0000
  Zn  Zn4       1.0  0.5750993435994616  0.5812170953028186  0.5528701828359246  1.0000
  H   H1        1.0  0.3736255746458069  0.4727167933541665  0.7677070991789352  1.0000
  H   H2        1.0  0.1649183329708279  0.46607868359242133  0.6312017975596192  1.0000
  H   H3        1.0  0.0007067468788264  0.5271360365404121  0.3622053759719962  1.0000
  H   H4        1.0  0.5606085104500096  0.35688799574084845  0.23506431888645107  1.0000
  H   H5        1.0  0.9996621017775882  0.47227489705085895  0.6440312258912686  1.0000
  H   H6        1.0  0.8352936718276922  0.5197336315932688  0.37325031865502484  1.0000
  H   H7        1.0  0.8512514865291648  0.49366486337754617  0.5912872743569793  1.0000
  H   H8        1.0  0.3884326269864857  0.5833765220309175  0.22459964948519226  1.0000
  H   H9        1.0  0.6212822514430768  0.5933027209658236  0.9003511276909678  1.0000
  H   H10       1.0  0.5557752811398088  0.3418573000065166  0.109646382499605  1.0000
  H   H11       1.0  0.5020060704149358  0.5891065353346151  0.008802336877948798  1.0000
  H   H12       1.0  0.3849527698065245  0.5707065842358362  0.098041279766349  1.0000
  H   H13       1.0  0.3603843237858512  0.47497395699620176  0.8943363983937546  1.0000
  H   H14       1.0  0.47875545753776544  0.36447292154490896  0.9328653096227414  1.0000
  H   H15       1.0  0.5100984633032013  0.3149236838239418  0.011491661484363605  1.0000
  H   H16       1.0  0.3969532353778291  0.3355852922744589  0.9966447263564863  1.0000
  H   H17       1.0  0.6258598001368085  0.7082537471508132  0.7182031007471823  1.0000
  H   H18       1.0  0.7388839932750456  0.6887464383171321  0.7416447637833345  1.0000
  H   H19       1.0  0.6582129581658336  0.7203318355315318  0.8055948224269898  1.0000
  H   H20       1.0  0.5388064686576897  0.852242639048761  0.578880602207569  1.0000
  H   H21       1.0  0.45635466272288033  0.840367148892959  0.3710110726198438  1.0000
  H   H22       1.0  0.547326877206835  0.9986062721224727  0.6358086820236509  1.0000
  H   H23       1.0  0.4607785625702546  0.0055579935442367  0.3611161267663477  1.0000
  H   H24       1.0  0.5381497351919433  0.16369075032039865  0.6288547392910077  1.0000
  H   H25       1.0  0.4896069991124746  0.15222670887594356  0.4139292328680213  1.0000
  H   H26       1.0  0.1483110635889986  0.5222463863419194  0.4164288198898092  1.0000
  C   C1        1.0  0.5002332015067806  0.7385622804766924  0.4808050546510431  1.0000
  C   C2        1.0  0.48701618153906173  0.5282331329915239  0.9816835081900309  1.0000
  C   C3        1.0  0.4733485687324546  0.45268735112951225  0.0189652070983115  1.0000
  C   C4        1.0  0.5127550228243649  0.2657069160344959  0.5156185465969403  1.0000
  C   C5        1.0  0.4757735376215492  0.47170508308716563  0.23751069136533695  1.0000
  C   C6        1.0  0.49921623649161967  0.8374288566768584  0.47562347709376956  1.0000
  C   C7        1.0  0.5147141902165727  0.16678548275363875  0.5202661966101375  1.0000
  C   C8        1.0  0.5332677951828728  0.0324178535250823  0.5876141355727071  1.0000
  C   C9        1.0  0.5290811287379212  0.12357303081634541  0.5838657901327977  1.0000
  C   C10       1.0  0.5006797067153669  0.1179401889030842  0.4624194485116959  1.0000
  C   C11       1.0  0.498428170538581  0.024107865013270707  0.465867290848287  1.0000
  C   C12       1.0  0.4899764043709994  0.5338762231507844  0.9067535453958231  1.0000
  C   C13       1.0  0.5180142063171829  0.9803251065218319  0.529315052467972  1.0000
  C   C14       1.0  0.5207825849003527  0.8865673553451003  0.5318584345464361  1.0000
  C   C15       1.0  0.47501939437224644  0.8807148593690854  0.4139642932270889  1.0000
  C   C16       1.0  0.26442000048688635  0.495411761439577  0.515758942778618  1.0000
  C   C17       1.0  0.47686585693481476  0.9718769902702532  0.40890587389189653  1.0000
  C   C18       1.0  0.16550192849254589  0.49528067625276156  0.5227756236798129  1.0000
  C   C19       1.0  0.8345769416530331  0.5072316274575712  0.48336743425459633  1.0000
  C   C20       1.0  0.967805042568571  0.5182737783882486  0.4120669776307437  1.0000
  C   C21       1.0  0.8766259543696152  0.5150303841534482  0.41796165163988525  1.0000
  C   C22       1.0  0.8846639800601678  0.499513713304701  0.5414071172275925  1.0000
  C   C23       1.0  0.5649572004174387  0.5690508075103794  0.8719158887051535  1.0000
  C   C24       1.0  0.9786113606461128  0.4969209276421509  0.5363984118340213  1.0000
  C   C25       1.0  0.021142198665124595  0.5088706612739671  0.47053024962616524  1.0000
  C   C26       1.0  0.11500069847848239  0.510307246228983  0.46572923168641733  1.0000
  C   C27       1.0  0.12346517351753758  0.47935586061991137  0.5874488132012632  1.0000
  C   C28       1.0  0.7355713904838338  0.5058666861294654  0.48891694938427593  1.0000
  C   C29       1.0  0.032265577804686495  0.4822084827338459  0.5941688561158928  1.0000
  C   C30       1.0  0.48162683876108053  0.48144389494201784  0.3127147722266345  1.0000
  C   C31       1.0  0.5064571137245579  0.5257175704348  0.6868228841109741  1.0000
  C   C32       1.0  0.5030724349954382  0.5325933015387889  0.7625319368894596  1.0000
  C   C33       1.0  0.42701780687603724  0.49984629195067504  0.797628098652446  1.0000
  C   C34       1.0  0.5729602498459555  0.5672377756913817  0.8007713336637394  1.0000
  C   C35       1.0  0.41999827802549566  0.5006594672816009  0.8682140898326767  1.0000
  C   C36       1.0  0.46437841449922257  0.3625761904045817  0.9878640301871972  1.0000
  C   C37       1.0  0.6691004049385966  0.6825958642703611  0.758460695893433  1.0000
  C   C38       1.0  0.5188119846083907  0.3951838056947067  0.13422018733784571  1.0000
  C   C39       1.0  0.5219015232821532  0.40316061943330084  0.20458727769330662  1.0000
  C   C40       1.0  0.42574241505500504  0.5314701704428302  0.19863174416388327  1.0000
  C   C41       1.0  0.42434728217996553  0.5243732999190199  0.12805896531124014  1.0000
  C   C42       1.0  0.47185695043408055  0.45694507524083855  0.09431084681281734  1.0000
  O   O1        1.0  0.49986803206506647  0.5028767028492923  0.49953767443347646  1.0000
  O   O2        1.0  0.4328286138891001  0.5403869091640133  0.34100082689295874  1.0000
  O   O3        1.0  0.5514984771453938  0.5829787397526544  0.6518751109976365  1.0000
  O   O4        1.0  0.5360053738983552  0.4302846785578608  0.3432404511163441  1.0000
  O   O5        1.0  0.46139124699790557  0.46213060525236227  0.6626073668107326  1.0000
  O   O6        1.0  0.6534682669893428  0.5896299667845569  0.770247639954498  1.0000
  O   O7        1.0  0.3065965871633907  0.45124666050675444  0.5607502580673512  1.0000
  O   O8        1.0  0.6995778113043868  0.542814924543265  0.5407397353202158  1.0000
  O   O9        1.0  0.44741812784209145  0.6969828522826874  0.4424765444214458  1.0000
  O   O10       1.0  0.5528247920390825  0.3014673579179999  0.4640745616532912  1.0000
  O   O11       1.0  0.5537238556805093  0.7043471783247099  0.5233676922919841  1.0000
  O   O12       1.0  0.47074428593845846  0.3055015398220889  0.5634072087336791  1.0000
  O   O13       1.0  0.29816179751878025  0.5395377417324596  0.4653448650147214  1.0000
  O   O14       1.0  0.6953027868063375  0.4675382609135428  0.4408590252708465  1.0000
