data_image0
_chemical_formula_structural       Zr6H32C50O32
_chemical_formula_sum              "Zr6 H32 C50 O32"
_cell_length_a       9.340979024967714
_cell_length_b       17.799090181946557
_cell_length_c       28.99831895661298
_cell_angle_alpha    86.58816262933475
_cell_angle_beta     83.13580904141541
_cell_angle_gamma    90.98720446620779

_space_group_name_H-M_alt    "P 1"
_space_group_IT_number       1

loop_
  _space_group_symop_operation_xyz
  'x, y, z'

loop_
  _atom_site_type_symbol
  _atom_site_label
  _atom_site_symmetry_multiplicity
  _atom_site_fract_x
  _atom_site_fract_y
  _atom_site_fract_z
  _atom_site_occupancy
  Zr  Zr1       1.0  0.9675204805117659  0.1144837033013957  0.04711533017119509  1.0000
  Zr  Zr2       1.0  0.0272692252913203  0.8953268796019671  0.9560452185042793  1.0000
  Zr  Zr3       1.0  0.1258912822640283  0.9447059756491357  0.06086643725960529  1.0000
  Zr  Zr4       1.0  0.8622687068396572  0.07180195838168402  0.9381612091586575  1.0000
  Zr  Zr5       1.0  0.23844026071022034  0.0639799214025203  0.9592343427617891  1.0000
  Zr  Zr6       1.0  0.7438160210791266  0.9484923274426365  0.0408833742393995  1.0000
  H   H1        1.0  0.0494881504116549  0.18847345828817205  0.9571326678080825  1.0000
  H   H2        1.0  0.3158151652955682  0.9084424204297223  0.9792965227976467  1.0000
  H   H3        1.0  0.732634538981543  0.9215875911443305  0.9464850121652404  1.0000
  H   H4        1.0  0.868268472992675  0.9945176289752452  0.11876553796774662  1.0000
  H   H5        1.0  0.5347661222194945  0.0732292027980534  0.9711009927177372  1.0000
  H   H6        1.0  0.0266902705414651  0.8031881086754781  0.08824208481750871  1.0000
  H   H7        1.0  0.6942114874682801  0.8442578741141418  0.10771256661735151  1.0000
  H   H8        1.0  0.28035015173475125  0.18301343612096588  0.8887151814122518  1.0000
  H   H9        1.0  0.11563308447232859  0.14250421866962884  0.884394410402713  1.0000
  H   H10       1.0  0.5824845149911795  0.046556448382162316  0.9129967283831135  1.0000
  H   H11       1.0  0.4600515723863268  0.898686946289992  0.03205782701480329  1.0000
  H   H12       1.0  0.3737344201753601  0.0328101024451755  0.8810131078520982  1.0000
  H   H13       1.0  0.1572514870650963  0.8423094847997633  0.8743784468822896  1.0000
  H   H14       1.0  0.7940332688441033  0.20737548137951478  0.1003224980323196  1.0000
  H   H15       1.0  0.5361146637859306  0.008482558532350002  0.094121059245829  1.0000
  H   H16       1.0  0.9475134706138489  0.1324997691345828  0.8527371993659969  1.0000
  H   H17       1.0  0.2312598294249284  0.8053792117907649  0.9171455301712257  1.0000
  H   H18       1.0  0.351833867576957  0.8851387371297578  0.09916785330536729  1.0000
  H   H19       1.0  0.48515731403736595  0.05812115597473879  0.027255032378505503  1.0000
  H   H20       1.0  0.5006657377292996  0.9682133704612711  0.9973058734281467  1.0000
  H   H21       1.0  0.075585602479336  0.829606591570368  0.1357181761774413  1.0000
  H   H22       1.0  0.9011898660500249  0.16838181441736566  0.1333596022131474  1.0000
  H   H23       1.0  0.2382186852905193  0.4925012570928473  0.012472731367814995  1.0000
  H   H24       1.0  0.7746075257721969  0.5111397834313537  0.988162390959296  1.0000
  H   H25       1.0  0.8628604544750332  0.05491356254061229  0.2904338628637362  1.0000
  H   H26       1.0  0.0507912152641268  0.0343989950125021  0.419244992349185  1.0000
  H   H27       1.0  0.32633880786869446  0.0517729097835655  0.288451204376571  1.0000
  H   H28       1.0  0.6999342452226286  0.9469001338876094  0.7129376101611485  1.0000
  H   H29       1.0  0.9720606127967174  0.9656436354491549  0.5814496778176874  1.0000
  H   H30       1.0  0.16369295503231737  0.9436648967614547  0.7095075940629343  1.0000
  H   H31       1.0  0.24828910765345574  0.998886545011807  0.4982887664466206  1.0000
  H   H32       1.0  0.7772646806143371  0.0010888490261891002  0.502498464423887  1.0000
  C   C1        1.0  0.2434104181963477  0.22303639837119252  0.009824272123552203  1.0000
  C   C2        1.0  0.7837389019977365  0.23306892251105177  0.99190545574114  1.0000
  C   C3        1.0  0.12443774596942352  0.05615186109916691  0.1430903734162854  1.0000
  C   C4        1.0  0.14845161531668083  0.742757935559922  0.015593142120721402  1.0000
  C   C5        1.0  0.7749128667373384  0.7792726766783956  0.9959101503797713  1.0000
  C   C6        1.0  0.9098593648257702  0.9473988714615942  0.8572114119237213  1.0000
  C   C7        1.0  0.4347064434029875  0.4307984141240482  0.0033608106530067937  1.0000
  C   C8        1.0  0.5887861901190307  0.4358446446230602  0.9961318263733929  1.0000
  C   C9        1.0  0.6572547774002259  0.5068673752807342  0.9931380872753763  1.0000
  C   C10       1.0  0.5778120456258691  0.5730209362234717  0.9967246442631678  1.0000
  C   C11       1.0  0.42381407972815305  0.5678350081961839  0.0032922196630735963  1.0000
  C   C12       1.0  0.3555344797957147  0.4965994988670559  0.006879295988476005  1.0000
  C   C13       1.0  0.09639651125410609  0.0549712107550633  0.2843611773838433  1.0000
  C   C14       1.0  0.9570355643289191  0.0521801599551637  0.30918827127106846  1.0000
  C   C15       1.0  0.9401138033572137  0.04416838216349111  0.35806138318064745  1.0000
  C   C16       1.0  0.0635033334442809  0.0405289925195333  0.3813936248521443  1.0000
  C   C17       1.0  0.20292489121877116  0.0433534292646485  0.3568973721540374  1.0000
  C   C18       1.0  0.21932880429049825  0.0504774914277633  0.3080478267745193  1.0000
  C   C19       1.0  0.9303018296218468  0.9434993426266727  0.7163348886990448  1.0000
  C   C20       1.0  0.8064976552335067  0.9483267201789186  0.6930442951761792  1.0000
  C   C21       1.0  0.8215814066940368  0.9560868017283969  0.6441848884839344  1.0000
  C   C22       1.0  0.9604924969718807  0.959124325720694  0.6192783043134681  1.0000
  C   C23       1.0  0.08449702221142268  0.9551644489538162  0.6422559133361431  1.0000
  C   C24       1.0  0.0689160798983934  0.946578182722462  0.6910633388036871  1.0000
  C   C25       1.0  0.4559622145004312  0.013804916432931698  0.4574610980791292  1.0000
  C   C26       1.0  0.6080285386103198  0.014337419764523001  0.4586340346730466  1.0000
  C   C27       1.0  0.6610582321047643  0.0005641097078096998  0.5015675704933429  1.0000
  C   C28       1.0  0.5695748086887279  0.9861517920785019  0.5433471968057759  1.0000
  C   C29       1.0  0.41754064522152845  0.9855536589856301  0.5421200424986169  1.0000
  C   C30       1.0  0.3645047823290213  0.9993978289474795  0.4992173291594568  1.0000
  C   C31       1.0  0.3174203341870836  0.9720346286397474  0.5822064466415497  1.0000
  C   C32       1.0  0.21820706739417522  0.9623487852390441  0.6135444598035137  1.0000
  C   C33       1.0  0.7068872310426927  0.963602172435287  0.6165165559731989  1.0000
  C   C34       1.0  0.6334039980300333  0.9730618656293187  0.5846490337240057  1.0000
  C   C35       1.0  0.70785572788931  0.027693971102088703  0.4183965882848  1.0000
  C   C36       1.0  0.8061697790376385  0.037264773535937906  0.3867315268676422  1.0000
  C   C37       1.0  0.31723342323937237  0.03618479662799251  0.3846734822777194  1.0000
  C   C38       1.0  0.3916968381306988  0.0268990765580739  0.41627194139352497  1.0000
  C   C39       1.0  0.7211393243196156  0.3068443570215322  0.9915447355826359  1.0000
  C   C40       1.0  0.6660953387804724  0.36834020811117807  0.9931709303404829  1.0000
  C   C41       1.0  0.3368389223649332  0.6319899489205343  0.006504741819142599  1.0000
  C   C42       1.0  0.2517921674322566  0.6831325812874313  0.009860796179829398  1.0000
  C   C43       1.0  0.7099009307028935  0.7051446231026262  0.995052730218859  1.0000
  C   C44       1.0  0.649557554373409  0.6438873511965256  0.9951063299056814  1.0000
  C   C45       1.0  0.3086465861717755  0.29685919341240913  0.009722057000480804  1.0000
  C   C46       1.0  0.3643720163293125  0.35955083324113707  0.007048971456114798  1.0000
  C   C47       1.0  0.917826090365203  0.9387680182896646  0.7656900542589398  1.0000
  C   C48       1.0  0.9114670334513589  0.9378361087607275  0.8079184356318265  1.0000
  C   C49       1.0  0.1125099942115853  0.0596372342988332  0.23496836557841053  1.0000
  C   C50       1.0  0.12549528811779  0.060980946543701  0.1926192915474374  1.0000
  O   O1        1.0  0.8291196727002302  0.15933735022645837  0.11217708059434982  1.0000
  O   O2        1.0  0.13499892886720488  0.20712163195535988  0.0403044018953054  1.0000
  O   O3        1.0  0.076711878709574  0.11149049778030222  0.1205295406342017  1.0000
  O   O4        1.0  0.7787115271629617  0.194601182347462  0.9572752957782527  1.0000
  O   O5        1.0  0.16726268543560963  0.9938933298140004  0.126613818206863  1.0000
  O   O6        1.0  0.8412762952938379  0.21425538259831003  0.029228823160139014  1.0000
  O   O7        1.0  0.2985304544826661  0.1812690585850234  0.9784320512095663  1.0000
  O   O8        1.0  0.1461375476832956  0.05057392671879769  0.030870401835059604  1.0000
  O   O9        1.0  0.0363802246407801  0.1368648593448043  0.9699486377636859  1.0000
  O   O10       1.0  0.9108869251516791  0.002606749823414099  0.08653121057007242  1.0000
  O   O11       1.0  0.8354678815188876  0.05640893308445529  0.011216592514458123  1.0000
  O   O12       1.0  0.6510558751050154  0.07364779307862793  0.9299849625378303  1.0000
  O   O13       1.0  0.4472720700401567  0.05744699713370952  0.9956780176100609  1.0000
  O   O14       1.0  0.06084460829703889  0.007802522300735902  0.9373959255426669  1.0000
  O   O15       1.0  0.22862375140285  0.9370139037911969  0.9863539512644408  1.0000
  O   O16       1.0  0.9682273338076256  0.9077979748607916  0.024683162561657885  1.0000
  O   O17       1.0  0.805411565966196  0.9465225564594492  0.9619149388370332  1.0000
  O   O18       1.0  0.31553164830827996  0.8907757333791793  0.06912493942049738  1.0000
  O   O19       1.0  0.0649020601095103  0.741169754371569  0.0529334410541864  1.0000
  O   O20       1.0  0.1532976894726517  0.7917004494155435  0.9807883303883358  1.0000
  O   O21       1.0  0.5943020518086755  0.029224064569270104  0.0660233957073189  1.0000
  O   O22       1.0  0.8743132900994227  0.7985080177231509  0.9624829613845947  1.0000
  O   O23       1.0  0.0228243352060034  0.8462140989329614  0.1101791190054655  1.0000
  O   O24       1.0  0.6815476322394148  0.8983502681956707  0.10459391153698051  1.0000
  O   O25       1.0  0.5384338609275047  0.9175928556735469  0.006367988588010599  1.0000
  O   O26       1.0  0.7268573104315905  0.8187629620403457  0.028805712445219494  1.0000
  O   O27       1.0  0.20928884205069662  0.8529966010338158  0.9006868490907609  1.0000
  O   O28       1.0  0.9724120050437932  0.14476171183550693  0.8830614926845185  1.0000
  O   O29       1.0  0.9620144362703088  0.8947325739648946  0.8817310318120735  1.0000
  O   O30       1.0  0.8582304077631592  0.008451625516436002  0.8712283253294971  1.0000
  O   O31       1.0  0.22910715051826  0.13469482394591384  0.8911178294388622  1.0000
  O   O32       1.0  0.3936237255910413  0.020113959387146  0.9126803637521307  1.0000
