data_image0
_chemical_formula_structural       Mn2H34C40N4O10
_chemical_formula_sum              "Mn2 H34 C40 N4 O10"
_cell_length_a       9.392804203337072
_cell_length_b       9.618657464568727
_cell_length_c       10.985453314060518
_cell_angle_alpha    94.17237994852164
_cell_angle_beta     101.15952529655944
_cell_angle_gamma    108.5084194654484

_space_group_name_H-M_alt    "P 1"
_space_group_IT_number       1

loop_
  _space_group_symop_operation_xyz
  'x, y, z'

loop_
  _atom_site_type_symbol
  _atom_site_label
  _atom_site_symmetry_multiplicity
  _atom_site_fract_x
  _atom_site_fract_y
  _atom_site_fract_z
  _atom_site_occupancy
  Mn  Mn1       1.0  0.43279908188151245  0.517069123136821  0.620388067857249  1.0000
  Mn  Mn2       1.0  0.5671990839238035  0.48293110576162235  0.37961675888084306  1.0000
  H   H1        1.0  0.9429429079723023  0.35362999390851263  0.407789736793852  1.0000
  H   H2        1.0  0.05706447265127694  0.6463746424240999  0.59220508475849  1.0000
  H   H3        1.0  0.6802769051319046  0.21263070042044774  0.27939793033591803  1.0000
  H   H4        1.0  0.31972759152016295  0.7873750456562619  0.7205991982578086  1.0000
  H   H5        1.0  0.6479453813350418  0.02757328196852881  0.09501444932304541  1.0000
  H   H6        1.0  0.35205381527548246  0.9724236118995438  0.904985802079594  1.0000
  H   H7        1.0  0.8791182843178762  0.9781486170109026  0.04816298706425938  1.0000
  H   H8        1.0  0.12087984451988382  0.021848260746509102  0.9518334406759267  1.0000
  H   H9        1.0  0.10103997018126878  0.008023092523302501  0.38795387421645705  1.0000
  H   H10       1.0  0.8989585880282506  0.991974863077765  0.6120344979830677  1.0000
  H   H11       1.0  0.22712832035745126  0.8483755426408237  0.5008262846184408  1.0000
  H   H12       1.0  0.7728737632467998  0.15163573882165346  0.49917258474185644  1.0000
  H   H13       1.0  0.5079337750452524  0.8683688844206332  0.2343262741781374  1.0000
  H   H14       1.0  0.4920678899181468  0.13162581183063085  0.7656769965276099  1.0000
  H   H15       1.0  0.380546416414802  0.027316888556292405  0.11728705567430354  1.0000
  H   H16       1.0  0.619453978185689  0.9726678050215869  0.8827053890164295  1.0000
  H   H17       1.0  0.5749096538852286  0.7303065314546943  0.8939623426352201  1.0000
  H   H18       1.0  0.4250898987470749  0.26969149374532014  0.10604440893970249  1.0000
  H   H19       1.0  0.4380958057214103  0.6720985836416633  0.09844918337353195  1.0000
  H   H20       1.0  0.5619034370254213  0.3279016546813978  0.9015576475628961  1.0000
  H   H21       1.0  0.15735616218265852  0.3046273025462938  0.6658721960601924  1.0000
  H   H22       1.0  0.8426414021892087  0.6953773392261626  0.33412915047269826  1.0000
  H   H23       1.0  0.024920479082354112  0.3221178048910148  0.7559320801527036  1.0000
  H   H24       1.0  0.9750737487318093  0.67788350761181  0.2440685007681368  1.0000
  H   H25       1.0  0.14204569186098584  0.21354917542413435  0.8003983389320201  1.0000
  H   H26       1.0  0.8579525705087506  0.7864543611560962  0.19960306028721675  1.0000
  H   H27       1.0  0.2433015989914793  0.4191971744951531  0.1299492419212385  1.0000
  H   H28       1.0  0.7566930031819581  0.5808052559675405  0.8700542002436437  1.0000
  H   H29       1.0  0.1082431493729317  0.3086245465133857  0.994770998055543  1.0000
  H   H30       1.0  0.891750833029562  0.6913823101954011  0.005232602832371932  1.0000
  H   H31       1.0  0.9977171322233717  0.44858108428810795  0.12936781964638308  1.0000
  H   H32       1.0  0.0022805057910489073  0.551426881881234  0.870634648027945  1.0000
  H   H33       1.0  0.12378349359337194  0.6181383346236801  0.10227602926540412  1.0000
  H   H34       1.0  0.8762155312480289  0.3818674278472401  0.8977283632457473  1.0000
  C   C1        1.0  0.21420776765165075  0.3395384602685923  0.38041017870192223  1.0000
  C   C2        1.0  0.7857922051836683  0.660460649461115  0.619590336796449  1.0000
  C   C3        1.0  0.05831634290292698  0.2463870885869142  0.3023670774723399  1.0000
  C   C4        1.0  0.9416872164861374  0.7536098028634445  0.6976302739389484  1.0000
  C   C5        1.0  0.9269310012287663  0.27070857610466703  0.3285724921516788  1.0000
  C   C6        1.0  0.073073033668365  0.7292927376443433  0.6714233832527371  1.0000
  C   C7        1.0  0.7798968847902329  0.19255521631615122  0.25555734790386  1.0000
  C   C8        1.0  0.22010419249284047  0.8074438827800777  0.744439713400503  1.0000
  C   C9        1.0  0.7623352529900346  0.08826744347371832  0.15364377377115096  1.0000
  C   C10       1.0  0.23766574148174155  0.9117283379116614  0.8463539858558847  1.0000
  C   C11       1.0  0.890561116863104  0.059561758514568935  0.12708373414862006  1.0000
  C   C12       1.0  0.10944174911247018  0.9404362347849969  0.8729126548442565  1.0000
  C   C13       1.0  0.03701828719182031  0.1373094278856684  0.20176033934080811  1.0000
  C   C14       1.0  0.962985276781616  0.8626874602216719  0.7982361023384217  1.0000
  C   C15       1.0  0.23107881095859278  0.024338078993402203  0.24384413748694567  1.0000
  C   C16       1.0  0.7689236115995329  0.975655468606398  0.7561473593883932  1.0000
  C   C17       1.0  0.1898114507594856  0.9775318202022665  0.35361115514280783  1.0000
  C   C18       1.0  0.8101811369168671  0.022458368324286902  0.6463748287869181  1.0000
  C   C19       1.0  0.2606660390581724  0.8879202012990676  0.4168202431071607  1.0000
  C   C20       1.0  0.7393365906744763  0.11208332952043072  0.5831773463886664  1.0000
  C   C21       1.0  0.37219670697961504  0.8442156044149274  0.3724976776315075  1.0000
  C   C22       1.0  0.6278039684379453  0.15578239677953584  0.6275019808211582  1.0000
  C   C23       1.0  0.41704294208395964  0.8982075827171344  0.26564630883879664  1.0000
  C   C24       1.0  0.5829595082729782  0.10178932270972753  0.7343554064985585  1.0000
  C   C25       1.0  0.3475333543268207  0.9873398307699051  0.20140007669232324  1.0000
  C   C26       1.0  0.6524619379453328  0.012642622619900097  0.7985877260375603  1.0000
  C   C27       1.0  0.43569035281112184  0.7350721720604485  0.4321164035279637  1.0000
  C   C28       1.0  0.5643099806303484  0.26492806565818233  0.567889702410632  1.0000
  C   C29       1.0  0.4696886406256838  0.6456370629379009  0.9010261162925276  1.0000
  C   C30       1.0  0.5303102140087574  0.35436206745434623  0.09898058259603462  1.0000
  C   C31       1.0  0.4038265844181481  0.6193123773092142  0.0017589905405799614  1.0000
  C   C32       1.0  0.5961690946967979  0.38069006257810417  0.9982464558226456  1.0000
  C   C33       1.0  0.26300488029704644  0.44793906251302235  0.8382197376255149  1.0000
  C   C34       1.0  0.7369890238785218  0.5520644731419041  0.16178365185302115  1.0000
  C   C35       1.0  0.14042287589634136  0.3153539716519448  0.7615139334248653  1.0000
  C   C36       1.0  0.8595721281426094  0.684649556712515  0.23848691159171415  1.0000
  C   C37       1.0  0.1711081463022595  0.4233574143597707  0.03974692517281402  1.0000
  C   C38       1.0  0.8288872275115865  0.5766472353075759  0.9602576908198657  1.0000
  C   C39       1.0  0.05816108110614953  0.5022951520901489  0.05985381718454622  1.0000
  C   C40       1.0  0.9418361687958736  0.4977117061483798  0.9401485184419089  1.0000
  N   N1        1.0  0.3814332520784377  0.5387359604770625  0.7996183057515155  1.0000
  N   N2        1.0  0.6185639058435372  0.4612675867366536  0.20038654766174355  1.0000
  N   N3        1.0  0.27370326432625086  0.49457217041207  0.9609052997006629  1.0000
  N   N4        1.0  0.7262942034812027  0.5054291636785989  0.03909947435107604  1.0000
  O   O1        1.0  0.22068175904329487  0.38635483931722103  0.49313274177547584  1.0000
  O   O2        1.0  0.7793178440171221  0.6136431491095992  0.5068640027467952  1.0000
  O   O3        1.0  0.32678545207603804  0.36856453198493716  0.32683032359562963  1.0000
  O   O4        1.0  0.6732171730722385  0.6314390021775864  0.673168175632256  1.0000
  O   O5        1.0  0.15983377177491326  0.10360634612618475  0.16910712699317546  1.0000
  O   O6        1.0  0.8401679436165992  0.8963883133518779  0.8308861366599203  1.0000
  O   O7        1.0  0.4010912475770568  0.697774040176313  0.5346664763592345  1.0000
  O   O8        1.0  0.5989172332024708  0.3022339667510039  0.46534147758553257  1.0000
  O   O9        1.0  0.5165213592799418  0.6825436160498981  0.3734980477407391  1.0000
  O   O10       1.0  0.4834884392683989  0.3174588594390997  0.626509800167355  1.0000
