data_image0
_chemical_formula_structural       Cu2H48C48N24Cl4
_chemical_formula_sum              "Cu2 H48 C48 N24 Cl4"
_cell_length_a       7.590405042
_cell_length_b       8.464315858133046
_cell_length_c       21.327
_cell_angle_alpha    90.0
_cell_angle_beta     90.0
_cell_angle_gamma    106.51687942394699

_space_group_name_H-M_alt    "P 1"
_space_group_IT_number       1

loop_
  _space_group_symop_operation_xyz
  'x, y, z'

loop_
  _atom_site_type_symbol
  _atom_site_label
  _atom_site_symmetry_multiplicity
  _atom_site_fract_x
  _atom_site_fract_y
  _atom_site_fract_z
  _atom_site_occupancy
  Cu  Cu1       1.0  0.49999829282932506  0.4999984895954698  0.5000009377784025  1.0000
  Cu  Cu2       1.0  0.4999987410869124  1.2322791321000004e-06  0.9999990622215976  1.0000
  H   H1        1.0  0.8451780730593441  0.378394720411265  0.44059126928306824  1.0000
  H   H2        1.0  0.1548225225456434  0.12160376918420471  0.9405889248370585  1.0000
  H   H3        1.0  0.1548216836185574  0.6215997942214102  0.5594110751629415  1.0000
  H   H4        1.0  0.8451777245827471  0.8784006036815202  0.05941013738453901  1.0000
  H   H5        1.0  0.3445428001012089  0.3981444580403704  0.3593351151123017  1.0000
  H   H6        1.0  0.6554627744262759  0.10186142522988463  0.8593355840014993  1.0000
  H   H7        1.0  0.6554600819326877  0.6018599148253543  0.6406653537769031  1.0000
  H   H8        1.0  0.34454220639936756  0.8981454121940973  0.1406639471092959  1.0000
  H   H9        1.0  0.7482621011480075  0.0736508590888079  0.3210020162235665  1.0000
  H   H10       1.0  0.2517392757959769  0.4263500950649259  0.8210006095559592  1.0000
  H   H11       1.0  0.25173619263288327  0.9263473523812635  0.678998921554836  1.0000
  H   H12       1.0  0.7482596538796641  0.5736542778007987  0.1789975148872287  1.0000
  H   H13       1.0  0.9347154951593524  0.20467170539047436  0.3639621137525211  1.0000
  H   H14       1.0  0.0652858817846322  0.2953292487632524  0.8639621137525212  1.0000
  H   H15       1.0  0.06528318929104421  0.7953277383587221  0.6360374173582812  1.0000
  H   H16       1.0  0.9347135840047611  0.7046726595442081  0.1360369484690764  1.0000
  H   H17       1.0  0.7269036439062687  0.0987634754950903  0.20937028180240697  1.0000
  H   H18       1.0  0.27310353896247364  0.40123501410037943  0.7093693440240045  1.0000
  H   H19       1.0  0.27309504054412775  0.9012359682541131  0.7906301870867907  1.0000
  H   H20       1.0  0.7268972442796694  0.5987668942070812  0.290629718197593  1.0000
  H   H21       1.0  0.88137085546213  0.21119292655059504  0.1087677591785052  1.0000
  H   H22       1.0  0.11863212982311211  0.2888006339283535  0.6087672902893075  1.0000
  H   H23       1.0  0.11862665697977093  0.7888028203612123  0.8912322408214949  1.0000
  H   H24       1.0  0.8813661639577787  0.7111975775417181  0.39123177193229  1.0000
  H   H25       1.0  0.28810233607165964  0.5780424237855257  0.21205561025929853  1.0000
  H   H26       1.0  0.7118953640073967  0.9219567418382726  0.712056548037701  1.0000
  H   H27       1.0  0.7118933228037319  0.4219557876845457  0.7879429830731012  1.0000
  H   H28       1.0  0.28810556467900017  0.078041469631799  0.2879439208515038  1.0000
  H   H29       1.0  0.1300327536447128  0.4680467240133268  0.3116443944295995  1.0000
  H   H30       1.0  0.869966379063264  0.0319554624195391  0.8116453322080021  1.0000
  H   H31       1.0  0.8699689563806812  0.5319539520150087  0.6883556055704005  1.0000
  H   H32       1.0  0.1300326960566238  0.9680452136087965  0.1883551366812029  1.0000
  H   H33       1.0  0.08703956853992881  0.4385977173458073  0.0542509495006342  1.0000
  H   H34       1.0  0.9129648339790534  0.0614044690870585  0.5542514183898319  1.0000
  H   H35       1.0  0.9129629228244623  0.5614054232407852  0.9457481127209633  1.0000
  H   H36       1.0  0.08703648537684222  0.9385949746621449  0.44574858161016817  1.0000
  H   H37       1.0  0.2580405918723017  0.5947102313085324  0.0933394288929534  1.0000
  H   H38       1.0  0.7419606698955121  0.9052877020361336  0.5933389600037486  1.0000
  H   H39       1.0  0.7419590193613459  0.4052879801615319  0.9066619777746538  1.0000
  H   H40       1.0  0.2580385506686369  0.09470927715480573  0.40666150888544905  1.0000
  H   H41       1.0  0.16414357787957098  0.1357330816977935  0.0492530595020426  1.0000
  H   H42       1.0  0.8358583351781659  0.3642654078976761  0.5492530595020426  1.0000
  H   H43       1.0  0.8358564240235752  0.8642663620514028  0.9507474093871622  1.0000
  H   H44       1.0  0.16414259350823096  0.6357328035723953  0.4507483471655647  1.0000
  H   H45       1.0  0.7332002401220095  0.3674126487977035  0.04998968443756979  1.0000
  H   H46       1.0  0.2668020636052262  0.1325870730768983  0.5499906222159723  1.0000
  H   H47       1.0  0.2668005431201336  0.6325892595097571  0.95000890889483  1.0000
  H   H48       1.0  0.7331992557506694  0.8674123706723053  0.4500103155624302  1.0000
  C   C1        1.0  0.7276114364649898  0.3667472180670757  0.4096980353542463  1.0000
  C   C2        1.0  0.2723882323567466  0.1332525038075261  0.9096956909082365  1.0000
  C   C3        1.0  0.27238607597691095  0.6332485288447316  0.5903043090917635  1.0000
  C   C4        1.0  0.7276099159798975  0.8667494044999418  0.0903024335349585  1.0000
  C   C5        1.0  0.4765669314421713  0.3750835863868431  0.3660088151169845  1.0000
  C   C6        1.0  0.523438252415815  0.1249210646042798  0.8660083462277868  1.0000
  C   C7        1.0  0.5234355599222269  0.6249195541997494  0.633992122661418  1.0000
  C   C8        1.0  0.47656726452358106  0.8750833082614449  0.1339925915506157  1.0000
  C   C9        1.0  0.8315836399824832  0.2018115855279206  0.327435176067894  1.0000
  C   C10       1.0  0.16841812763099986  0.2981906009049382  0.8274342382894915  1.0000
  C   C11       1.0  0.16841543513741192  0.7981890905004079  0.6725652928213037  1.0000
  C   C12       1.0  0.8315826556111432  0.7018113074025225  0.1725643550429012  1.0000
  C   C13       1.0  0.9208156601078556  0.2740847565485112  0.266838749003611  1.0000
  C   C14       1.0  0.0791830819306298  0.2259161976052226  0.7668378112252086  1.0000
  C   C15       1.0  0.07918248822878843  0.7259171517589564  0.7331617198855938  1.0000
  C   C16       1.0  0.9208159931892652  0.7740844784231059  0.2331617198855938  1.0000
  C   C17       1.0  0.8494593224787008  0.2040986955946593  0.2095662774886264  1.0000
  C   C18       1.0  0.15054444414553816  0.2958973294425463  0.709565339710224  1.0000
  C   C19       1.0  0.1505402887549465  0.7958995158754121  0.7904341914005713  1.0000
  C   C20       1.0  0.8494533135216074  0.7041033465857822  0.2904337225113736  1.0000
  C   C21       1.0  0.9357894648015942  0.2668944078203737  0.1535180756787184  1.0000
  C   C22       1.0  0.0642125937003897  0.2331003849377069  0.6535176067895136  1.0000
  C   C23       1.0  0.06420633951805146  0.7331001068123018  0.8464819243212816  1.0000
  C   C24       1.0  0.9357853094110027  0.7668965942532324  0.3464814554320839  1.0000
  C   C25       1.0  0.09473319336657939  0.4007433347271956  0.1539555493037028  1.0000
  C   C26       1.0  0.9052692558049101  0.09925269031000993  0.6539560181929005  1.0000
  C   C27       1.0  0.9052643190753145  0.5992524121846117  0.8460435129178947  1.0000
  C   C28       1.0  0.0947316728814869  0.9007455211600615  0.3460435129178947  1.0000
  C   C29       1.0  0.1651310662604217  0.4728673999729551  0.2112308341538878  1.0000
  C   C30       1.0  0.8348695293445656  0.027131089622507407  0.7112317719322903  1.0000
  C   C31       1.0  0.8348668368509705  0.5271295792179771  0.788767759178505  1.0000
  C   C32       1.0  0.16513008188908182  0.9728671218475571  0.2887682280677097  1.0000
  C   C33       1.0  0.07751236721192363  0.4099176528558958  0.2670985136212281  1.0000
  C   C34       1.0  0.9224876922793043  0.090083301297831  0.7670994513996376  1.0000
  C   C35       1.0  0.9224872440217167  0.5900805586141757  0.7329005486003624  1.0000
  C   C36       1.0  0.07751230962384173  0.9099161424513653  0.2329005486003624  1.0000
  C   C37       1.0  0.18790803043323479  0.462543365415236  0.0925840483893623  1.0000
  C   C38       1.0  0.8120938826244952  0.0374551241802337  0.5925840483893623  1.0000
  C   C39       1.0  0.812090263347656  0.5374548460548354  0.9074154827214329  1.0000
  C   C40       1.0  0.18790572860914523  0.9625430872898377  0.4074159516106377  1.0000
  C   C41       1.0  0.297816682902841  0.2244731987430697  0.055777183851454  1.0000
  C   C42       1.0  0.7021860114938931  0.275527755410657  0.5557785905190613  1.0000
  C   C43       1.0  0.7021837096698036  0.7755274772852587  0.9442218783701435  1.0000
  C   C44       1.0  0.2978153078620025  0.7244716883385394  0.4442237539269485  1.0000
  C   C45       1.0  0.5867402043790619  0.3465427694387132  0.0567571622825511  1.0000
  C   C46       1.0  0.4132624900176722  0.1534581847150207  0.5567595067285609  1.0000
  C   C47       1.0  0.4132615056463322  0.6534579065896153  0.943240962160644  1.0000
  C   C48       1.0  0.5867382932244708  0.8465437235924469  0.4432428377174489  1.0000
  N   N1        1.0  0.5797364343277349  0.4202959076953761  0.4189464059642702  1.0000
  N   N2        1.0  0.42026665073849756  0.0797062787374898  0.918944999296663  1.0000
  N   N3        1.0  0.4202631769059124  0.5797023037746953  0.5810559384817395  1.0000
  N   N4        1.0  0.5797362312953921  0.9202980941282348  0.081055000703337  1.0000
  N   N5        1.0  0.5522110487322036  0.2962805682522216  0.3248042387583823  1.0000
  N   N6        1.0  0.44779110955077767  0.20372285045976926  0.8248028320907751  1.0000
  N   N7        1.0  0.4477901251794377  0.703722572334371  0.675197167909225  1.0000
  N   N8        1.0  0.552211772483112  0.7962815224059554  0.1751962301308225  1.0000
  N   N9        1.0  0.7110445240855865  0.2924617352259204  0.3536901580156595  1.0000
  N   N10       1.0  0.2889547540666442  0.2075367543695492  0.8536887513480593  1.0000
  N   N11       1.0  0.2889533790258056  0.7075352439650189  0.6463112486519407  1.0000
  N   N12       1.0  0.7110456385060004  0.7924639216587792  0.1463098419843405  1.0000
  N   N13       1.0  0.3268663090982855  0.3799671085821501  0.0757377971585314  1.0000
  N   N14       1.0  0.6731377027511982  0.1200338455715837  0.5757392038261386  1.0000
  N   N15       1.0  0.6731354009271087  0.6200335674461854  0.9242612650630662  1.0000
  N   N16       1.0  0.326862299151948  0.8799655981776198  0.4242626717306734  1.0000
  N   N17       1.0  0.4607312710293953  0.1996674198403525  0.0431992310217097  1.0000
  N   N18       1.0  0.5392697152450907  0.3003323020342492  0.543200637689317  1.0000
  N   N19       1.0  0.5392691215432492  0.8003332561879759  0.956799362310683  1.0000
  N   N20       1.0  0.4607306773275539  0.6996683739940863  0.456801237867495  1.0000
  N   N21       1.0  0.5102057072490567  0.4598089380240182  0.0771247714165142  1.0000
  N   N22       1.0  0.48979698714767744  0.0401920161297085  0.5771266469733192  1.0000
  N   N23       1.0  0.48979468532358783  0.5401917380043104  0.9228733530266808  1.0000
  N   N24       1.0  0.510201697302719  0.9598074276194881  0.4228752285834858  1.0000
  Cl  Cl1       1.0  0.8778800721865352  0.6792655284256668  0.5247353120457632  1.0000
  Cl  Cl2       1.0  0.12212143480651601  0.8207373340355275  0.0247301542645459  1.0000
  Cl  Cl3       1.0  0.122121637838859  0.3207351476026687  0.4752707835138565  1.0000
  Cl  Cl4       1.0  0.877879348435627  0.17926457427193307  0.9752656257326393  1.0000
