data_image0
_chemical_formula_structural       Zr6H69C70ClO32
_chemical_formula_sum              "Zr6 H69 C70 Cl1 O32"
_cell_length_a       14.730359906571314
_cell_length_b       14.824383231461209
_cell_length_c       14.71107013409344
_cell_angle_alpha    60.27997985323064
_cell_angle_beta     60.55110719899181
_cell_angle_gamma    60.056696293969225

_space_group_name_H-M_alt    "P 1"
_space_group_IT_number       1

loop_
  _space_group_symop_operation_xyz
  'x, y, z'

loop_
  _atom_site_type_symbol
  _atom_site_label
  _atom_site_symmetry_multiplicity
  _atom_site_fract_x
  _atom_site_fract_y
  _atom_site_fract_z
  _atom_site_occupancy
  Zr  Zr1       1.0  0.8809113002205322  0.8848773094575078  0.6202231817308713  1.0000
  Zr  Zr2       1.0  0.11820844187327145  0.12353418486026864  0.38301453501268423  1.0000
  Zr  Zr3       1.0  0.1211841198489697  0.8878828787688066  0.619726732738144  1.0000
  Zr  Zr4       1.0  0.8783227999440086  0.12372416445123245  0.3822679346874197  1.0000
  Zr  Zr5       1.0  0.11826917691504922  0.8850649756502734  0.3823927528331197  1.0000
  Zr  Zr6       1.0  0.8779414848017452  0.12392342215654392  0.6212293524912837  1.0000
  H   H1        1.0  0.0950615384285384  0.7242591112695463  0.5949379413719812  1.0000
  H   H2        1.0  0.09323604298825931  0.10063948315367811  0.21915433353727556  1.0000
  H   H3        1.0  0.0967462367364221  0.0983487078620158  0.5938152000867234  1.0000
  H   H4        1.0  0.7167345852581734  0.09278480859535415  0.593792665726845  1.0000
  H   H5        1.0  0.169886282640448  0.5581261161768721  0.8896804688901695  1.0000
  H   H6        1.0  0.7289507124117238  0.7049071947404714  0.021855686061400304  1.0000
  H   H7        1.0  0.7550920160224239  0.6295422557537975  0.9427636065835047  1.0000
  H   H8        1.0  0.754101862183596  0.4594285803439747  0.11197325630715944  1.0000
  H   H9        1.0  0.7297250655995171  0.5347478884257769  0.1905102470948067  1.0000
  H   H10       1.0  0.19604112967653006  0.3982026668122885  0.28180735538428087  1.0000
  H   H11       1.0  0.064946440992621  0.42684229658230777  0.28258759538979217  1.0000
  H   H12       1.0  0.115834340674553  0.5362727773511438  0.2253498606760118  1.0000
  H   H13       1.0  0.8778182126711442  0.47286580054147026  0.7759424883920192  1.0000
  H   H14       1.0  0.9335590236130291  0.578173005284235  0.7208560573430206  1.0000
  H   H15       1.0  0.8007347249752996  0.6132253045113604  0.7210217814541126  1.0000
  H   H16       1.0  0.13633721900644963  0.6847786491150387  0.26124879149534763  1.0000
  H   H17       1.0  0.21232088917502523  0.6079809986546891  0.35325140398687443  1.0000
  H   H18       1.0  0.2226565928898268  0.545759878315863  0.2705600853339973  1.0000
  H   H19       1.0  0.7697036184553171  0.46674690162161153  0.7301226090385171  1.0000
  H   H20       1.0  0.7801483160361613  0.40463166257908517  0.6472989485464994  1.0000
  H   H21       1.0  0.8554545004610647  0.3277223813316751  0.73990985404474  1.0000
  H   H22       1.0  0.5193352216276851  0.0645926435074244  0.19150193823594472  1.0000
  H   H23       1.0  0.4310867907019113  0.9852931258843611  0.2744623962847969  1.0000
  H   H24       1.0  0.5768938697285294  0.9199239860224397  0.2285156561268027  1.0000
  H   H25       1.0  0.5247237363332006  0.05954713651245658  0.7352345163809559  1.0000
  H   H26       1.0  0.5730374901064083  0.9144691854065955  0.7876391729837878  1.0000
  H   H27       1.0  0.4289977285607237  0.9880424497361204  0.8171605873557157  1.0000
  H   H28       1.0  0.7643594063683211  0.005171989092559708  0.9333510489225747  1.0000
  H   H29       1.0  0.6705158587814851  0.0839610751112191  0.02193264894557254  1.0000
  H   H30       1.0  0.7203274647116872  0.9393508739774248  0.0792910294376271  1.0000
  H   H31       1.0  0.31633225334299214  0.9094245935332737  0.013727024724829603  1.0000
  H   H32       1.0  0.2328939253992885  0.015365423462881698  0.07141669444474992  1.0000
  H   H33       1.0  0.2893844951018708  0.04875271146515555  0.9261007565519536  1.0000
  H   H34       1.0  0.029386793470386918  0.17720146732127512  0.7290401516392963  1.0000
  H   H35       1.0  0.02032320517790966  0.2540739763683034  0.7956819413175183  1.0000
  H   H36       1.0  0.14609339257836504  0.14933060095486883  0.7585984590055759  1.0000
  H   H37       1.0  0.9720553739509722  0.7524669671752023  0.21458615070908152  1.0000
  H   H38       1.0  0.9510632915805605  0.8356198571692702  0.2819702629853753  1.0000
  H   H39       1.0  0.8422892945004963  0.8555576292161435  0.24602294248053636  1.0000
  H   H40       1.0  0.9764654811996965  0.26263407857330623  0.9641501295560603  1.0000
  H   H41       1.0  0.039865452711474264  0.17402178518920414  0.06700108533966902  1.0000
  H   H42       1.0  0.12021727313380372  0.18921394669182934  0.9256680881138666  1.0000
  H   H43       1.0  0.8820607835425917  0.8038715715175898  0.08942333027800237  1.0000
  H   H44       1.0  0.9383772594740873  0.8398200040589786  0.9433694491317582  1.0000
  H   H45       1.0  0.025646546094605933  0.7471364712273996  0.02514104427319099  1.0000
  H   H46       1.0  0.39614517982783354  0.6474758323087711  0.27565227762404027  1.0000
  H   H47       1.0  0.4309408633911148  0.7346524257806875  0.29160692525107373  1.0000
  H   H48       1.0  0.5373538810731304  0.6323534860973868  0.23156993996098424  1.0000
  H   H49       1.0  0.5882729228525179  0.2641004801969872  0.7206324446526793  1.0000
  H   H50       1.0  0.5695457083700434  0.3800221123765795  0.7415970536693949  1.0000
  H   H51       1.0  0.45441489142766067  0.34223498031029465  0.7869580876169023  1.0000
  H   H52       1.0  0.6754685974911893  0.39133484041929745  0.28433189067213516  1.0000
  H   H53       1.0  0.5615414483167528  0.3463578892248336  0.36129017771940425  1.0000
  H   H54       1.0  0.5457810286419614  0.47945710363053  0.2609185220977396  1.0000
  H   H55       1.0  0.3798170723717078  0.5527394340495135  0.7548196357146396  1.0000
  H   H56       1.0  0.2649162088710143  0.6071921237457615  0.7117090231061739  1.0000
  H   H57       1.0  0.3194617596982852  0.46308031871359384  0.7783059197072931  1.0000
  H   H58       1.0  0.4652227835805221  0.7390049805214931  0.650052536261228  1.0000
  H   H59       1.0  0.4190213471694975  0.7848385240103042  0.5397250461518865  1.0000
  H   H60       1.0  0.5619524192127655  0.716234609709339  0.5244151888805179  1.0000
  H   H61       1.0  0.6046947185690639  0.22385546922404134  0.3324544692750281  1.0000
  H   H62       1.0  0.6980434883052667  0.12917631728657844  0.2617011508512165  1.0000
  H   H63       1.0  0.5653127907423325  0.21007108524669602  0.24494789169540365  1.0000
  H   H64       1.0  0.7544312201022907  0.773791717947411  0.5553729392394972  1.0000
  H   H65       1.0  0.6365816248838243  0.7380067580210152  0.6586657235147371  1.0000
  H   H66       1.0  0.695108639470213  0.7093118044344993  0.5348347678412965  1.0000
  H   H67       1.0  0.379414312631127  0.2098580195108822  0.2891243522545395  1.0000
  H   H68       1.0  0.2952756183955145  0.2087174328640841  0.42477675576272134  1.0000
  H   H69       1.0  0.4056841161372801  0.26087603440146273  0.35749848084174835  1.0000
  C   C1        1.0  0.003007120953057566  0.6974191611662092  0.5025924290663824  1.0000
  C   C2        1.0  0.3063462547416978  0.9988076486830836  0.1996609609924109  1.0000
  C   C3        1.0  0.990391073674502  0.31434100491897976  0.4981558810522986  1.0000
  C   C4        1.0  0.6970305538778163  0.00011640713147898883  0.8093190346514377  1.0000
  C   C5        1.0  2.6874331304300953e-05  0.7096800181961312  0.8091502125356415  1.0000
  C   C6        1.0  0.7125967893779473  0.9873941823927481  0.4836631681559426  1.0000
  C   C7        1.0  0.9917071475266752  0.31487504409063394  0.20524707854274743  1.0000
  C   C8        1.0  0.314755810132425  0.9959325364640464  0.4917634519260547  1.0000
  C   C9        1.0  0.30514757510350415  0.7021236265827114  0.501851945462768  1.0000
  C   C10       1.0  0.9974190899934502  0.0010545915220418498  0.8086873532161223  1.0000
  C   C11       1.0  0.6871112080075649  0.30272600520829235  0.504991463606622  1.0000
  C   C12       1.0  0.9936367997153964  0.0054898852034597646  0.19891441041983873  1.0000
  C   C13       1.0  0.9855100392703378  0.4195318856972179  0.4956177250099074  1.0000
  C   C14       1.0  0.007313630792701303  0.5926152594295291  0.5052881318194907  1.0000
  C   C15       1.0  0.05718077565511228  0.47641750166904023  0.4031307592719387  1.0000
  C   C16       1.0  0.936347071572904  0.5349854751996616  0.5981951363990917  1.0000
  C   C17       1.0  0.07304101128275413  0.5588707366461989  0.4101797100748925  1.0000
  C   C18       1.0  0.9197282928944549  0.4532319318024847  0.5907544677373694  1.0000
  C   C19       1.0  0.4088647871668982  0.9955429664324527  0.09931090700877122  1.0000
  C   C20       1.0  0.596459256993498  0.9977714790905878  0.9114814198205113  1.0000
  C   C21       1.0  0.5024409013656453  0.9971886148334903  0.1014466465701178  1.0000
  C   C22       1.0  0.504017167868646  0.9918127551914608  0.9104878243446779  1.0000
  C   C23       1.0  0.5964469928025978  0.0011939633109249517  0.005476896219306689  1.0000
  C   C24       1.0  0.40840332314696337  0.9926777356600669  0.00485655823369779  1.0000
  C   C25       1.0  0.9967104332884136  0.0013550385566318698  0.9105980288716253  1.0000
  C   C26       1.0  0.9923773033798825  0.005406915868213998  0.09792700051459488  1.0000
  C   C27       1.0  0.020204984405950196  0.08710009874008764  0.9014937339203898  1.0000
  C   C28       1.0  0.9684424095070696  0.9199023076539065  0.10707184349388399  1.0000
  C   C29       1.0  0.017056482118007824  0.08992616216471563  0.9971675251623894  1.0000
  C   C30       1.0  0.9724836816858159  0.9167316237433596  0.011114342260420358  1.0000
  C   C31       1.0  0.40067717005101855  0.5955575143819088  0.5070835329627529  1.0000
  C   C32       1.0  0.578647701562403  0.39611963590506594  0.5117464497418283  1.0000
  C   C33       1.0  0.4666970990412483  0.5682766678219765  0.4087331363445231  1.0000
  C   C34       1.0  0.512259783797788  0.42253788347161253  0.6105738345489586  1.0000
  C   C35       1.0  0.5467091523158346  0.4623524988261778  0.41506698182635665  1.0000
  C   C36       1.0  0.41866904695841367  0.520057730976589  0.6092626493387245  1.0000
  C   C37       1.0  0.996766840519868  0.613637679190191  0.9128924514918922  1.0000
  C   C38       1.0  0.9963317421106695  0.4158173443001658  0.1053346220849177  1.0000
  C   C39       1.0  0.9007814731820005  0.5876226317143817  0.9833298422948646  1.0000
  C   C40       1.0  0.09417557136678316  0.4435595481612751  0.032996987764285286  1.0000
  C   C41       1.0  0.9012661053157135  0.49268765680727716  0.07634648416529193  1.0000
  C   C42       1.0  0.09315869365964603  0.5404067450642386  0.9416258894251684  1.0000
  C   C43       1.0  0.777680153520258  0.6261079868396636  0.005547301678277072  1.0000
  C   C44       1.0  0.7776869384758243  0.519145520248955  0.11132758384920294  1.0000
  C   C45       1.0  0.4271004342078868  0.987443769003619  0.47584072370276004  1.0000
  C   C46       1.0  0.6271969340037562  0.9782587340680422  0.46377161382226023  1.0000
  C   C47       1.0  0.503258421142654  0.8838520205030632  0.5171371416910022  1.0000
  C   C48       1.0  0.5648581603547386  0.07436693125375635  0.39737460128165486  1.0000
  C   C49       1.0  0.6006641665491088  0.8805447796241381  0.5172211450741317  1.0000
  C   C50       1.0  0.45825169029740215  0.08313509057336424  0.41451033110715235  1.0000
  C   C51       1.0  0.11131528302924215  0.45808605500979377  0.2928870105480571  1.0000
  C   C52       1.0  0.8842596084879164  0.5510993877701295  0.7094633858282651  1.0000
  C   C53       1.0  0.1655365065163679  0.6018594931715952  0.3185717087934564  1.0000
  C   C54       1.0  0.8268554042871443  0.410577331172128  0.6821771867900354  1.0000
  C   C55       1.0  0.5066667989717645  0.9913997808230092  0.20440861969734664  1.0000
  C   C56       1.0  0.5072306162162334  0.9880201583982781  0.808095447618129  1.0000
  C   C57       1.0  0.6935797731931501  0.0071200713372477605  0.009087669757263859  1.0000
  C   C58       1.0  0.3067748626681705  0.9919775308140828  0.003933430878845684  1.0000
  C   C59       1.0  0.05526665803714788  0.17106823983348102  0.7906782222353713  1.0000
  C   C60       1.0  0.9324246006692505  0.8365772915713806  0.2180383123999548  1.0000
  C   C61       1.0  0.04018705879306593  0.18271130445517506  0.9885626849728055  1.0000
  C   C62       1.0  0.9529975236069462  0.8228943474373267  0.017280546753461662  1.0000
  C   C63       1.0  0.4571396047652957  0.6496446125110324  0.2963726771998552  1.0000
  C   C64       1.0  0.5326310439082462  0.34758565028321436  0.7198291622995328  1.0000
  C   C65       1.0  0.5859565335816369  0.4192484641932809  0.32384524226440453  1.0000
  C   C66       1.0  0.34098814578307934  0.5375856533106713  0.7183850562176985  1.0000
  C   C67       1.0  0.48565878448336974  0.7763148350280105  0.559500569117681  1.0000
  C   C68       1.0  0.6100862121855926  0.16446063344746148  0.30478727262634914  1.0000
  C   C69       1.0  0.6764426941749522  0.7704353511518036  0.5687308015007632  1.0000
  C   C70       1.0  0.3809001021349091  0.19641263834425624  0.3690452622540121  1.0000
  Cl  Cl1       1.0  0.22368600103384034  0.3568261843351125  0.04711090986373284  1.0000
  O   O1        1.0  0.924477719544058  0.7401839610349228  0.5768705568197845  1.0000
  O   O2        1.0  0.2633496178885366  0.08020600351008511  0.23353149817975805  1.0000
  O   O3        1.0  0.07406094239279068  0.26768872744366234  0.4291692544096293  1.0000
  O   O4        1.0  0.7399611033604074  0.9225523119729928  0.7698361534673099  1.0000
  O   O5        1.0  0.0804022262413754  0.7450666345437539  0.7664067672313165  1.0000
  O   O6        1.0  0.7482888828404839  0.06811093627590742  0.41595182757091465  1.0000
  O   O7        1.0  0.9135378190782363  0.27885273381117054  0.2403492546423038  1.0000
  O   O8        1.0  0.2677467445708428  0.9300137583602892  0.5785819257315981  1.0000
  O   O9        1.0  0.2598992633294373  0.7382002995139914  0.42971844279487226  1.0000
  O   O10       1.0  0.9189354462584803  0.0765167661582282  0.7698888469729894  1.0000
  O   O11       1.0  0.735495009745044  0.2712580545495554  0.5730386726815411  1.0000
  O   O12       1.0  0.07052719558136297  0.9280006286076842  0.23894107535602435  1.0000
  O   O13       1.0  0.07645417010366612  0.9265884789957896  0.7678610462953801  1.0000
  O   O14       1.0  0.7290544426616848  0.2608948383984142  0.4288309788354994  1.0000
  O   O15       1.0  0.9190481161933235  0.08400438150772542  0.2362143726873712  1.0000
  O   O16       1.0  0.27191988934033856  0.7506854471163252  0.5698345799689265  1.0000
  O   O17       1.0  0.9228115332391698  0.7468155182500951  0.7702435321425514  1.0000
  O   O18       1.0  0.270675593960249  0.07070007431814669  0.416659051330754  1.0000
  O   O19       1.0  0.06678912327806337  0.27220284125160527  0.2486092584100349  1.0000
  O   O20       1.0  0.7397344446918127  0.9203992834495053  0.5712653892710832  1.0000
  O   O21       1.0  0.732912363554867  0.07985434342466391  0.7675660960856378  1.0000
  O   O22       1.0  0.07376359378637433  0.7433958190774205  0.4235808780354518  1.0000
  O   O23       1.0  0.26814205505504424  0.9201372318584403  0.24384925817985717  1.0000
  O   O24       1.0  0.9156159711633123  0.2718817746048642  0.5733187811085899  1.0000
  O   O25       1.0  0.7968839940269064  0.06866531385021091  0.5693423935955408  1.0000
  O   O26       1.0  0.06701087633915395  0.07200346792403418  0.5692912830966534  1.0000
  O   O27       1.0  0.06488819484111022  0.07353520499172818  0.2992962549717504  1.0000
  O   O28       1.0  0.06723657231419367  0.8042040127138391  0.5699848078014114  1.0000
  O   O29       1.0  0.14878902641461883  0.9553187006690604  0.4512462460954582  1.0000
  O   O30       1.0  0.9500813787708324  0.9547367638171311  0.4512913327162521  1.0000
  O   O31       1.0  0.94836481822405  0.15205602720411793  0.4531169928907631  1.0000
  O   O32       1.0  0.9506612226197292  0.9555556015199543  0.6503175368996564  1.0000
