data_image0
_chemical_formula_structural       CuH16C18N6O12
_chemical_formula_sum              "Cu1 H16 C18 N6 O12"
_cell_length_a       5.738851122034541
_cell_length_b       8.65482294098752
_cell_length_c       10.754382171847737
_cell_angle_alpha    86.0126609215724
_cell_angle_beta     78.48156470913688
_cell_angle_gamma    85.65601918692525

_space_group_name_H-M_alt    "P 1"
_space_group_IT_number       1

loop_
  _space_group_symop_operation_xyz
  'x, y, z'

loop_
  _atom_site_type_symbol
  _atom_site_label
  _atom_site_symmetry_multiplicity
  _atom_site_fract_x
  _atom_site_fract_y
  _atom_site_fract_z
  _atom_site_occupancy
  Cu  Cu1       1.0  0.9999914625648711  0.999997389161571  0.9999999170797552  1.0000
  H   H1        1.0  0.734184585752743  0.7183478814210176  0.14169902070361223  1.0000
  H   H2        1.0  0.26581102893625536  0.2816507375444246  0.8582939964519126  1.0000
  H   H3        1.0  0.343711657135259  0.851517456192589  0.2714293131440115  1.0000
  H   H4        1.0  0.6562944536175478  0.1484823242345499  0.7285662872473182  1.0000
  H   H5        1.0  0.8199243893006097  0.4027264327600833  0.4932505464313763  1.0000
  H   H6        1.0  0.18008529290822387  0.5972721168879147  0.5067531165068573  1.0000
  H   H7        1.0  0.3444208902210306  0.019502513030367704  0.4230886813702526  1.0000
  H   H8        1.0  0.6555888746929099  0.9804961010766463  0.5769084605446011  1.0000
  H   H9        1.0  0.1939544459386652  0.6754377402736083  0.019965187795243408  1.0000
  H   H10       1.0  0.8060323837980549  0.3245584156929553  0.9800400127809255  1.0000
  H   H11       1.0  0.30388778804785943  0.6513695628026355  0.1649823877408991  1.0000
  H   H12       1.0  0.6961143053688587  0.3486336128629334  0.8350208977819805  1.0000
  H   H13       1.0  0.6218521818404026  0.6273630210181126  0.9668388821684033  1.0000
  H   H14       1.0  0.3781372777886887  0.3726437301846986  0.0331515776971543  1.0000
  H   H15       1.0  0.5499640550697223  0.8247907686775805  0.9216850050381993  1.0000
  H   H16       1.0  0.4500164218423492  0.17521587736268882  0.07831382285630892  1.0000
  C   C1        1.0  0.22753393760830684  0.9261765764272951  0.2196283386025186  1.0000
  C   C2        1.0  0.7724612150233625  0.07382545037461342  0.7803719975122405  1.0000
  C   C3        1.0  0.12594704142026805  0.06516803391495068  0.2821981113870748  1.0000
  C   C4        1.0  0.8740574540128564  0.9348293547515423  0.7178042822064085  1.0000
  C   C5        1.0  0.9402634041184683  0.1642075785696164  0.2386273235582479  1.0000
  C   C6        1.0  0.05974869192178289  0.835785193287734  0.7613745158758148  1.0000
  C   C7        1.0  0.8397207002529679  0.28849036504578873  0.3201169153693399  1.0000
  C   C8        1.0  0.1602928531495209  0.7115059314482226  0.6798808810405745  1.0000
  C   C9        1.0  0.9061549126609733  0.31011825375470187  0.4337693103536111  1.0000
  C   C10       1.0  0.0938497643596321  0.689878020452639  0.566228469912339  1.0000
  C   C11       1.0  0.094442461981302  0.2152609922676021  0.46761386003246486  1.0000
  C   C12       1.0  0.9055534655320726  0.7847328465661505  0.5323933089298122  1.0000
  C   C13       1.0  0.20208504868803348  0.0940682961571184  0.3930086854043466  1.0000
  C   C14       1.0  0.7979333121379355  0.9059326336138797  0.6069911782861652  1.0000
  C   C15       1.0  0.2994024736885025  0.7270693965473142  0.0787359037209612  1.0000
  C   C16       1.0  0.7005934258326009  0.27292567645519483  0.9212637680968713  1.0000
  C   C17       1.0  0.5526643290500459  0.7412436696494851  0.0028474959862592143  1.0000
  C   C18       1.0  0.4473166851716924  0.25875837121927964  0.9971477837944107  1.0000
  N   N1        1.0  0.18761259123375845  0.8795456507488455  0.11459750416335622  1.0000
  N   N2        1.0  0.8123839715000757  0.12045986385600567  0.8854025152263176  1.0000
  N   N3        1.0  0.6658431314019068  0.4028024954100005  0.2805164740744459  1.0000
  N   N4        1.0  0.33417325401993736  0.5972007858983093  0.7194797573105377  1.0000
  N   N5        1.0  0.17909994460305256  0.243581043776075  0.580377913820982  1.0000
  N   N6        1.0  0.8208899267327893  0.7564197483768853  0.41962860554717446  1.0000
  O   O1        1.0  0.8601480260391127  0.1416558050106502  0.1393881484774937  1.0000
  O   O2        1.0  0.13985342779489685  0.8583369474694393  0.8606129263239949  1.0000
  O   O3        1.0  0.7053032199052965  0.7984447136816473  0.07671451205843742  1.0000
  O   O4        1.0  0.29469489907314983  0.20156314664169628  0.9232833720029276  1.0000
  O   O5        1.0  0.4886245712951975  0.4441321380307812  0.3605103273455867  1.0000
  O   O6        1.0  0.511372327592902  0.555854921963757  0.6394784773991589  1.0000
  O   O7        1.0  0.7102792536393421  0.4570061576426526  0.16869572298027444  1.0000
  O   O8        1.0  0.2897529877851568  0.543014529716416  0.8313045303718809  1.0000
  O   O9        1.0  0.07095796134113638  0.3463662360913062  0.6501967871923213  1.0000
  O   O10       1.0  0.929026146102032  0.6536392252119683  0.3498054453752459  1.0000
  O   O11       1.0  0.356625524280595  0.1636404780718763  0.6049972039590088  1.0000
  O   O12       1.0  0.643371903792982  0.8363718677133605  0.39501633868819397  1.0000
