data_image0
_chemical_formula_structural       CdH32C24S4N6O8
_chemical_formula_sum              "Cd1 H32 C24 S4 N6 O8"
_cell_length_a       8.395643713284644
_cell_length_b       8.867744794686121
_cell_length_c       10.79276541830098
_cell_angle_alpha    79.23894545075812
_cell_angle_beta     84.87997176995027
_cell_angle_gamma    81.87705488488011

_space_group_name_H-M_alt    "P 1"
_space_group_IT_number       1

loop_
  _space_group_symop_operation_xyz
  'x, y, z'

loop_
  _atom_site_type_symbol
  _atom_site_label
  _atom_site_symmetry_multiplicity
  _atom_site_fract_x
  _atom_site_fract_y
  _atom_site_fract_z
  _atom_site_occupancy
  Cd  Cd1       1.0  0.9999992952119854  4.8190393901493393e-08  0.49999772786503627  1.0000
  H   H1        1.0  0.970772327292984  0.28635522384582407  0.5744204570435798  1.0000
  H   H2        1.0  0.029228081272393104  0.7136436130686902  0.4255799579095624  1.0000
  H   H3        1.0  0.8919277552795394  0.3287665872834751  0.4299157133404776  1.0000
  H   H4        1.0  0.10807130896944273  0.6712334125690304  0.5700846205675206  1.0000
  H   H5        1.0  0.1646575752819075  0.5993062036887193  0.9226367483603255  1.0000
  H   H6        1.0  0.8353416313048145  0.40069263871637867  0.07736282684810895  1.0000
  H   H7        1.0  0.07626226327267462  0.6984900982738296  0.046226141804083916  1.0000
  H   H8        1.0  0.923736478577716  0.3015122153088257  0.9537692265408352  1.0000
  H   H9        1.0  0.2893428494009811  0.6752387403239765  0.014576117782596015  1.0000
  H   H10       1.0  0.7106556131629277  0.3247658883198595  0.9854216940989105  1.0000
  H   H11       1.0  0.17625117048944366  0.043142613405798606  0.9704558234848832  1.0000
  H   H12       1.0  0.8237492111308597  0.9568562226768195  0.0295399607809586  1.0000
  H   H13       1.0  0.527889871826396  0.3259309809878133  0.8605890594635922  1.0000
  H   H14       1.0  0.4721124975160081  0.6740713167886127  0.13941253266528258  1.0000
  H   H15       1.0  0.8092550933402479  0.29181567188400936  0.7584272191653696  1.0000
  H   H16       1.0  0.19074622175025988  0.7081854741019739  0.24157370065668715  1.0000
  H   H17       1.0  0.6135336006317827  0.2736113360815365  0.4080790502625078  1.0000
  H   H18       1.0  0.38646532666847133  0.7263898213847498  0.5919229684825139  1.0000
  H   H19       1.0  0.3351512662943676  0.29989952415813553  0.509762853747489  1.0000
  H   H20       1.0  0.6648490053222819  0.7001004703701669  0.4902392460426768  1.0000
  H   H21       1.0  0.9032850203530177  0.5988148832148495  0.7814860703894552  1.0000
  H   H22       1.0  0.09671629473749022  0.4011862627711408  0.21851484943260857  1.0000
  H   H23       1.0  0.6932995861803589  0.6002365309026771  0.7566842104062488  1.0000
  H   H24       1.0  0.3067018820259264  0.3997634579686674  0.2433178029911645  1.0000
  H   H25       1.0  0.7543337245664148  0.6214532028698727  0.9095854059487181  1.0000
  H   H26       1.0  0.2456674481863459  0.3785491005635179  0.09041627257290939  1.0000
  H   H27       1.0  0.516462928947007  0.018169415233302295  0.7673799109981586  1.0000
  H   H28       1.0  0.48353612991295597  0.9818305844528158  0.23261949677237925  1.0000
  H   H29       1.0  0.5290915403552673  0.8616345525406716  0.9001065279825298  1.0000
  H   H30       1.0  0.4709063219150593  0.138365452802411  0.0998929661807608  1.0000
  H   H31       1.0  0.4842028394212364  0.8278861590556801  0.7472117898396746  1.0000
  H   H32       1.0  0.5157974160283703  0.17211383497348004  0.25278753153811095  1.0000
  C   C1        1.0  0.17320677476206472  0.6958686725205823  0.9708924132277446  1.0000
  C   C2        1.0  0.826791087508255  0.3041313328225002  0.029107080935553066  1.0000
  C   C3        1.0  0.1595864602493435  0.8435021131674245  0.8797792608859895  1.0000
  C   C4        1.0  0.8404115335806992  0.1564967343954962  0.12021762230282461  1.0000
  C   C5        1.0  0.16245845786593086  0.9948454430872291  0.8876735859794562  1.0000
  C   C6        1.0  0.8375408856695259  0.005152241704088602  0.11232430439195437  1.0000
  C   C7        1.0  0.1368550620089266  0.0801791196003236  0.7627871839689391  1.0000
  C   C8        1.0  0.863145171884618  0.9198208737633208  0.23720843285901339  1.0000
  C   C9        1.0  0.415507606213346  0.318886629783762  0.6909849227218743  1.0000
  C   C10       1.0  0.5844925176765444  0.6811145220255668  0.3090170096304021  1.0000
  C   C11       1.0  0.5484852557741533  0.31445076688650886  0.7614642048974076  1.0000
  C   C12       1.0  0.451512912727722  0.6855469242272817  0.23853747641658885  1.0000
  C   C13       1.0  0.7040777812503267  0.29526818114073444  0.7051265913112275  1.0000
  C   C14       1.0  0.295923829293706  0.7047306502832029  0.29487466338662216  1.0000
  C   C15       1.0  0.7280569158380673  0.2830419233934548  0.5767676535776757  1.0000
  C   C16       1.0  0.27194349811632185  0.7169569136874399  0.4232336875129263  1.0000
  C   C17       1.0  0.5936196186725483  0.2855833586469884  0.5071387040526005  1.0000
  C   C18       1.0  0.4063794563544576  0.7144166415382713  0.4928634821303177  1.0000
  C   C19       1.0  0.43838987717588646  0.3025146359814315  0.5636028924772915  1.0000
  C   C20       1.0  0.5616091978511194  0.6974853642038285  0.43639929370563374  1.0000
  C   C21       1.0  0.7790219628972965  0.6457653343678585  0.8067110228006413  1.0000
  C   C22       1.0  0.22097830871935292  0.3542346601604435  0.1932910769895244  1.0000
  C   C23       1.0  0.550298559127768  0.8937032009079926  0.7972968976596776  1.0000
  C   C24       1.0  0.44970049973219517  0.106296798778132  0.20270251011086768  1.0000
  S   S1        1.0  0.21748300554570224  0.3474630524561135  0.7636072242492703  1.0000
  S   S2        1.0  0.7825159109765208  0.6525381046774114  0.23639294222083862  1.0000
  S   S3        1.0  0.7625984534574357  0.8517608968706157  0.7591728729269888  1.0000
  S   S4        1.0  0.23740165965442367  0.1482402546059447  0.2408272071503603  1.0000
  N   N1        1.0  0.11627780585573792  0.2349849037912293  0.7151318654007355  1.0000
  N   N2        1.0  0.8837234930677272  0.7650162416956191  0.28486627600894815  1.0000
  N   N3        1.0  0.8852572658786286  0.26399610082867747  0.5192845591218713  1.0000
  N   N4        1.0  0.11474179837034636  0.736003899023828  0.4807157747861339  1.0000
  N   N5        1.0  0.12364018059521698  0.9812874543824818  0.6852160807711556  1.0000
  N   N6        1.0  0.8763600532983276  0.0187125389811627  0.3147795360567969  1.0000
  O   O1        1.0  0.23610087325257478  0.31519176447832115  0.900297443959708  1.0000
  O   O2        1.0  0.7638972844712697  0.6848059263027153  0.0997023850793681  1.0000
  O   O3        1.0  0.14703912883405934  0.505052506024846  0.7134291261402979  1.0000
  O   O4        1.0  0.8529611481716018  0.4949474886698296  0.2865738997873279  1.0000
  O   O5        1.0  0.7820294258311266  0.8806312740413347  0.6148890478619009  1.0000
  O   O6        1.0  0.21797068728073302  0.1193698774352328  0.3851110322154553  1.0000
  O   O7        1.0  0.1365939477135641  0.8317323706325367  0.7587541641072734  1.0000
  O   O8        1.0  0.8634026964110647  0.16826763970199468  0.24124171189893667  1.0000
