data_image0
_chemical_formula_structural       Cd2H16C12N8Cl4
_chemical_formula_sum              "Cd2 H16 C12 N8 Cl4"
_cell_length_a       3.8845068283386097
_cell_length_b       9.295159533065522
_cell_length_c       13.730826623847504
_cell_angle_alpha    96.12996369575335
_cell_angle_beta     89.9755438837512
_cell_angle_gamma    101.97293650510525

_space_group_name_H-M_alt    "P 1"
_space_group_IT_number       1

loop_
  _space_group_symop_operation_xyz
  'x, y, z'

loop_
  _atom_site_type_symbol
  _atom_site_label
  _atom_site_symmetry_multiplicity
  _atom_site_fract_x
  _atom_site_fract_y
  _atom_site_fract_z
  _atom_site_occupancy
  Cd  Cd1       1.0  0.9673968070704507  0.9997976763669671  0.7499844360360371  1.0000
  Cd  Cd2       1.0  0.03260844917257799  0.00020066266878159979  0.2500149533454206  1.0000
  H   H1        1.0  0.20487528560853008  0.8790693507126903  0.949189065585415  1.0000
  H   H2        1.0  0.32461921184730597  0.1213419836813614  0.5506852252857471  1.0000
  H   H3        1.0  0.7951356664726249  0.12093008556725951  0.0508096696648295  1.0000
  H   H4        1.0  0.6753819990131833  0.8786585698336112  0.449314314808433  1.0000
  H   H5        1.0  0.9963440710151803  0.6426474037978381  0.027048281625646094  1.0000
  H   H6        1.0  0.35304596024780477  0.3586054225211939  0.473777868087126  1.0000
  H   H7        1.0  0.0036571429463237576  0.35735315698106274  0.9729519872658231  1.0000
  H   H8        1.0  0.6469600478377088  0.6413995989833057  0.5262263450657159  1.0000
  H   H9        1.0  0.5346764666244681  0.4578637820327672  0.8897085059574935  1.0000
  H   H10       1.0  0.07649382719563379  0.543087328909415  0.6118525527542857  1.0000
  H   H11       1.0  0.46531407649310824  0.542141194087215  0.11029060699496541  1.0000
  H   H12       1.0  0.923498030184966  0.45690995919719074  0.3881518642323628  1.0000
  H   H13       1.0  0.5267763650020356  0.6312739744287867  0.7383858378596531  1.0000
  H   H14       1.0  0.8945929278109829  0.3685252350542925  0.7624897648146104  1.0000
  H   H15       1.0  0.4732281498706216  0.36873320979694313  0.2616134241948487  1.0000
  H   H16       1.0  0.10539615193483337  0.6314664705592464  0.23750917495974022  1.0000
  C   C1        1.0  0.9074715450375238  0.6595570236375822  0.9552552193741095  1.0000
  C   C2        1.0  0.24715613413773957  0.3412705640533887  0.545497205325205  1.0000
  C   C3        1.0  0.0925230403615771  0.3404457307392549  0.04474301406833799  1.0000
  C   C4        1.0  0.7528456310092935  0.6587311030546276  0.45450313869253023  1.0000
  C   C5        1.0  0.678721911358949  0.5698830729348432  0.8850346730449632  1.0000
  C   C6        1.0  0.1081668876219553  0.4307777328401627  0.6160312473816347  1.0000
  C   C7        1.0  0.32126532464543806  0.4301152652104464  0.1149639891498992  1.0000
  C   C8        1.0  0.8918404130194661  0.5692195498034708  0.3839731682244292  1.0000
  C   C9        1.0  0.6743091068544943  0.6565760692286633  0.8072557316646325  1.0000
  C   C10       1.0  0.0169752199919841  0.3435748431603258  0.6935188787968941  1.0000
  C   C11       1.0  0.3256851094099318  0.34343111137512494  0.19274280251297435  1.0000
  C   C12       1.0  0.9830160737990143  0.656421309561459  0.3064825478743671  1.0000
  N   N1        1.0  0.8866352511531232  0.7898193977456104  0.8287168804157474  1.0000
  N   N2        1.0  0.09564048414379302  0.21014880097823863  0.6715718345512017  1.0000
  N   N3        1.0  0.11337165244447084  0.21018224574962832  0.17128127674994434  1.0000
  N   N4        1.0  0.9043568653169558  0.7898440009689979  0.3284264508618406  1.0000
  N   N5        1.0  0.023934389895167437  0.789417685592767  0.9187257511124332  1.0000
  N   N6        1.0  0.23335204376280672  0.21096646848717884  0.5815432040006812  1.0000
  N   N7        1.0  0.9760837419339197  0.21058066341836934  0.0812750947130922  1.0000
  N   N8        1.0  0.7666491701986902  0.789034092291722  0.4184570648907879  1.0000
  Cl  Cl1       1.0  0.41944611095685524  0.8914422140555448  0.6255918954234474  1.0000
  Cl  Cl2       1.0  0.5265686453829801  0.1081348863670044  0.8743354143659445  1.0000
  Cl  Cl3       1.0  0.5805536283978867  0.10856055302815551  0.3744077951533669  1.0000
  Cl  Cl4       1.0  0.4734391816358325  0.8918634444943268  0.1256632459881359  1.0000
