data_image0
_chemical_formula_structural       Zn4H26C50O20
_chemical_formula_sum              "Zn4 H26 C50 O20"
_cell_length_a       15.360505432696954
_cell_length_b       15.63716235923262
_cell_length_c       19.54246375106722
_cell_angle_alpha    76.33735685860796
_cell_angle_beta     81.1371178307809
_cell_angle_gamma    66.95982667065115

_space_group_name_H-M_alt    "P 1"
_space_group_IT_number       1

loop_
  _space_group_symop_operation_xyz
  'x, y, z'

loop_
  _atom_site_type_symbol
  _atom_site_label
  _atom_site_symmetry_multiplicity
  _atom_site_fract_x
  _atom_site_fract_y
  _atom_site_fract_z
  _atom_site_occupancy
  Zn  Zn1       1.0  0.4126903366006263  0.588475080107656  0.5543328294780778  1.0000
  Zn  Zn2       1.0  0.5726329102148005  0.5553393831606213  0.426827126079445  1.0000
  Zn  Zn3       1.0  0.4352254720018467  0.4451336040030611  0.4527434424952617  1.0000
  Zn  Zn4       1.0  0.5889059661553447  0.3883862668620139  0.5624064714564625  1.0000
  H   H1        1.0  0.37559974575195565  0.5843502081785986  0.7660414649888241  1.0000
  H   H2        1.0  0.5778793270004458  0.6099362740162989  0.2123859248129207  1.0000
  H   H3        1.0  0.42435217810427883  0.16348974520857243  0.3361496969028721  1.0000
  H   H4        1.0  0.4129602915391005  0.026879533502018698  0.3041527326045639  1.0000
  H   H5        1.0  0.4811489204991803  0.841146032961369  0.5473035119664829  1.0000
  H   H6        1.0  0.5763105589109969  0.12643388532992364  0.6532105929082023  1.0000
  H   H7        1.0  0.5359651472375121  0.8907248676309865  0.6067634370180315  1.0000
  H   H8        1.0  0.4575680710137038  0.23817529067446236  0.4206531501530435  1.0000
  H   H9        1.0  0.46692077991108494  0.38907886114123613  0.24613220235199407  1.0000
  H   H10       1.0  0.6498152079358661  0.3593275211213439  0.9017118452663556  1.0000
  H   H11       1.0  0.5592785708485123  0.6411853385508907  0.08379625099095024  1.0000
  H   H12       1.0  0.4530404553936408  0.4159510587969919  0.11669359169025739  1.0000
  H   H13       1.0  0.6488500049416858  0.3582332243280462  0.774321461032322  1.0000
  H   H14       1.0  0.5546305514104404  0.4021000697810281  0.01180175144733651  1.0000
  H   H15       1.0  0.816854085811798  0.27488807001192583  0.5139518023892365  1.0000
  H   H16       1.0  0.0647094110620401  0.8129978728028463  0.5132909104776644  1.0000
  H   H17       1.0  0.6371806291741962  0.8233840147601941  0.7605644578818626  1.0000
  H   H18       1.0  0.47805221143774906  0.7332068659116119  0.8964396441227791  1.0000
  H   H19       1.0  0.3101681018073494  0.6303374212483419  0.8700631202124995  1.0000
  H   H20       1.0  0.1922146006442774  0.28240456316056844  0.5089898705919822  1.0000
  H   H21       1.0  0.06142706898948095  0.2297317855378722  0.5095303053286032  1.0000
  H   H22       1.0  0.8307425944855711  0.5616683580303317  0.48576623326282226  1.0000
  H   H23       1.0  0.8755724408272129  0.6585539587960555  0.5053865200779273  1.0000
  H   H24       1.0  0.9362284720923885  0.7790370225585974  0.513058304815928  1.0000
  H   H25       1.0  0.2513430674468609  0.4055630231539596  0.5085808196584908  1.0000
  H   H26       1.0  0.426910096767941  0.8578527369266028  0.3350676702502326  1.0000
  C   C1        1.0  0.7489543729957051  0.4406946978601098  0.4894574985818991  1.0000
  C   C2        1.0  0.5225320632671427  0.4730552994422226  0.9801321461831591  1.0000
  C   C3        1.0  0.4984038233460595  0.5462081022768575  0.014336806875064702  1.0000
  C   C4        1.0  0.25151068051265935  0.5714785484940066  0.50382709249849  1.0000
  C   C5        1.0  0.5244697576154778  0.4970451962211868  0.23691775325323053  1.0000
  C   C6        1.0  0.01136710539390152  0.30269700170367747  0.5056079681615416  1.0000
  C   C7        1.0  0.8504273547329576  0.4172991630792708  0.49561261083206193  1.0000
  C   C8        1.0  0.08349611994411532  0.684980549478155  0.511085798330221  1.0000
  C   C9        1.0  0.9855103378466767  0.7069908670568594  0.5102910724279893  1.0000
  C   C10       1.0  0.951863881281554  0.6387241994477081  0.5056436672139811  1.0000
  C   C11       1.0  0.013539255076196457  0.544797268504702  0.502498751191176  1.0000
  C   C12       1.0  0.5154143465402329  0.47445605544946556  0.9061941604684804  1.0000
  C   C13       1.0  0.11291536178083565  0.5216987483890705  0.5041739513603147  1.0000
  C   C14       1.0  0.9787946041103767  0.4716447782656489  0.4994539368945183  1.0000
  C   C15       1.0  0.044022415882473444  0.37573270221793115  0.5033731509600016  1.0000
  C   C16       1.0  0.4624314607652098  0.7406831960526858  0.46193549992369753  1.0000
  C   C17       1.0  0.1426672384267889  0.35549957189929426  0.5062972414667968  1.0000
  C   C18       1.0  0.17564829138843413  0.4248019889956396  0.506155266409209  1.0000
  C   C19       1.0  0.8832492132911088  0.4897395368111149  0.4928367607530505  1.0000
  C   C20       1.0  0.9155014720610952  0.321039287078669  0.5047278689428722  1.0000
  C   C21       1.0  0.14741686416574856  0.5932546492122341  0.5072049390206388  1.0000
  C   C22       1.0  0.42978409428020126  0.9854253705704823  0.35711271633606145  1.0000
  C   C23       1.0  0.5897839574378025  0.4089766042559972  0.8715871454719633  1.0000
  C   C24       1.0  0.4540585488861453  0.841591525197643  0.4437570054032776  1.0000
  C   C25       1.0  0.552589375830472  0.09721597066222643  0.617593069259364  1.0000
  C   C26       1.0  0.558733489224288  0.0026347779698809993  0.636644985957247  1.0000
  C   C27       1.0  0.5293475171031687  0.9643852068024829  0.5912779294052939  1.0000
  C   C28       1.0  0.5123760912981081  0.2530891487063657  0.539136104021715  1.0000
  C   C29       1.0  0.49484372681957484  0.017871401466486202  0.5256164937846819  1.0000
  C   C30       1.0  0.4893758651138853  0.11409888401311012  0.5055137239759375  1.0000
  C   C31       1.0  0.4695606746089994  0.97553343239057  0.476687888630117  1.0000
  C   C32       1.0  0.44662142805948696  0.028397675126015497  0.4072795660156601  1.0000
  C   C33       1.0  0.4427532043939735  0.12366460246257563  0.38926833521046683  1.0000
  C   C34       1.0  0.5899002055811523  0.4079317826695217  0.8006977953495209  1.0000
  C   C35       1.0  0.4617882933381239  0.16534200656885642  0.43621491735890333  1.0000
  C   C36       1.0  0.46867769672741155  0.8830620848521703  0.49420732066604955  1.0000
  C   C37       1.0  0.4363578354135811  0.8924981375978477  0.3740772062522666  1.0000
  C   C38       1.0  0.5174691560959488  0.15285527003826627  0.5539964235741834  1.0000
  C   C39       1.0  0.5279554176266074  0.4855288972176623  0.3143173664331088  1.0000
  C   C40       1.0  0.5108573627170615  0.476271065584804  0.6856300441919885  1.0000
  C   C41       1.0  0.512824124963984  0.4727447905254324  0.7623682851667439  1.0000
  C   C42       1.0  0.43593556728900756  0.5356717617599713  0.7962712723941651  1.0000
  C   C43       1.0  0.436367706957789  0.5362655195119004  0.867333534709232  1.0000
  C   C44       1.0  0.5996640123895319  0.9462080075807081  0.7044873533432748  1.0000
  C   C45       1.0  0.5406850284547673  0.5845318536408115  0.11891021240474943  1.0000
  C   C46       1.0  0.46288007591150654  0.6481523663034637  0.9787775981042444  1.0000
  C   C47       1.0  0.5509862075117341  0.5676652180354438  0.19072393911444863  1.0000
  C   C48       1.0  0.4895260878706156  0.4422227529865951  0.20977721571918556  1.0000
  C   C49       1.0  0.4819767990613003  0.457399766164933  0.13754054391743153  1.0000
  C   C50       1.0  0.5069777999186157  0.5290922554009969  0.09098308316308848  1.0000
  O   O1        1.0  0.502336906668994  0.4943458256928536  0.500809183389272  1.0000
  O   O2        1.0  0.5747933625587934  0.5259865072598728  0.3345347458475487  1.0000
  O   O3        1.0  0.579150472349582  0.4132005964124872  0.6574669462063483  1.0000
  O   O4        1.0  0.48266727795306263  0.4372135112959229  0.3548135837679354  1.0000
  O   O5        1.0  0.4411068447914558  0.5422768932466583  0.6542809763485806  1.0000
  O   O6        1.0  0.8875065564772984  0.24755122620879186  0.5104073863053813  1.0000
  O   O7        1.0  0.11773201970788712  0.7528819507744515  0.5132686394496773  1.0000
  O   O8        1.0  0.6255981284803269  0.9764952341842917  0.7466398443368759  1.0000
  O   O9        1.0  0.6072567497796584  0.8537715984283879  0.7157958149711517  1.0000
  O   O10       1.0  0.4013608516358716  0.7116218618759049  0.004670683945697404  1.0000
  O   O11       1.0  0.5093462052058797  0.665242854007161  0.9146439412588521  1.0000
  O   O12       1.0  0.43279880035110824  0.7098564606944964  0.523935014574043  1.0000
  O   O13       1.0  0.3605552924729879  0.5948910423915379  0.9021247118263814  1.0000
  O   O14       1.0  0.5751292427204932  0.2677206778887609  0.5656532981445039  1.0000
  O   O15       1.0  0.697636377162027  0.5247644977984935  0.46154583985418185  1.0000
  O   O16       1.0  0.3014269531703277  0.5279170217060098  0.4549552050835004  1.0000
  O   O17       1.0  0.7168930192881363  0.3727489949930743  0.5128063505087752  1.0000
  O   O18       1.0  0.2826671875001736  0.5974890265381491  0.5490351603677794  1.0000
  O   O19       1.0  0.5003205999224888  0.6928269923382616  0.4131517771228985  1.0000
  O   O20       1.0  0.44563083765242345  0.3162783217470064  0.502790411486643  1.0000
