data_image0
_chemical_formula_structural       Cd2H32C40N8O10
_chemical_formula_sum              "Cd2 H32 C40 N8 O10"
_cell_length_a       7.4442127929284005
_cell_length_b       12.021199145405895
_cell_length_c       11.343655832915767
_cell_angle_alpha    96.08865123021437
_cell_angle_beta     98.64810127920853
_cell_angle_gamma    110.74556472052954

_space_group_name_H-M_alt    "P 1"
_space_group_IT_number       1

loop_
  _space_group_symop_operation_xyz
  'x, y, z'

loop_
  _atom_site_type_symbol
  _atom_site_label
  _atom_site_symmetry_multiplicity
  _atom_site_fract_x
  _atom_site_fract_y
  _atom_site_fract_z
  _atom_site_occupancy
  Cd  Cd1       1.0  0.0879060924397095  0.1401475165498951  0.20823919533309274  1.0000
  Cd  Cd2       1.0  0.9120936758754181  0.8598536317464035  0.7917585416255193  1.0000
  H   H1        1.0  0.45911629577582164  0.505114953390013  0.10065566098119659  1.0000
  H   H2        1.0  0.5408865650008466  0.4948844744904549  0.8993430980531656  1.0000
  H   H3        1.0  0.5040281419212176  0.6734194590006763  0.9809932993899936  1.0000
  H   H4        1.0  0.49596689525980514  0.3265806571627365  0.01900643830610701  1.0000
  H   H5        1.0  0.9999533219890892  0.7208705752062982  0.08339117244504016  1.0000
  H   H6        1.0  4.068867018241486e-05  0.2791231972713887  0.9166147615262119  1.0000
  H   H7        1.0  0.9653720419510206  0.5580692570457514  0.21124965945146099  1.0000
  H   H8        1.0  0.034633393941063975  0.44192563917701466  0.7887603158079912  1.0000
  H   H9        1.0  0.8037501004666511  0.8430525115954309  0.14255546314424083  1.0000
  H   H10       1.0  0.196244096501303  0.1569386988084958  0.8574413731409011  1.0000
  H   H11       1.0  0.7096250521586427  0.6671060144129156  0.2538590572087998  1.0000
  H   H12       1.0  0.29037469679161626  0.3328905950279405  0.7461451992204359  1.0000
  H   H13       1.0  0.8886325837112707  0.6885006183348991  0.46288295950160574  1.0000
  H   H14       1.0  0.11137555495660213  0.31150601547683004  0.5371207560442812  1.0000
  H   H15       1.0  0.6523963983042054  0.2279242966751198  0.6972213668673035  1.0000
  H   H16       1.0  0.3476042826399634  0.7720688348869585  0.3027772940077326  1.0000
  H   H17       1.0  0.7213329349746544  0.3854844171489943  0.5694179681678335  1.0000
  H   H18       1.0  0.27867570869675967  0.6145133314908477  0.4305838789919179  1.0000
  H   H19       1.0  0.4999250462337628  0.34269652646877796  0.36307906199534307  1.0000
  H   H20       1.0  0.500077991255985  0.6573108481269186  0.6369268213603051  1.0000
  H   H21       1.0  0.2377978351528823  0.8092688771238342  0.7313607887852882  1.0000
  H   H22       1.0  0.7621966538459406  0.19073485282822836  0.26863402164568134  1.0000
  H   H23       1.0  0.034779634917974395  0.7247503128100375  0.6310588639331343  1.0000
  H   H24       1.0  0.9652184501208299  0.2752525991413322  0.36893713017131796  1.0000
  H   H25       1.0  0.4293793364574939  0.9567083389099622  0.8045388473756105  1.0000
  H   H26       1.0  0.5706146489628882  0.0432944886269624  0.19545580145761934  1.0000
  H   H27       1.0  0.5753938307138213  0.09724475370025937  0.7836209749771754  1.0000
  H   H28       1.0  0.4245925356362151  0.9027543025449276  0.2163750336771386  1.0000
  H   H29       1.0  0.36778879112066687  0.133625526471171  0.07289525522980259  1.0000
  H   H30       1.0  0.632211352835668  0.8663764789369705  0.9271061509329924  1.0000
  H   H31       1.0  0.19821041146717994  0.006292466318164699  0.0220130193942865  1.0000
  H   H32       1.0  0.8017975241004862  0.9937088394812148  0.9779882850083794  1.0000
  C   C1        1.0  0.21196482509789405  0.5231996688474823  0.1643652302737522  1.0000
  C   C2        1.0  0.7880425053412169  0.4767980705305845  0.8356347069595742  1.0000
  C   C3        1.0  0.36271242929273484  0.5554725215091523  0.09878450417192398  1.0000
  C   C4        1.0  0.6372955062749313  0.4445287842902276  0.901216800230749  1.0000
  C   C5        1.0  0.3867657675127418  0.6484656316616508  0.031963133731828464  1.0000
  C   C6        1.0  0.6132358176131164  0.3515364283115687  0.968036674750941  1.0000
  C   C7        1.0  0.25608064792019997  0.7089716914852388  0.02763253050776628  1.0000
  C   C8        1.0  0.7439156968959395  0.2910258039112462  0.9723652808383177  1.0000
  C   C9        1.0  0.10285517864073766  0.6751424843386501  0.0912566002118211  1.0000
  C   C10       1.0  0.897143824624294  0.3248550409072167  0.9087441540854968  1.0000
  C   C11       1.0  0.08250695658737321  0.5841182107525569  0.1604304357773358  1.0000
  C   C12       1.0  0.9174937995197754  0.41588020351858285  0.8395741438473722  1.0000
  C   C13       1.0  0.18445865120550303  0.42085927231478587  0.23512103559294667  1.0000
  C   C14       1.0  0.8155502025883834  0.5791366467790908  0.7648850290025918  1.0000
  C   C15       1.0  0.27146485828169614  0.8050047269187528  0.951783830971209  1.0000
  C   C16       1.0  0.7285370511361935  0.1949936399850429  0.048227043087976505  1.0000
  C   C17       1.0  0.8821598722458718  0.8485310387659054  0.2337460975755334  1.0000
  C   C18       1.0  0.11783358463402746  0.15146371747173498  0.7662510728541393  1.0000
  C   C19       1.0  0.8308165891789585  0.7508823009111437  0.29690652996183786  1.0000
  C   C20       1.0  0.16918200646055934  0.24911435589704914  0.7030914320329131  1.0000
  C   C21       1.0  0.93101509589836  0.7636205082235674  0.41330343989886126  1.0000
  C   C22       1.0  0.06898400891677875  0.23637968102847393  0.5866985199700707  1.0000
  C   C23       1.0  0.0867730815133  0.8743133201864596  0.46788318697976183  1.0000
  C   C24       1.0  0.9132207703726679  0.12568683201846645  0.5321111331834772  1.0000
  C   C25       1.0  0.19224467367194345  0.8954442988563541  0.5894097170147887  1.0000
  C   C26       1.0  0.807751032606248  0.10455940638001948  0.41058963404744026  1.0000
  C   C27       1.0  0.35161647746959807  0.003575751451840897  0.637335295072802  1.0000
  C   C28       1.0  0.6483791912271073  0.9964253124300058  0.3626610966145877  1.0000
  C   C29       1.0  0.40488293646105694  0.09649266254536572  0.5642035465505586  1.0000
  C   C30       1.0  0.595115614574702  0.9035085104666222  0.435789649776801  1.0000
  C   C31       1.0  0.5612284026806976  0.20896561329271182  0.6073158388071036  1.0000
  C   C32       1.0  0.4387689436951447  0.7910310569053536  0.3926784594580042  1.0000
  C   C33       1.0  0.6013172144281784  0.29810623286506643  0.5365613391631784  1.0000
  C   C34       1.0  0.3986898099355328  0.7018933020815011  0.4634370113391881  1.0000
  C   C35       1.0  0.4803835177846594  0.27500175344040656  0.4220203869842011  1.0000
  C   C36       1.0  0.5196153825051795  0.7250028953863107  0.5779811917253923  1.0000
  C   C37       1.0  0.2936770060087923  0.0801567556347038  0.44576717518096853  1.0000
  C   C38       1.0  0.7063226537339631  0.9198488862137423  0.5542275499134703  1.0000
  C   C39       1.0  0.1330203864081411  0.9670734142937646  0.395548006576135  1.0000
  C   C40       1.0  0.8669758818199327  0.0329285859806916  0.6044459160041527  1.0000
  N   N1        1.0  0.028906431202962202  0.9530063659587994  0.2821957355452724  1.0000
  N   N2        1.0  0.9710865734476644  0.04699203804496218  0.7177938769144347  1.0000
  N   N3        1.0  0.3325129592058786  0.16976883272664617  0.3790939668386955  1.0000
  N   N4        1.0  0.6674902006239236  0.8302359571436425  0.6209045726340605  1.0000
  N   N5        1.0  0.12747122273885453  0.8125613933388676  0.6669664033198615  1.0000
  N   N6        1.0  0.872520721980628  0.18744044324036926  0.33303231230048885  1.0000
  N   N7        1.0  0.44768013396822687  0.025246676803583102  0.7551445891703921  1.0000
  N   N8        1.0  0.5523109371287873  0.9747560302773762  0.24485413192448388  1.0000
  O   O1        1.0  0.24203810945355994  0.3385623714185825  0.1931695316228925  1.0000
  O   O2        1.0  0.7579776177254374  0.6614382347720349  0.8068316710196513  1.0000
  O   O3        1.0  0.10726490878590757  0.4232671066173948  0.3267158547470856  1.0000
  O   O4        1.0  0.8927332904224486  0.5767339418105378  0.6732869874979883  1.0000
  O   O5        1.0  0.3945903752734735  0.8235643788824232  0.8817310357971736  1.0000
  O   O6        1.0  0.6053942244667709  0.17643187951075837  0.11827150327682287  1.0000
  O   O7        1.0  0.15603444466867689  0.8618335276784278  0.9583667541528486  1.0000
  O   O8        1.0  0.8439704430412008  0.138164982332988  0.04163829384146571  1.0000
  O   O9        1.0  0.22188831182269556  0.0926849053195582  0.0482823261286711  1.0000
  O   O10       1.0  0.7781136433471972  0.9073153817368007  0.9517173152818401  1.0000
