data_image0
_chemical_formula_structural       Cd2H22C32N8O14
_chemical_formula_sum              "Cd2 H22 C32 N8 O14"
_cell_length_a       7.594965490384383
_cell_length_b       7.620901636353084
_cell_length_c       14.646024306693361
_cell_angle_alpha    98.99750306449603
_cell_angle_beta     97.88764065055449
_cell_angle_gamma    89.50005739095567

_space_group_name_H-M_alt    "P 1"
_space_group_IT_number       1

loop_
  _space_group_symop_operation_xyz
  'x, y, z'

loop_
  _atom_site_type_symbol
  _atom_site_label
  _atom_site_symmetry_multiplicity
  _atom_site_fract_x
  _atom_site_fract_y
  _atom_site_fract_z
  _atom_site_occupancy
  Cd  Cd1       1.0  0.0  0.0  0.0  1.0000
  Cd  Cd2       1.0  0.49999968299820097  0.4999973021044966  0.9999989341525218  1.0000
  H   H1        1.0  0.241880178142253  0.2367064802405991  0.7219497887611864  1.0000
  H   H2        1.0  0.7581254159033151  0.7632900951821355  0.2780504142008624  1.0000
  H   H3        1.0  0.4058321641068332  0.5561098192091619  0.22808610568130658  1.0000
  H   H4        1.0  0.5941667939976298  0.4438881539208666  0.7719150756056834  1.0000
  H   H5        1.0  0.1372719114968177  0.7153698241404668  0.1598918596708003  1.0000
  H   H6        1.0  0.8627271279048044  0.28463077607410275  0.8401074827286266  1.0000
  H   H7        1.0  0.29729160738939  0.24988306229464996  0.18186330923114005  1.0000
  H   H8        1.0  0.7027100900954224  0.7501175182765747  0.8181362301498893  1.0000
  H   H9        1.0  0.0337870838110561  0.7390733392264651  0.5631715383640239  1.0000
  H   H10       1.0  0.9662146405723816  0.2609272112961918  0.4368259522546864  1.0000
  H   H11       1.0  0.4350659123316518  0.7925826298755893  0.5656969827675055  1.0000
  H   H12       1.0  0.5649332272014861  0.20742465323647957  0.4343056160019215  1.0000
  H   H13       1.0  0.495987712138259  0.35969224304668757  0.3437140638848604  1.0000
  H   H14       1.0  0.5040099716237947  0.6403097556532272  0.656289382485788  1.0000
  H   H15       1.0  0.3339655203647424  0.9834935127970751  0.44863532228474406  1.0000
  H   H16       1.0  0.6660322898261627  0.01651242152155419  0.5513650242941849  1.0000
  H   H17       1.0  0.10250037709786139  0.0664224290375302  0.5719624543170025  1.0000
  H   H18       1.0  0.8975026855940129  0.9335794602623793  0.4280366055714282  1.0000
  H   H19       1.0  0.1929469146865799  0.3705363493327098  0.013952689515242901  1.0000
  H   H20       1.0  0.8070520975157789  0.6294629223153124  0.986046547946813  1.0000
  H   H21       1.0  0.16812732418154747  0.5782766051400827  0.0037992090878517914  1.0000
  H   H22       1.0  0.8318730173630442  0.4217240153013719  0.9962022805646953  1.0000
  C   C1        1.0  0.3063471703731437  0.1485185422001081  0.8865606220023776  1.0000
  C   C2        1.0  0.6936544727131277  0.8514793812380076  0.11343870750388868  1.0000
  C   C3        1.0  0.199183353305969  0.8388628781847628  0.7958256654221358  1.0000
  C   C4        1.0  0.8008182987465062  0.161135035237173  0.2041729811633601  1.0000
  C   C5        1.0  0.36038260195154237  0.7798983087866562  0.33196482335766575  1.0000
  C   C6        1.0  0.6396164284838762  0.22010230144410062  0.6680352019625388  1.0000
  C   C7        1.0  0.24990094020543546  0.7433626058531785  0.8790946766436959  1.0000
  C   C8        1.0  0.7500967064892095  0.25663399845104345  0.12090288661125469  1.0000
  C   C9        1.0  0.47132439193494235  0.5583021453187839  0.4648647066592701  1.0000
  C   C10       1.0  0.5286733551918558  0.441702500498046  0.5351382666653633  1.0000
  C   C11       1.0  0.23945101917175998  0.0201394069611496  0.7991054911746787  1.0000
  C   C12       1.0  0.7605493131059833  0.9798598648813766  0.20089452769894223  1.0000
  C   C13       1.0  0.20765818102921677  0.0971393685866317  0.7175805019730672  1.0000
  C   C14       1.0  0.792342124049256  0.9028585746893469  0.2824194119631755  1.0000
  C   C15       1.0  0.4069819632959407  0.6046601915693375  0.30217296437761115  1.0000
  C   C16       1.0  0.5930157748646537  0.3953444642636725  0.6978306918678001  1.0000
  C   C17       1.0  0.12614476493568108  0.7438226054194459  0.7086614619175575  1.0000
  C   C18       1.0  0.8738582251246001  0.2561752881646271  0.2913366002379618  1.0000
  C   C19       1.0  0.1966716979833123  0.8463729479578462  0.1832565049703376  1.0000
  C   C20       1.0  0.8033286886929716  0.153628981017782  0.8167437237780462  1.0000
  C   C21       1.0  0.2796859843581671  0.11736161975385069  0.19777536511479343  1.0000
  C   C22       1.0  0.7203157041604342  0.8826389708335611  0.8022248571869992  1.0000
  C   C23       1.0  0.09076150976140698  0.8213949054475121  0.627893879664107  1.0000
  C   C24       1.0  0.9092388314825399  0.178604356378834  0.3721054562887429  1.0000
  C   C25       1.0  0.42606650088499265  0.7365000739484628  0.4921543701962604  1.0000
  C   C26       1.0  0.5739286332903079  0.26350590004589247  0.5078471452426143  1.0000
  C   C27       1.0  0.460841756615075  0.4958600318241153  0.368441231819446  1.0000
  C   C28       1.0  0.5391547066018205  0.5041459323485711  0.6315603821102299  1.0000
  C   C29       1.0  0.3697484524350969  0.846225192348946  0.42672532737113755  1.0000
  C   C30       1.0  0.630250587567815  0.1537781250958474  0.5732783224276901  1.0000
  C   C31       1.0  0.1307989783862311  0.0005339136966071981  0.6330947011692273  1.0000
  C   C32       1.0  0.8692013993238348  0.9994680252952148  0.366906210499927  1.0000
  N   N1        1.0  0.3028435335493142  0.8911657370802927  0.26491506080188276  1.0000
  N   N2        1.0  0.6971554789536897  0.10883489318283777  0.7350863303598699  1.0000
  N   N3        1.0  0.079164674576262  0.5546401455183985  0.6992840245425922  1.0000
  N   N4        1.0  0.9208343104268266  0.44535779756306937  0.3007151079820787  1.0000
  N   N5        1.0  0.3569967915924934  0.0650377347063014  0.2756564861391055  1.0000
  N   N6        1.0  0.6430022660421955  0.9349642040910024  0.7243436441184768  1.0000
  N   N7        1.0  0.17930860781108038  0.9871788662848218  0.13913346031926468  1.0000
  N   N8        1.0  0.8206917788651965  0.0128230626908064  0.8608667684291191  1.0000
  O   O1        1.0  0.2195007286487822  0.49426470701128983  0.0462010427288817  1.0000
  O   O2        1.0  0.7805022434790772  0.5057332066051572  0.953798385268179  1.0000
  O   O3        1.0  0.21961331350532734  0.15992827816445748  0.9564086268425172  1.0000
  O   O4        1.0  0.7803883206147404  0.8400696552898451  0.04359138558451997  1.0000
  O   O5        1.0  0.4357398816237107  0.24873244556737722  0.8831326114373184  1.0000
  O   O6        1.0  0.5642617524963569  0.7512654878869327  0.11686740098972585  1.0000
  O   O7        1.0  0.14466126387250708  0.747272195000221  0.9401079036945815  1.0000
  O   O8        1.0  0.8553337247389479  0.252724428947353  0.0598894625787736  1.0000
  O   O9        1.0  0.055748216421875406  0.49490270302645467  0.7711226076877296  1.0000
  O   O10       1.0  0.9442507503481536  0.5050939014722786  0.228875736978793  1.0000
  O   O11       1.0  0.06328905446569172  0.46458222826785794  0.6201961963313777  1.0000
  O   O12       1.0  0.9367059251795667  0.5354144056958959  0.37980185286274076  1.0000
  O   O13       1.0  0.3979211362111954  0.6665263926145711  0.8810105203194779  1.0000
  O   O14       1.0  0.602075154543236  0.33347025155988774  0.11898899320699032  1.0000
