data_image0
_chemical_formula_structural       Cu2H28C34N4O14
_chemical_formula_sum              "Cu2 H28 C34 N4 O14"
_cell_length_a       8.53403702086322
_cell_length_b       10.082066517083948
_cell_length_c       10.582252019371175
_cell_angle_alpha    62.2522731006243
_cell_angle_beta     87.62476763677049
_cell_angle_gamma    76.9447538270817

_space_group_name_H-M_alt    "P 1"
_space_group_IT_number       1

loop_
  _space_group_symop_operation_xyz
  'x, y, z'

loop_
  _atom_site_type_symbol
  _atom_site_label
  _atom_site_symmetry_multiplicity
  _atom_site_fract_x
  _atom_site_fract_y
  _atom_site_fract_z
  _atom_site_occupancy
  Cu  Cu1       1.0  0.5996668231306258  0.8341520602156575  0.823308136451189  1.0000
  Cu  Cu2       1.0  0.40033584288317303  0.16585670387021878  0.17668266511535077  1.0000
  H   H1        1.0  0.5337808915080018  0.6168353168382338  0.0809000762033634  1.0000
  H   H2        1.0  0.46622460548040573  0.38316658883870497  0.9190870159214342  1.0000
  H   H3        1.0  0.5030494359395092  0.7789466189869143  0.0855658880198861  1.0000
  H   H4        1.0  0.49695372907904556  0.22105521567108602  0.9144298174792241  1.0000
  H   H5        1.0  0.4020549961215636  0.9351998206163898  0.563054332423981  1.0000
  H   H6        1.0  0.5979487440350296  0.0647996133997424  0.4369527989523548  1.0000
  H   H7        1.0  0.11914109024652926  0.0607643777958131  0.4680383932466158  1.0000
  H   H8        1.0  0.8808649227676002  0.9392305116906529  0.5319630902435079  1.0000
  H   H9        1.0  0.9192244978940635  0.131429433156832  0.6225935975229221  1.0000
  H   H10       1.0  0.08077542439888673  0.8685712595007613  0.3774027148540498  1.0000
  H   H11       1.0  0.02168234767334099  0.07583603010284888  0.86572804111362  1.0000
  H   H12       1.0  0.978312333839774  0.924166929834996  0.13427312339148761  1.0000
  H   H13       1.0  0.3112658839186295  0.9483732769025719  0.9463710142132769  1.0000
  H   H14       1.0  0.6887287992965838  0.05162967435902029  0.053631099035101215  1.0000
  H   H15       1.0  0.800983511539954  0.7839238463829545  0.06281802062329692  1.0000
  H   H16       1.0  0.19901938548369463  0.21607908881899357  0.9371828824848693  1.0000
  H   H17       1.0  0.09291478849848286  0.6804195967858817  0.15085712454822436  1.0000
  H   H18       1.0  0.9070890039620423  0.3195844874838798  0.8491432463669142  1.0000
  H   H19       1.0  0.28827180921756934  0.5893439212859802  0.0061309587957154585  1.0000
  H   H20       1.0  0.7117317016312725  0.41066133293781343  0.9938670197822717  1.0000
  H   H21       1.0  0.17896040817760916  0.6019694764386399  0.7834534104259704  1.0000
  H   H22       1.0  0.8210393035306608  0.39803694098775816  0.21654418532868652  1.0000
  H   H23       1.0  0.884064278838785  0.7068339956887113  0.7120789517974445  1.0000
  H   H24       1.0  0.11593516487458538  0.2931735222816343  0.28792384156626133  1.0000
  H   H25       1.0  0.6747288487595213  0.718140594679468  0.44638914393808443  1.0000
  H   H26       1.0  0.32526486799181953  0.2818566526995311  0.5536098257884846  1.0000
  H   H27       1.0  0.2891875679986811  0.7167236049631922  0.5524364983708879  1.0000
  H   H28       1.0  0.7108137436296076  0.28327133336311044  0.4475613395158149  1.0000
  C   C1        1.0  0.31430008967346607  0.9669570680018894  0.627474610034305  1.0000
  C   C2        1.0  0.6857013589025343  0.03304700598275189  0.3725277330522232  1.0000
  C   C3        1.0  0.15457495143854771  0.03800559530673549  0.5750148364314924  1.0000
  C   C4        1.0  0.8454287716970799  0.9619939254719935  0.4249828075120946  1.0000
  C   C5        1.0  0.045620837822212906  0.0780786734576964  0.6601410119676885  1.0000
  C   C6        1.0  0.9543810978438574  0.9219185318328866  0.3398595938484945  1.0000
  C   C7        1.0  0.10188303867364819  0.04648922290714099  0.7952222711392948  1.0000
  C   C8        1.0  0.8981124808661247  0.9535102618736601  0.20478227540416327  1.0000
  C   C9        1.0  0.26322476245022836  0.9743031586116685  0.8416517298917726  1.0000
  C   C10       1.0  0.7367719830378333  0.025700972889069394  0.1583460188480643  1.0000
  C   C11       1.0  0.8904411297816567  0.7462020921070119  0.0029749372053160844  1.0000
  C   C12       1.0  0.10956238276928328  0.25380315344052207  0.9970239901159489  1.0000
  C   C13       1.0  0.052695547791678565  0.6881854849615365  0.05070194486662418  1.0000
  C   C14       1.0  0.9473052852570304  0.3118162786775329  0.9493023740068054  1.0000
  C   C15       1.0  0.16062108549638046  0.6370973284483911  0.9711366428522723  1.0000
  C   C16       1.0  0.8393768370402411  0.362906782166128  0.028862966031695695  1.0000
  C   C17       1.0  0.10103317014035437  0.6449400758791342  0.8467236928467231  1.0000
  C   C18       1.0  0.8989664773493048  0.35506175202744567  0.15327402216620106  1.0000
  C   C19       1.0  0.9371070092677415  0.7032483901111489  0.8057153123474022  1.0000
  C   C20       1.0  0.06289243444562939  0.2967591278591968  0.1942874810163033  1.0000
  C   C21       1.0  0.5577123858979505  0.62243522987373  0.7161168987050743  1.0000
  C   C22       1.0  0.44228887512851145  0.37755504952268365  0.2838886483860961  1.0000
  C   C23       1.0  0.5390102124253956  0.5592062632781489  0.6113847694908545  1.0000
  C   C24       1.0  0.46098959674921497  0.4407851722534701  0.38862032009214437  1.0000
  C   C25       1.0  0.6163156633826645  0.6253397986627433  0.4646160691805223  1.0000
  C   C26       1.0  0.3836788930974321  0.37465396488295255  0.5353872313276753  1.0000
  C   C27       1.0  0.71956108381832  0.5033517249363227  0.4342396635085494  1.0000
  C   C28       1.0  0.2804181680874365  0.49663740826504477  0.5657737291421299  1.0000
  C   C29       1.0  0.3628678467582843  0.6244268306722629  0.5338169322488043  1.0000
  C   C30       1.0  0.637131619990228  0.3755611679410507  0.46618778174186554  1.0000
  C   C31       1.0  0.5597214935332672  0.31855103420381414  0.6133671102015726  1.0000
  C   C32       1.0  0.44027630567242687  0.6814438713422888  0.38663558342876314  1.0000
  C   C33       1.0  0.6002464512083279  0.14488428013886792  0.7170152226247951  1.0000
  C   C34       1.0  0.39974989274132605  0.8551117988949667  0.28298511601080645  1.0000
  N   N1        1.0  0.3673060047617298  0.9336229864304142  0.759442603412758  1.0000
  N   N2        1.0  0.6326963392511402  0.06638223662204008  0.2405592074807501  1.0000
  N   N3        1.0  0.8338103940780783  0.7536971494401566  0.8821870881868821  1.0000
  N   N4        1.0  0.1661882082044386  0.24631386103975925  0.11781042565191771  1.0000
  O   O1        1.0  0.6200525245510277  0.7382214581420641  0.6706379760657272  1.0000
  O   O2        1.0  0.379941957497877  0.2617677679413646  0.3293597512410927  1.0000
  O   O3        1.0  0.5024351686517221  0.5585704782221156  0.8366339980194369  1.0000
  O   O4        1.0  0.49756609918312483  0.44141976646925213  0.16337534404484444  1.0000
  O   O5        1.0  0.642041499952505  0.05597233270657401  0.6607584958776584  1.0000
  O   O6        1.0  0.35794741794666146  0.9440399454070416  0.3392293344171478  1.0000
  O   O7        1.0  0.57971867298658  0.1022041720226667  0.8476946512509684  1.0000
  O   O8        1.0  0.4202835408869775  0.8977918806664105  0.1523064494158106  1.0000
  O   O9        1.0  0.5843359925985679  0.3959589087755973  0.6907327907629083  1.0000
  O   O10       1.0  0.4156623630220935  0.604033691567487  0.30927089256863377  1.0000
  O   O11       1.0  0.8513462484774692  0.5099677060047371  0.3833327272813207  1.0000
  O   O12       1.0  0.14866735260522293  0.4900249091340781  0.616663829395833  1.0000
  O   O13       1.0  0.5591534926552272  0.720952473127582  0.03498589341344882  1.0000
  O   O14       1.0  0.44085263347724163  0.279051673484858  0.965006812870655  1.0000
