data_image0
_chemical_formula_structural       Al4H20C41Br2O21
_chemical_formula_sum              "Al4 H20 C41 Br2 O21"
_cell_length_a       6.703736804011033
_cell_length_b       19.659732168728542
_cell_length_c       21.227557019659848
_cell_angle_alpha    86.78788615110615
_cell_angle_beta     88.213260556697
_cell_angle_gamma    88.95419007154887

_space_group_name_H-M_alt    "P 1"
_space_group_IT_number       1

loop_
  _space_group_symop_operation_xyz
  'x, y, z'

loop_
  _atom_site_type_symbol
  _atom_site_label
  _atom_site_symmetry_multiplicity
  _atom_site_fract_x
  _atom_site_fract_y
  _atom_site_fract_z
  _atom_site_occupancy
  Al  Al1       1.0  0.8737793514454777  0.5104688706164637  0.507528063381635  1.0000
  Al  Al2       1.0  0.372578128054009  0.5101938291546871  0.5085157484598498  1.0000
  Al  Al3       1.0  0.3467651173839954  0.981957148231778  0.984154590504204  1.0000
  Al  Al4       1.0  0.8478415086610056  0.9820452040052742  0.9837776601732033  1.0000
  H   H1        1.0  0.015008614030385597  0.2828494842713951  0.13956999298532222  1.0000
  H   H2        1.0  0.07673343698461821  0.36135361903306057  0.21456480905595754  1.0000
  H   H3        1.0  0.4315534628516175  0.25363523892768575  0.2995416037675441  1.0000
  H   H4        1.0  0.39824926518921433  0.3215090670541727  0.2434879348334178  1.0000
  H   H5        1.0  0.3707964183144695  0.24632831688760595  0.1635671061457913  1.0000
  H   H6        1.0  0.1607190195472157  0.2010390079715734  0.35533852145781  1.0000
  H   H7        1.0  0.8721410819722235  0.1542525128324641  0.2653532369651685  1.0000
  H   H8        1.0  0.8177365423800038  0.24695762073251604  0.18774029258317174  1.0000
  H   H9        1.0  0.11384963156721987  0.12077647229475728  0.2818635076092449  1.0000
  H   H10       1.0  0.5852693175309012  0.41202218204754354  0.2397263642299876  1.0000
  H   H11       1.0  0.7818199884102055  0.4131641732102409  0.1813557792495217  1.0000
  H   H12       1.0  0.8079709082621915  0.4592605846138227  0.31684721490358214  1.0000
  H   H13       1.0  0.010146527242504484  0.45920802362935126  0.26179776631904167  1.0000
  H   H14       1.0  0.8219936296532635  0.5412431417259357  0.18781575430244862  1.0000
  H   H15       1.0  0.8545000165370098  0.5756054242114388  0.2623818654529018  1.0000
  H   H16       1.0  0.6202314229552995  0.5429691788969748  0.24397210752398732  1.0000
  H   H17       1.0  0.6285398141432167  0.4217145595598453  0.503714076495001  1.0000
  H   H18       1.0  0.11711117134982629  0.5975688595265042  0.5213995433363651  1.0000
  H   H19       1.0  0.5919617356200673  0.06927520956125481  0.9942039204114793  1.0000
  H   H20       1.0  0.10303985379150049  0.894019475515229  0.9732411751978418  1.0000
  C   C1        1.0  0.6254534598147075  0.5945124851185141  0.4205688021425473  1.0000
  C   C2        1.0  0.611696326369305  0.590522003452044  0.5906444566280485  1.0000
  C   C3        1.0  0.11872649627660788  0.4240445625231501  0.5940939636415551  1.0000
  C   C4        1.0  0.13650964956646305  0.42947918372635024  0.42654188813523325  1.0000
  C   C5        1.0  0.9929150376267372  0.3177139443322332  0.2361093485257513  1.0000
  C   C6        1.0  0.3331009601314675  0.27342884583347876  0.2622606783386773  1.0000
  C   C7        1.0  0.3203311575508109  0.22339574121524208  0.2094064193702181  1.0000
  C   C8        1.0  0.0804678684233338  0.10979317174592042  0.11512071321353551  1.0000
  C   C9        1.0  0.1218462356347487  0.28858655250303394  0.2916999703744807  1.0000
  C   C10       1.0  0.9740877494221818  0.2627056210586431  0.18747838517739981  1.0000
  C   C11       1.0  0.10421689054786747  0.19868510785783394  0.2047293041647009  1.0000
  C   C12       1.0  0.0287644205146904  0.1676525596017768  0.2696888637054116  1.0000
  C   C13       1.0  0.0503581724296893  0.21894293303037662  0.32094772605567107  1.0000
  C   C14       1.0  0.0889231001394393  0.14985861233721923  0.1564280001057838  1.0000
  C   C15       1.0  0.13538625985328417  0.33801891979327087  0.339410422867914  1.0000
  C   C16       1.0  0.1425883726198478  0.3802394709362957  0.3788248585735232  1.0000
  C   C17       1.0  0.10415832880246256  0.12152562624243757  0.8484856137135778  1.0000
  C   C18       1.0  0.10627790773450127  0.16930749655546856  0.8087670158950289  1.0000
  C   C19       1.0  0.10813548327773498  0.2219037418205474  0.7657211262814272  1.0000
  C   C20       1.0  0.11006371317198928  0.2706711740731507  0.7265213088676392  1.0000
  C   C21       1.0  0.11260363082116238  0.3232327392526456  0.6834514456050869  1.0000
  C   C22       1.0  0.11528401077901408  0.3709206889557635  0.6436397056240182  1.0000
  C   C23       1.0  0.6239596409319431  0.6426429031692891  0.3668113758241489  1.0000
  C   C24       1.0  0.617664287894051  0.6833081924736462  0.3209101416033847  1.0000
  C   C25       1.0  0.6112685647405554  0.7271163930882664  0.2702392435482325  1.0000
  C   C26       1.0  0.6052326634309536  0.7673345078204435  0.22353380712264231  1.0000
  C   C27       1.0  0.5989354179436502  0.8112010957750826  0.17289178760306362  1.0000
  C   C28       1.0  0.5937357621987118  0.8514112189804594  0.1266361357747883  1.0000
  C   C29       1.0  0.6073842350124536  0.6378098863904924  0.6401136316051038  1.0000
  C   C30       1.0  0.6083661556093033  0.6794230952228375  0.6810386361871963  1.0000
  C   C31       1.0  0.6099676653077992  0.7252051648497613  0.725550158883344  1.0000
  C   C32       1.0  0.6120607800709408  0.7675065930842279  0.7663272767595403  1.0000
  C   C33       1.0  0.6130796472836337  0.8131792599925873  0.8109566320252668  1.0000
  C   C34       1.0  0.6138156584530421  0.854647512131237  0.8520249155894818  1.0000
  C   C35       1.0  0.6093592212668637  0.9020892964822309  0.9013727831043569  1.0000
  C   C36       1.0  0.5934752021740193  0.8982638794277238  0.07188869732665641  1.0000
  C   C37       1.0  0.08428380707395178  0.06216355390225909  0.06604288523602972  1.0000
  C   C38       1.0  0.10198152818949778  0.06825775893577202  0.897939308804162  1.0000
  C   C39       1.0  0.7484988986933202  0.4082286365353341  0.2328341210354097  1.0000
  C   C40       1.0  0.8466543112997157  0.46493779331693463  0.2661179347064717  1.0000
  C   C41       1.0  0.7825150825535868  0.5349831205185538  0.2384798790301446  1.0000
  Br  Br1       1.0  0.5048566151114569  0.14433054860283792  0.22201195826001202  1.0000
  Br  Br2       1.0  0.8043831097533312  0.2247279770023667  0.3745605636952334  1.0000
  O   O1        1.0  0.443819980969728  0.5723053191147897  0.5714323287349288  1.0000
  O   O2        1.0  0.7956549801505374  0.5762293742300315  0.44114920705096955  1.0000
  O   O3        1.0  0.9635095832679068  0.44959239524226285  0.44495413277547163  1.0000
  O   O4        1.0  0.7842163048702913  0.572409989811966  0.5703507341182857  1.0000
  O   O5        1.0  0.9497505035729927  0.44401655075662927  0.5736227637695634  1.0000
  O   O6        1.0  0.45477975415759175  0.5757329333148818  0.4422221346184117  1.0000
  O   O7        1.0  0.6254169916499986  0.47035233510352725  0.5090392370700273  1.0000
  O   O8        1.0  0.29051222765517076  0.4445326786968593  0.574999378395937  1.0000
  O   O9        1.0  0.3028327227421598  0.4481516593517156  0.4466222274040845  1.0000
  O   O10       1.0  0.1210396103804854  0.5512553195689947  0.5079512093096952  1.0000
  O   O11       1.0  0.7645968328610946  0.9158013803783118  0.04957866106167331  1.0000
  O   O12       1.0  0.43681473448339136  0.9200329137700507  0.9217540545380417  1.0000
  O   O13       1.0  0.2714884055704657  0.04777570233983399  0.9175098069193695  1.0000
  O   O14       1.0  0.4235755195927168  0.9164716873473537  0.0510622459943733  1.0000
  O   O15       1.0  0.2567816454493864  0.0436560106739563  0.0458180879655359  1.0000
  O   O16       1.0  0.7770357183532043  0.9206584703712647  0.9203587282326567  1.0000
  O   O17       1.0  0.5953119996880217  0.022076582176417496  0.983250671107335  1.0000
  O   O18       1.0  0.9171605540621427  0.0433791669220867  0.04660383129098731  1.0000
  O   O19       1.0  0.9305414143309105  0.04827890588354929  0.9178902054659164  1.0000
  O   O20       1.0  0.09934825175294996  0.9412077115537798  0.9841976361450051  1.0000
  O   O21       1.0  0.8014109804915818  0.3408061281309002  0.2568844951149387  1.0000
