data_image0
_chemical_formula_structural       Mg6H24C48O18
_chemical_formula_sum              "Mg6 H24 C48 O18"
_cell_length_a       6.853476584132673
_cell_length_b       25.764096017784567
_cell_length_c       25.760452846848686
_cell_angle_alpha    119.2131310040988
_cell_angle_beta     95.08366580127934
_cell_angle_gamma    95.08752555778011

_space_group_name_H-M_alt    "P 1"
_space_group_IT_number       1

loop_
  _space_group_symop_operation_xyz
  'x, y, z'

loop_
  _atom_site_type_symbol
  _atom_site_label
  _atom_site_symmetry_multiplicity
  _atom_site_fract_x
  _atom_site_fract_y
  _atom_site_fract_z
  _atom_site_occupancy
  Mg  Mg1       1.0  0.19686602207193  0.3027768081612976  0.6828264237911412  1.0000
  Mg  Mg2       1.0  0.5138442742967798  0.3171353701473052  0.6199406259653271  1.0000
  Mg  Mg3       1.0  0.8940532031456174  0.37998357918352343  0.6971920213497922  1.0000
  Mg  Mg4       1.0  0.18049488894973822  0.6212288097246699  0.3219919419324312  1.0000
  Mg  Mg5       1.0  0.858561620562078  0.6780698315034073  0.2991949082960799  1.0000
  Mg  Mg6       1.0  0.5593703137842211  0.7008468042216691  0.3788274598056913  1.0000
  H   H1        1.0  0.9922602461176597  0.4315108084866068  0.8549658571298409  1.0000
  H   H2        1.0  0.1375604198793923  0.1449567641356353  0.5766418549584671  1.0000
  H   H3        1.0  0.5605836551949964  0.4234893763977041  0.5685065852208878  1.0000
  H   H4        1.0  0.011319315894382984  0.49776487783407214  0.9605451619419652  1.0000
  H   H5        1.0  0.0513357387093762  0.0394292794297399  0.5374292791437014  1.0000
  H   H6        1.0  0.513269408662616  0.46269426092447935  0.5022325728154654  1.0000
  H   H7        1.0  0.4316877512232083  0.560817165247819  0.027827432412529145  1.0000
  H   H8        1.0  0.404312409642337  0.9720843073000083  0.532995005505576  1.0000
  H   H9        1.0  0.8705108607349318  0.46701531239266814  0.43912163748912286  1.0000
  H   H10       1.0  0.4948928214639069  0.606496065371033  0.1302633708295317  1.0000
  H   H11       1.0  0.364604601702716  0.8696301099139774  0.4762796428233357  1.0000
  H   H12       1.0  0.8880451998417771  0.5237894926862198  0.3935200234902325  1.0000
  H   H13       1.0  0.7898740289932675  0.5681916680749949  0.14762636976822552  1.0000
  H   H14       1.0  0.6425089199972407  0.852523145080319  0.4205153116274614  1.0000
  H   H15       1.0  0.2215765476655847  0.5795833213818185  0.4318708716195018  1.0000
  H   H16       1.0  0.8847381229951384  0.5375077408134247  0.04741836921713367  1.0000
  H   H17       1.0  0.8377706472877193  0.9526573595465705  0.4900333209595259  1.0000
  H   H18       1.0  0.3467841545244284  0.5100197756147082  0.4625465122015199  1.0000
  H   H19       1.0  0.553360394859297  0.5437544147940584  0.9543668838721472  1.0000
  H   H20       1.0  0.5995361041081538  0.0456139595914422  0.5894689785665079  1.0000
  H   H21       1.0  0.008997602544624811  0.4104608177916376  0.456069181795243  1.0000
  H   H22       1.0  0.7011769504063636  0.4954247637226317  0.8610953393807533  1.0000
  H   H23       1.0  0.8404552143969826  0.13890063767145483  0.6343687405533132  1.0000
  H   H24       1.0  0.20532324872828414  0.3656047251170733  0.5044287521409385  1.0000
  C   C1        1.0  0.23014336412853  0.41817613176229423  0.8034040395063755  1.0000
  C   C2        1.0  0.42699337111204744  0.1965452279876772  0.6148371962777119  1.0000
  C   C3        1.0  0.8117323556995614  0.3851881389149199  0.5817705449721586  1.0000
  C   C4        1.0  0.14855068927946039  0.44629450090209116  0.8572268415070992  1.0000
  C   C5        1.0  0.29161433458295255  0.14272813805285983  0.5891849988128824  1.0000
  C   C6        1.0  0.7019755636580527  0.41090067777300743  0.5536750041964777  1.0000
  C   C7        1.0  0.2608434343767527  0.49002681082031063  0.9122624321024374  1.0000
  C   C8        1.0  0.34901014023716215  0.0877083921207245  0.5778901213983971  1.0000
  C   C9        1.0  0.7704765387322042  0.4221814951119852  0.5099150106150033  1.0000
  C   C10       1.0  0.1702659241987448  0.5130106631769564  0.9669424084044775  1.0000
  C   C11       1.0  0.20386372428384195  0.03303414627476539  0.5462194579370347  1.0000
  C   C12       1.0  0.6568956232388248  0.45388222473290796  0.4869504247798486  1.0000
  C   C13       1.0  0.2719976698193988  0.5478879307163637  0.023222645044427143  1.0000
  C   C14       1.0  0.2492026035610238  0.9767301261264194  0.5247191581562517  1.0000
  C   C15       1.0  0.7237414496899107  0.4753469798140486  0.45210476359281415  1.0000
  C   C16       1.0  0.2001917507802915  0.5683047345059578  0.08043380021308608  1.0000
  C   C17       1.0  0.12005822009903971  0.9195657766242461  0.48785745872606834  1.0000
  C   C18       1.0  0.6314903753526977  0.5121828646143953  0.4317304399241947  1.0000
  C   C19       1.0  0.3388572555309893  0.5971738664490189  0.13301424460034636  1.0000
  C   C20       1.0  0.2059308144282922  0.8669577317624471  0.4641547283248  1.0000
  C   C21       1.0  0.741316239625263  0.53586697451707  0.40282793533440037  1.0000
  C   C22       1.0  0.2881136651756436  0.6144892452948697  0.19026757984200768  1.0000
  C   C23       1.0  0.0978927659737252  0.8097408117677033  0.42418640096172294  1.0000
  C   C24       1.0  0.6734903094313935  0.5758407651719962  0.3855356080963828  1.0000
  C   C25       1.0  0.08523537693088913  0.6028545199758994  0.19590126972682487  1.0000
  C   C26       1.0  0.8893937155290529  0.8041416151209474  0.4069017036475059  1.0000
  C   C27       1.0  0.4822871611862211  0.5931405885206258  0.39718875138071724  1.0000
  C   C28       1.0  0.9444437728854922  0.5759680585309965  0.14283805909780506  1.0000
  C   C29       1.0  0.8018551413897228  0.8572471412436401  0.4330635719839434  1.0000
  C   C30       1.0  0.3683321117607292  0.5669865405757548  0.42410206747997126  1.0000
  C   C31       1.0  0.9992058216242442  0.5589949686450665  0.08699955839791317  1.0000
  C   C32       1.0  0.9125486713826092  0.9130554045774415  0.471923065153376  1.0000
  C   C33       1.0  0.4398873508387454  0.5281141584372122  0.44108508007757746  1.0000
  C   C34       1.0  0.4492303626577083  0.6439009178579979  0.24198938773145057  1.0000
  C   C35       1.0  0.2071199766023284  0.7580009187898893  0.40184935659013366  1.0000
  C   C36       1.0  0.8051977060995487  0.5981516293992186  0.35612171593167824  1.0000
  C   C37       1.0  0.46257021970941287  0.5085278923233716  0.9129644504278785  1.0000
  C   C38       1.0  0.5500581026034226  0.08700356289435261  0.5956367939565651  1.0000
  C   C39       1.0  0.9536369247870624  0.40437594611316285  0.49137771753409953  1.0000
  C   C40       1.0  0.5458181550132721  0.481867155704144  0.8610085961287195  1.0000
  C   C41       1.0  0.6851723107701064  0.13895079972704852  0.6208938263538002  1.0000
  C   C42       1.0  0.06358150600750889  0.3790811934098882  0.5180229750955903  1.0000
  C   C43       1.0  0.43622176984252553  0.43608409503471524  0.8058161416286679  1.0000
  C   C44       1.0  0.6306822061119634  0.19412631342400036  0.6302833370374613  1.0000
  C   C45       1.0  0.9999101475076273  0.36970952706257526  0.5638489798822093  1.0000
  C   C46       1.0  0.5423118635781138  0.4089004280678097  0.7539219091483671  1.0000
  C   C47       1.0  0.7885448105762551  0.2460262242331979  0.6549766630750893  1.0000
  C   C48       1.0  0.13331837657727164  0.3450463130873374  0.5910502542295362  1.0000
  O   O1        1.0  0.7230557319257259  0.4288393965547784  0.757621135215544  1.0000
  O   O2        1.0  0.9656076907843529  0.24239800509773354  0.6712895123080003  1.0000
  O   O3        1.0  0.2941069013675275  0.32879859123031707  0.5710969199941615  1.0000
  O   O4        1.0  0.44896511757827545  0.3630868109720709  0.7044412738999097  1.0000
  O   O5        1.0  0.7444908892060553  0.2954560600883696  0.6585624436555619  1.0000
  O   O6        1.0  0.0859280184041182  0.3414175459231856  0.6369065681397429  1.0000
  O   O7        1.0  0.11239410101865838  0.37571596218587894  0.7530296115066192  1.0000
  O   O8        1.0  0.3595430923164927  0.2469193224245174  0.6227419300041389  1.0000
  O   O9        1.0  0.7364726748075656  0.3772256089664054  0.6242151419521917  1.0000
  O   O10       1.0  0.6245885037577353  0.6584846015209749  0.23589651912516263  1.0000
  O   O11       1.0  0.3885044132104054  0.7640030158025152  0.422494294297486  1.0000
  O   O12       1.0  0.9659844577132192  0.5775065094022693  0.3415136965262632  1.0000
  O   O13       1.0  0.4083849058466811  0.6538580731290224  0.2939066437129652  1.0000
  O   O14       1.0  0.1142489201523915  0.706129113723712  0.35987259965062174  1.0000
  O   O15       1.0  0.7543982227086874  0.6401086182983917  0.3461705993838746  1.0000
  O   O16       1.0  0.022283251407550598  0.6157650610230903  0.24812556581579046  1.0000
  O   O17       1.0  0.7740973054521803  0.7519354780001137  0.3676159813592362  1.0000
  O   O18       1.0  0.4064617164153362  0.6324622307876594  0.38427900580318636  1.0000
