data_image0
_chemical_formula_structural       Zn3H42C66N12O16
_chemical_formula_sum              "Zn3 H42 C66 N12 O16"
_cell_length_a       10.335535894609535
_cell_length_b       10.562962647286689
_cell_length_c       14.9663
_cell_angle_alpha    99.87418976865999
_cell_angle_beta     99.02526897478832
_cell_angle_gamma    112.36822502814051

_space_group_name_H-M_alt    "P 1"
_space_group_IT_number       1

loop_
  _space_group_symop_operation_xyz
  'x, y, z'

loop_
  _atom_site_type_symbol
  _atom_site_label
  _atom_site_symmetry_multiplicity
  _atom_site_fract_x
  _atom_site_fract_y
  _atom_site_fract_z
  _atom_site_occupancy
  Zn  Zn1       1.0  0.6130991074343584  0.41263569107846365  0.03614754861394688  1.0000
  Zn  Zn2       1.0  0.38689672046389495  0.5873616571909537  0.963852279820273  1.0000
  Zn  Zn3       1.0  0.5000014544927893  0.500002377816834  0.5000007460349138  1.0000
  H   H1        1.0  0.5897089643889047  0.8913323729239053  0.0745354292292788  1.0000
  H   H2        1.0  0.41029025427892674  0.108666033540409  0.925462221938915  1.0000
  H   H3        1.0  0.152723664525233  0.2517318666555752  0.7677068959250806  1.0000
  H   H4        1.0  0.8472760059181043  0.7482675980036291  0.2322929367633862  1.0000
  H   H5        1.0  0.8819710939542703  0.269595254640727  0.8175290113573085  1.0000
  H   H6        1.0  0.11803143936946736  0.7304063264082643  0.18247272395937134  1.0000
  H   H7        1.0  0.5630400523139018  0.4231954179135968  0.6970133114997807  1.0000
  H   H8        1.0  0.4369576588000684  0.5768040467456075  0.30298630892972517  1.0000
  H   H9        1.0  0.4292290383215445  0.026103551615292996  0.7884886901069166  1.0000
  H   H10       1.0  0.5707725914511599  0.9738959130439041  0.21151135484050343  1.0000
  H   H11       1.0  0.6043142135262941  0.3066098537955639  0.2040596094290592  1.0000
  H   H12       1.0  0.3956874162464105  0.6933896108636404  0.7959411036861752  1.0000
  H   H13       1.0  0.11786975722246502  0.4921780847795603  0.20266828930458297  1.0000
  H   H14       1.0  0.8821293853317018  0.5078224380745411  0.7973296097677648  1.0000
  H   H15       1.0  0.9308771502412015  0.4876744073158505  0.07451572151798298  1.0000
  H   H16       1.0  0.06912003298359791  0.5123261155382437  0.9254839697988615  1.0000
  H   H17       1.0  0.4383498037389942  0.8281211010032052  0.6743012690447543  1.0000
  H   H18       1.0  0.5616542371385975  0.171879421850889  0.32569916517844183  1.0000
  H   H19       1.0  0.4160354656757548  0.3155018654796606  0.8069015821140582  1.0000
  H   H20       1.0  0.5839646565431025  0.6844986573744335  0.19309709125558072  1.0000
  H   H21       1.0  0.8865465170607794  0.0696821336900939  0.7006241698333326  1.0000
  H   H22       1.0  0.11345646803847129  0.9303205055537872  0.29937707433234817  1.0000
  H   H23       1.0  0.06162307097261532  0.1112025266984205  0.23642471297797846  1.0000
  H   H24       1.0  0.9383747162550122  0.8887948215709969  0.7635753277152021  1.0000
  H   H25       1.0  0.9791125049578824  0.0803624947430066  0.3903448689908942  1.0000
  H   H26       1.0  0.02088859692565854  0.9196380281110876  0.6096559150116789  1.0000
  H   H27       1.0  0.7767957797895235  0.3053611838220718  0.3385470071606065  1.0000
  H   H28       1.0  0.22320539820767496  0.6946372226422355  0.6614528607699982  1.0000
  H   H29       1.0  0.29198802628740594  0.2543297351173663  0.1991234841258134  1.0000
  H   H30       1.0  0.708013075596128  0.7456707877367279  0.8008793043802102  1.0000
  H   H31       1.0  0.04074599813576901  0.2951400793526346  0.6215723076105846  1.0000
  H   H32       1.0  0.9592541240830813  0.7048604435014667  0.3784277020946974  1.0000
  H   H33       1.0  0.053593696934747505  0.24781337096757738  0.9345503428162234  1.0000
  H   H34       1.0  0.9464069531732804  0.7521860936916269  0.0654509323373489  1.0000
  H   H35       1.0  0.8231156236808772  0.097618478859701  0.9687339170077679  1.0000
  H   H36       1.0  0.1768841228761246  0.9023788694097162  0.0312656677765517  1.0000
  H   H37       1.0  0.5998620502448021  0.9830545898409895  0.5014951016451334  1.0000
  H   H38       1.0  0.40013762019853527  0.0169448748182148  0.4985033947076971  1.0000
  H   H39       1.0  0.7583955356435582  0.8985355055591099  0.4223037697493339  1.0000
  H   H40       1.0  0.241604134799779  0.1014639591000943  0.5776960629391326  1.0000
  H   H41       1.0  0.664145155344194  0.24419222804445437  0.5456673020131433  1.0000
  H   H42       1.0  0.3358569262040235  0.7558082948096398  0.4543329199510923  1.0000
  C   C1        1.0  0.6576592288135573  0.1586731495888927  0.8130283380568957  1.0000
  C   C2        1.0  0.3423418730699765  0.8413273732652016  0.18697244594567763  1.0000
  C   C3        1.0  0.6628399891037092  0.9362368731993627  0.6830532098801074  1.0000
  C   C4        1.0  0.33716450354939553  0.0637647078496215  0.3169480695277116  1.0000
  C   C5        1.0  0.2178914642817205  0.2976448266638627  0.7213110141209143  1.0000
  C   C6        1.0  0.782105267167566  0.7023546379953415  0.27868783201130043  1.0000
  C   C7        1.0  0.07516744257500821  0.40938703275760696  0.3599595415101079  1.0000
  C   C8        1.0  0.9248332075330127  0.5906124319015973  0.6400403973078356  1.0000
  C   C9        1.0  0.7854450050589039  0.1718497923938926  0.7860351438709615  1.0000
  C   C10       1.0  0.21455700037565617  0.8281528468499886  0.21396599416523543  1.0000
  C   C11       1.0  0.9636997573991553  0.3985193712086712  0.2827102429614712  1.0000
  C   C12       1.0  0.036298481603985515  0.6014790352556432  0.717289306580696  1.0000
  C   C13       1.0  0.32242992208453813  0.3411091236902379  0.0399357168466139  1.0000
  C   C14       1.0  0.6775692965832931  0.6588892827740693  0.9600666114963019  1.0000
  C   C15       1.0  0.44666206313937107  0.391724701802076  0.6828859949067906  1.0000
  C   C16       1.0  0.5533366276392827  0.6082747628571283  0.31711306348437773  1.0000
  C   C17       1.0  0.5307900392548248  0.0352114350575263  0.771762609734431  1.0000
  C   C18       1.0  0.46921151440422915  0.964790145991465  0.22823567861368588  1.0000
  C   C19       1.0  0.9286719047390265  0.0947348977768527  0.1044721355332072  1.0000
  C   C20       1.0  0.07132633426411425  0.9052635086874545  0.8955260776733311  1.0000
  C   C21       1.0  0.9300438851244763  0.2510948333301144  0.452630580434878  1.0000
  C   C22       1.0  0.06995766853457044  0.7489067477188769  0.5473697124166891  1.0000
  C   C23       1.0  0.19429718541363172  0.4027521507798255  0.4919962481085706  1.0000
  C   C24       1.0  0.8057033885807318  0.5972494302691658  0.5080032704456983  1.0000
  C   C25       1.0  0.7191370720371991  0.3457598902440395  0.2066629606981891  1.0000
  C   C26       1.0  0.2808625984061379  0.6542395744151577  0.7933382083259062  1.0000
  C   C27       1.0  0.005581150462887845  0.45025346132219113  0.2063552707236695  1.0000
  C   C28       1.0  0.9944189717559624  0.5497470615319102  0.7936447389816053  1.0000
  C   C29       1.0  0.9020782402342962  0.4488217236322427  0.1347276517338187  1.0000
  C   C30       1.0  0.09792090231987062  0.5511787992218515  0.8652735881776081  1.0000
  C   C31       1.0  0.5345814234438251  0.9253512223372553  0.707484871574394  1.0000
  C   C32       1.0  0.46542020632888653  0.074648242321949  0.292515173373026  1.0000
  C   C33       1.0  0.3655926371640916  0.3335864161974058  0.7437833401150655  1.0000
  C   C34       1.0  0.634406053614562  0.6664130484617985  0.25621638644391714  1.0000
  C   C35       1.0  0.6634366118098499  0.2753073906719976  0.8876645224776212  1.0000
  C   C36       1.0  0.33656449007368394  0.7246931321820966  0.11233559335713042  1.0000
  C   C37       1.0  0.24335354744061283  0.37541262752974797  0.5808087284640919  1.0000
  C   C38       1.0  0.7566470265537505  0.6245889535192362  0.41919145825799836  1.0000
  C   C39       1.0  0.7880700386401287  0.061812338272431995  0.7217036115157995  1.0000
  C   C40       1.0  0.21193437789931838  0.9381913591663462  0.27829791579616636  1.0000
  C   C41       1.0  0.18600260593160564  0.2588217724372512  0.0642196580271133  1.0000
  C   C42       1.0  0.8139994756166118  0.741178750416843  0.9357825684405726  1.0000
  C   C43       1.0  0.0605179418806046  0.1403378066815577  0.16997232705980994  1.0000
  C   C44       1.0  0.9394793174578524  0.8596605997827566  0.8300264481850662  1.0000
  C   C45       1.0  0.9043768166797151  0.1093326963228662  0.4235223917226421  1.0000
  C   C46       1.0  0.09562330553913516  0.890667826531228  0.5764776179826328  1.0000
  C   C47       1.0  0.6674857089390898  0.8145370531644858  0.6155960608654922  1.0000
  C   C48       1.0  0.33251780404932424  0.1854645278845055  0.3844037760772139  1.0000
  C   C49       1.0  0.8163406709783345  0.34410381523682787  0.2811596560482315  1.0000
  C   C50       1.0  0.18365952735418034  0.6558945912274794  0.7188407739207179  1.0000
  C   C51       1.0  0.18881540326081142  0.2207077087888081  0.1495708097129764  1.0000
  C   C52       1.0  0.8111851707335519  0.7792938722601761  0.8504307133447427  1.0000
  C   C53       1.0  0.15525841888370454  0.31980871869330935  0.6393113420297141  1.0000
  C   C54       1.0  0.8447417033351456  0.680191804160792  0.36068799950774644  1.0000
  C   C55       1.0  0.05367665707215253  0.2167818057365665  0.000206125890123599  1.0000
  C   C56       1.0  0.946325424476072  0.7832187171175278  0.9997947642419333  1.0000
  C   C57       1.0  0.7944129836720819  0.0022486641471744  0.12682650914324256  1.0000
  C   C58       1.0  0.20558133667231704  0.9977497423171328  0.8731719477131962  1.0000
  C   C59       1.0  0.9255169935846795  0.1338627121325828  0.019530010759410722  1.0000
  C   C60       1.0  0.07448312863417067  0.8661378107215114  0.9804686626102282  1.0000
  C   C61       1.0  0.6945260257338717  0.05773299696073049  0.48571638915583293  1.0000
  C   C62       1.0  0.30547454826049153  0.9422685840882536  0.5142831293984358  1.0000
  C   C63       1.0  0.7827637614933495  0.0105713669789509  0.4415381200530959  1.0000
  C   C64       1.0  0.21723636072550087  0.9894291558751434  0.558460553316543  1.0000
  C   C65       1.0  0.730515387317098  0.2026125761221351  0.5112206689770176  1.0000
  C   C66       1.0  0.26948526279092283  0.7973868885370692  0.4887786016731042  1.0000
  N   N1        1.0  0.760749718014779  0.3987034971200174  0.1350614132127461  1.0000
  N   N2        1.0  0.23924799309919115  0.6012959675391869  0.8649402117202101  1.0000
  N   N3        1.0  0.38699161369059  0.4108896695053659  0.6030826661291684  1.0000
  N   N4        1.0  0.6130085085282673  0.5891108533487354  0.39691667540829206  1.0000
  N   N5        1.0  0.28754851384829294  0.4786437721007957  0.4488066346074646  1.0000
  N   N6        1.0  0.7124506287058736  0.5213567507532986  0.551192600800512  1.0000
  N   N7        1.0  0.057935159320145126  0.356935486506778  0.4381659328746253  1.0000
  N   N8        1.0  0.942064962898705  0.6430650363473163  0.5618340768306567  1.0000
  N   N9        1.0  0.21512214046569514  0.4822056561099259  0.3668394473431676  1.0000
  N   N10       1.0  0.7848770782021364  0.5177927503543884  0.6331595401606693  1.0000
  N   N11       1.0  0.8479944583150358  0.2995432283015234  0.4953665535242139  1.0000
  N   N12       1.0  0.15200566390381454  0.7004572945525708  0.5046341243488754  1.0000
  O   O1        1.0  0.441630480919855  0.3596772694739911  0.0923366687555998  1.0000
  O   O2        1.0  0.5583668545322666  0.6403190206005362  0.9076645312563941  1.0000
  O   O3        1.0  0.3139944556307483  0.3863977487117864  0.9659353809523239  1.0000
  O   O4        1.0  0.6860076259174763  0.6136027741423149  0.034068850018812165  1.0000
  O   O5        1.0  0.5501921475285272  0.2515710210318645  0.9232221940095614  1.0000
  O   O6        1.0  0.44980752291481013  0.7484284436273327  0.07677697051108372  1.0000
  O   O7        1.0  0.5477583105827932  0.703441404150233  0.5844443251595237  1.0000
  O   O8        1.0  0.4522452024056279  0.2965601768987511  0.415560857125719  1.0000
  O   O9        1.0  0.6749265845781525  0.963436714723592  0.059048347950188415  1.0000
  O   O10       1.0  0.3250707508739694  0.0365595753509353  0.9409481748870903  1.0000
  O   O11       1.0  0.786066660239925  0.8320692261481994  0.5959517413393414  1.0000
  O   O12       1.0  0.21393293408975472  0.1679323549007918  0.4040409894072782  1.0000
  O   O13       1.0  0.7727329150181036  0.390424180278842  0.9171820236592652  1.0000
  O   O14       1.0  0.22726622753606313  0.6095763425752522  0.08281787991653289  1.0000
  O   O15       1.0  0.7938025327715794  0.9645806234026963  0.20034445470430032  1.0000
  O   O16       1.0  0.20619510222872614  0.0354209576462949  0.7996554136293456  1.0000
