data_image0
_chemical_formula_structural       Mn4H84C96S4N16O28
_chemical_formula_sum              "Mn4 H84 C96 S4 N16 O28"
_cell_length_a       8.513761223551802
_cell_length_b       13.086996936974547
_cell_length_c       27.486368940965953
_cell_angle_alpha    92.45961331242496
_cell_angle_beta     90.02641212632524
_cell_angle_gamma    109.00159935446524

_space_group_name_H-M_alt    "P 1"
_space_group_IT_number       1

loop_
  _space_group_symop_operation_xyz
  'x, y, z'

loop_
  _atom_site_type_symbol
  _atom_site_label
  _atom_site_symmetry_multiplicity
  _atom_site_fract_x
  _atom_site_fract_y
  _atom_site_fract_z
  _atom_site_occupancy
  Mn  Mn1       1.0  0.6672292096971689  0.5408288562403668  0.2027137945194468  1.0000
  Mn  Mn2       1.0  0.12644144295957466  0.45916755210113547  0.2971763739874689  1.0000
  Mn  Mn3       1.0  0.3328021168424016  0.4591705245053248  0.7972807817358925  1.0000
  Mn  Mn4       1.0  0.8735694706368096  0.5408379662700256  0.7028292795755888  1.0000
  H   H1        1.0  0.9382584704463499  0.5821555499946456  0.15338268226996377  1.0000
  H   H2        1.0  0.35615807131704713  0.41805909602888397  0.346713151880401  1.0000
  H   H3        1.0  0.06174423637983752  0.4178453125846601  0.8466162975616169  1.0000
  H   H4        1.0  0.6438407095403919  0.5819433066174254  0.6532884155875036  1.0000
  H   H5        1.0  0.994103883686492  0.5314618740740186  0.2004926382799894  1.0000
  H   H6        1.0  0.46280341188214913  0.46875687504220315  0.29959417095335533  1.0000
  H   H7        1.0  0.00589803742236942  0.46853976419941995  0.7995074536791477  1.0000
  H   H8        1.0  0.5372000229347266  0.5312430905630094  0.7004076958762011  1.0000
  H   H9        1.0  0.045033258232933866  0.49719399647514717  0.09896693785097448  1.0000
  H   H10       1.0  0.5483084930048252  0.5028579071375461  0.4011294368341963  1.0000
  H   H11       1.0  0.9549690622974581  0.5028084396912433  0.9010335392098198  1.0000
  H   H12       1.0  0.45169071876141237  0.4971453595544091  0.5988703343941566  1.0000
  H   H13       1.0  0.29168086275394245  0.6056223256127851  0.13416502928408386  1.0000
  H   H14       1.0  0.6857650133532049  0.3941975367955094  0.3657568554332967  1.0000
  H   H15       1.0  0.7083202673897091  0.39438007732933766  0.865836538359481  1.0000
  H   H16       1.0  0.31424043431495363  0.6058064513508015  0.6342458462339308  1.0000
  H   H17       1.0  0.3762027499166507  0.5006578373179876  0.12380818381581087  1.0000
  H   H18       1.0  0.8755166024425096  0.49900684458622646  0.3760636694474613  1.0000
  H   H19       1.0  0.6237999647873949  0.49934538571590537  0.8761930419035053  1.0000
  H   H20       1.0  0.12448624085264733  0.5010036803204229  0.6239370227977189  1.0000
  H   H21       1.0  0.4131255335543217  0.31214820149890693  0.08554957450903798  1.0000
  H   H22       1.0  0.10215974303448411  0.6872287938446674  0.41458294526456996  1.0000
  H   H23       1.0  0.586887093181488  0.6878607510039457  0.9144496212095703  1.0000
  H   H24       1.0  0.897834822650175  0.3127792703429647  0.5854187724898735  1.0000
  H   H25       1.0  0.6079472567237759  0.3332762480809919  0.0157520432137375  1.0000
  H   H26       1.0  0.2754221969335191  0.6661687467979007  0.4845482931605929  1.0000
  H   H27       1.0  0.3920583326491497  0.6667327255852983  0.9842464248641531  1.0000
  H   H28       1.0  0.724572713063914  0.33383765559904083  0.5154548358195683  1.0000
  H   H29       1.0  0.524575708177956  0.38008818390528637  0.9346210783805944  1.0000
  H   H30       1.0  0.14495034154462869  0.6200082184891329  0.5656596456982683  1.0000
  H   H31       1.0  0.47542388988407686  0.6199135091995842  0.0653771956185523  1.0000
  H   H32       1.0  0.8550355129907601  0.37999417150469833  0.434342284360376  1.0000
  H   H33       1.0  0.05867642939683304  0.38522618774613465  0.9925024692888795  1.0000
  H   H34       1.0  0.6742519170690218  0.6147913831919142  0.5074157442757893  1.0000
  H   H35       1.0  0.941320735400879  0.61477064082289  0.007496038998404206  1.0000
  H   H36       1.0  0.32573541179718296  0.38520221969358204  0.4925823136606694  1.0000
  H   H37       1.0  0.39962080394610666  0.32641742710267596  0.23918161451091888  1.0000
  H   H38       1.0  0.07267533713181241  0.6733448960411436  0.2609027786928451  1.0000
  H   H39       1.0  0.6003790780720808  0.6735801335024192  0.7608194603948775  1.0000
  H   H40       1.0  0.927326597102777  0.32665911371233136  0.7390991955971555  1.0000
  H   H41       1.0  0.3150311521718835  0.12859246213709952  0.22414728243844445  1.0000
  H   H42       1.0  0.18634585337377277  0.8711740369872202  0.27589563679498497  1.0000
  H   H43       1.0  0.6849710791325166  0.871405098763816  0.7758537926430122  1.0000
  H   H44       1.0  0.8136497714886135  0.12882909695559872  0.7241084968522811  1.0000
  H   H45       1.0  0.6895685917077756  0.18605142832160482  0.11219481595699678  1.0000
  H   H46       1.0  0.5035651426679805  0.8135932937292762  0.38784733419181794  1.0000
  H   H47       1.0  0.31043173959281506  0.8139493788346216  0.8878059814832536  1.0000
  H   H48       1.0  0.49643952714862394  0.18640914273293419  0.6121531430446296  1.0000
  H   H49       1.0  0.7597495994024045  0.37880066228896686  0.1328823382322923  1.0000
  H   H50       1.0  0.38081302418275  0.62085631955906  0.36714728700668076  1.0000
  H   H51       1.0  0.2402503377245324  0.6211993579997639  0.8671177105494365  1.0000
  H   H52       1.0  0.6191994844577027  0.3791453531219346  0.6328517150723202  1.0000
  H   H53       1.0  0.2163858920670664  0.9720190413454759  0.19484717625906  1.0000
  H   H54       1.0  0.245326505956136  0.028000041655175792  0.3050810130943447  1.0000
  H   H55       1.0  0.7836256786555325  0.027978399458781708  0.8051578986505703  1.0000
  H   H56       1.0  0.7546747081656305  0.9720072255269725  0.6949203200854157  1.0000
  H   H57       1.0  0.15409407816697038  0.7756686746658088  0.17634140972995738  1.0000
  H   H58       1.0  0.379726468390686  0.2242753102699453  0.3238053317490851  1.0000
  H   H59       1.0  0.8459144100308649  0.22432965179126532  0.8236611415629012  1.0000
  H   H60       1.0  0.6202850388107709  0.7757361017686365  0.6761928377576182  1.0000
  H   H61       1.0  0.5852429140972079  0.8276136429937678  0.0978486447672893  1.0000
  H   H62       1.0  0.7576968829793741  0.1716646942517457  0.40273586915795073  1.0000
  H   H63       1.0  0.4147531259182671  0.17238563408552918  0.9021492008649687  1.0000
  H   H64       1.0  0.24230153782164607  0.8283393371088932  0.5972653777548301  1.0000
  H   H65       1.0  0.669352834710729  0.025541162878866402  0.11366708203212278  1.0000
  H   H66       1.0  0.6433004472050357  0.973807242085769  0.3868279890798546  1.0000
  H   H67       1.0  0.3306498432460998  0.974457295144049  0.8863311061391954  1.0000
  H   H68       1.0  0.3566988222999328  0.0262008337189599  0.6131733654690378  1.0000
  H   H69       1.0  0.6619723054118654  0.6963737980693311  0.29044640005029976  1.0000
  H   H70       1.0  0.9660370116336809  0.3041392604648935  0.20936100882348535  1.0000
  H   H71       1.0  0.3380350553737586  0.3036246274688849  0.7095528791429331  1.0000
  H   H72       1.0  0.03395742019991127  0.695856802991706  0.7906360235158871  1.0000
  H   H73       1.0  0.7671246042794806  0.8912757828340432  0.31573198693130416  1.0000
  H   H74       1.0  0.8764891979922852  0.10933439107215291  0.1839554103845771  1.0000
  H   H75       1.0  0.2328819970282012  0.1087234735255578  0.6842665866051476  1.0000
  H   H76       1.0  0.12349896645212521  0.8906608847773897  0.8160408728571225  1.0000
  H   H77       1.0  0.9270893256395213  0.9562877040953736  0.167336989120848  1.0000
  H   H78       1.0  0.9712531939123252  0.044045227238442  0.3323721427706161  1.0000
  H   H79       1.0  0.07290859600615109  0.04370594422312727  0.8326596153786099  1.0000
  H   H80       1.0  0.028745991602441758  0.9559532964934405  0.6676238637960025  1.0000
  H   H81       1.0  0.8152110301705449  0.757864745844209  0.14876236571642917  1.0000
  H   H82       1.0  0.05726672914131831  0.2423841347537703  0.35106373809468744  1.0000
  H   H83       1.0  0.18478451070165394  0.24212883602577048  0.8512364199485771  1.0000
  H   H84       1.0  0.9427390995626865  0.7576135809471793  0.6489322474541267  1.0000
  C   C1        1.0  0.2758031986953001  0.5078165505161606  0.19465519244834434  1.0000
  C   C2        1.0  0.7677076368572315  0.4922031670285492  0.3052821843372797  1.0000
  C   C3        1.0  0.7241959474664341  0.4921842344412539  0.8053463320178124  1.0000
  C   C4        1.0  0.2322926603261167  0.507795224545845  0.6947181849995729  1.0000
  C   C5        1.0  0.2692923056294561  0.5187845157268426  0.13974997234298306  1.0000
  C   C6        1.0  0.750370680957225  0.48100395494662956  0.3601842804538506  1.0000
  C   C7        1.0  0.7307052664676376  0.4812154711897137  0.8602511669336933  1.0000
  C   C8        1.0  0.24963166844253246  0.5190008857761512  0.6398169882672134  1.0000
  C   C9        1.0  0.22670589797366603  0.34878033760782057  0.043125808041971  1.0000
  C   C10       1.0  0.8789282267984719  0.6509746043200834  0.45688937408665703  1.0000
  C   C11       1.0  0.7732948589878392  0.6512213225686025  0.9568735567156066  1.0000
  C   C12       1.0  0.12106703537752854  0.34902780890794105  0.5431118295608853  1.0000
  C   C13       1.0  0.38023174262463044  0.3336588902875803  0.05006215302563529  1.0000
  C   C14       1.0  0.0475227154953403  0.6658598558086767  0.4500445990181774  1.0000
  C   C15       1.0  0.6197706330145109  0.6663460055624454  0.9499372979110843  1.0000
  C   C16       1.0  0.9524686180819302  0.33414174805720626  0.549956582821089  1.0000
  C   C17       1.0  0.4879325643997064  0.34511366326946563  0.0107930465030321  1.0000
  C   C18       1.0  0.14357405744262766  0.6545029061226515  0.4894050853813354  1.0000
  C   C19       1.0  0.5120690019006204  0.654889614743759  0.9892063613441164  1.0000
  C   C20       1.0  0.8564149557177886  0.34550110200380146  0.5105968879425403  1.0000
  C   C21       1.0  0.44196345055573977  0.3714206292422377  0.965505860325365  1.0000
  C   C22       1.0  0.07114176193721279  0.6284740802588685  0.5346782800475651  1.0000
  C   C23       1.0  0.5580357270932552  0.6285802218678782  0.0344934827995971  1.0000
  C   C24       1.0  0.9288468281801915  0.3715267364436984  0.46532215295752616  1.0000
  C   C25       1.0  0.2878485262182409  0.38684092005831855  0.9588830564290516  1.0000
  C   C26       1.0  0.9015788175741336  0.6131795475983141  0.541187545101586  1.0000
  C   C27       1.0  0.7121502415134701  0.6131591111079473  0.04111662870798939  1.0000
  C   C28       1.0  0.09840581507517511  0.38681805518572804  0.4588120744349595  1.0000
  C   C29       1.0  0.17951155082151618  0.3751689754475932  0.9979698736191479  1.0000
  C   C30       1.0  0.8051119426200941  0.6247551211449363  0.5020104031357633  1.0000
  C   C31       1.0  0.8204868227365409  0.6248302688511771  0.0020290628593713084  1.0000
  C   C32       1.0  0.19487422997661238  0.37524086409813145  0.4979891734868715  1.0000
  C   C33       1.0  0.23618110043018709  0.4141579960885124  0.910112099224065  1.0000
  C   C34       1.0  0.8224005343396715  0.5859801310681546  0.5899300917018309  1.0000
  C   C35       1.0  0.7638148949722917  0.5858388433580473  0.089886045418524  1.0000
  C   C36       1.0  0.17759112517676814  0.41401742850155887  0.41007098258916125  1.0000
  C   C37       1.0  0.4611438982565446  0.2915088052648684  0.2114286167935333  1.0000
  C   C38       1.0  0.16931563237691455  0.7082430566690192  0.2886282263631371  1.0000
  C   C39       1.0  0.5388540496405909  0.7084895860136982  0.7885717523676589  1.0000
  C   C40       1.0  0.8306862519968021  0.2917585044262694  0.7113744104940665  1.0000
  C   C41       1.0  0.4142218595273662  0.18015034390130322  0.20255765800758493  1.0000
  C   C42       1.0  0.23409233441194038  0.819618097300939  0.297455056184063  1.0000
  C   C43       1.0  0.5857776729301635  0.8198488674690266  0.7974423692293584  1.0000
  C   C44       1.0  0.7659044703414253  0.18038504781524278  0.7025487139941686  1.0000
  C   C45       1.0  0.4947606477122193  0.13646849487108886  0.16675824797064814  1.0000
  C   C46       1.0  0.35837095313796413  0.8632497406075785  0.33329322885043666  1.0000
  C   C47       1.0  0.5052400488926594  0.8635306945962568  0.8332425064678616  1.0000
  C   C48       1.0  0.6416290601013089  0.1367574712994113  0.6667099220258308  1.0000
  C   C49       1.0  0.6209424403968528  0.2107810552051319  0.1412021871536595  1.0000
  C   C50       1.0  0.4101748508390345  0.7888755983232586  0.3588294365038393  1.0000
  C   C51       1.0  0.3790535733792383  0.7892181667469133  0.8587974762629285  1.0000
  C   C52       1.0  0.5898326122983092  0.21113007396046163  0.6411711269995877  1.0000
  C   C53       1.0  0.6613546370189027  0.3208861083908019  0.15245712899224628  1.0000
  C   C54       1.0  0.3402481249146306  0.6787846829226397  0.3475975045520768  1.0000
  C   C55       1.0  0.3386413715093041  0.6791131025357939  0.8475428979812063  1.0000
  C   C56       1.0  0.6597628673999125  0.3212210008302704  0.6524026956579759  1.0000
  C   C57       1.0  0.4505879911082857  0.018351787603755595  0.15636293599036577  1.0000
  C   C58       1.0  0.4324369297178949  0.9813156923970328  0.3438068495737098  1.0000
  C   C59       1.0  0.5494205469504154  0.9816489875115054  0.843638952735297  1.0000
  C   C60       1.0  0.567559115557529  0.018688283540534197  0.6561962149477479  1.0000
  C   C61       1.0  0.3041450241078325  0.9443437148093637  0.17368421010353066  1.0000
  C   C62       1.0  0.3605143072917372  0.0555064736787969  0.3263980666246979  1.0000
  C   C63       1.0  0.6958681416709143  0.05565456813755529  0.8263197957681142  1.0000
  C   C64       1.0  0.6394845076829442  0.9444983445493449  0.6736039289466049  1.0000
  C   C65       1.0  0.26794487425745217  0.8338692029480581  0.163044837270526  1.0000
  C   C66       1.0  0.4350423738335962  0.16593966746872718  0.3371471415233884  1.0000
  C   C67       1.0  0.7320643734183251  0.16612829268763107  0.8369584196791066  1.0000
  C   C68       1.0  0.5649631446869423  0.8340668134375734  0.6628534433491707  1.0000
  C   C69       1.0  0.506305684051789  0.8624794073047469  0.1196535777678278  1.0000
  C   C70       1.0  0.6440380591749318  0.13696189618985952  0.3808025360663833  1.0000
  C   C71       1.0  0.4936950440403578  0.1375198483152928  0.880344995329473  1.0000
  C   C72       1.0  0.3559592368438589  0.8630445836810524  0.6191980481913717  1.0000
  C   C73       1.0  0.5531836658246407  0.9741325223905478  0.1285247298460703  1.0000
  C   C74       1.0  0.5789446483455833  0.025338966290007602  0.3718733975012469  1.0000
  C   C75       1.0  0.44681705177175246  0.025866711178594008  0.8714745703649739  1.0000
  C   C76       1.0  0.42105574594161504  0.9746666610044484  0.6281286197026714  1.0000
  C   C77       1.0  0.7204108979482983  0.7569726434031808  0.2642984261847161  1.0000
  C   C78       1.0  0.9638385002357596  0.2434758013119591  0.23547489580184325  1.0000
  C   C79       1.0  0.27958938610932194  0.2430233766911769  0.7357000608212727  1.0000
  C   C80       1.0  0.03615750303249862  0.7565187107563675  0.7645199122824093  1.0000
  C   C81       1.0  0.7811993457086361  0.8661695155404915  0.2781722218620715  1.0000
  C   C82       1.0  0.9155604276296503  0.13432605754181984  0.22154139259260566  1.0000
  C   C83       1.0  0.21880058354044252  0.13382814429365203  0.7218255810319221  1.0000
  C   C84       1.0  0.08443437475611411  0.865668399251348  0.778455233188154  1.0000
  C   C85       1.0  0.8556906641701404  0.9418361744817005  0.2434623523982467  1.0000
  C   C86       1.0  0.914223113683562  0.058583267123431405  0.2562413632780789  1.0000
  C   C87       1.0  0.1443006142863013  0.058158281867726216  0.7565342731190227  1.0000
  C   C88       1.0  0.08577524150088335  0.9414135946698537  0.7437560544264343  1.0000
  C   C89       1.0  0.8685630662252067  0.9019647390561831  0.19589793385129892  1.0000
  C   C90       1.0  0.9669870848221862  0.09838244863697553  0.3038231018966896  1.0000
  C   C91       1.0  0.1314317020433151  0.09802730215513832  0.8040982638260556  1.0000
  C   C92       1.0  0.033012465996875996  0.9016144574060191  0.6961728616681881  1.0000
  C   C93       1.0  0.8065538317802209  0.791367555626124  0.18527055579364318  1.0000
  C   C94       1.0  0.015357946652052635  0.20894555661507042  0.314519442998396  1.0000
  C   C95       1.0  0.19344171958773165  0.20862604829474657  0.8147275027576198  1.0000
  C   C96       1.0  0.9846455327657396  0.7910521587900591  0.685476542374758  1.0000
  S   S1        1.0  0.08676537573423812  0.3352021913254433  0.09232273841640648  1.0000
  S   S2        1.0  0.7527551082584554  0.6647153761720616  0.4076115421039645  1.0000
  S   S3        1.0  0.9132396830081435  0.6648010209788212  0.9076788510354346  1.0000
  S   S4        1.0  0.2472378151270789  0.33528705881103343  0.5923889342541884  1.0000
  N   N1        1.0  0.11314524321195313  0.4561589415709689  0.11563515112978708  1.0000
  N   N2        1.0  0.6573274632889011  0.5437570359638499  0.3843800242830469  1.0000
  N   N3        1.0  0.8868555137495593  0.5438427186054612  0.8843642136277834  1.0000
  N   N4        1.0  0.34266900501746284  0.4562454435647823  0.615618998111131  1.0000
  N   N5        1.0  0.5838241573770944  0.36175261544428133  0.1870357413942756  1.0000
  N   N6        1.0  0.22149057273023232  0.6379464226074916  0.3130729365112828  1.0000
  N   N7        1.0  0.416168287856678  0.6382441684312923  0.8129642207691603  1.0000
  N   N8        1.0  0.7785160705725434  0.3620576097885292  0.6869283110163025  1.0000
  N   N9        1.0  0.36651915031102783  0.7920592800885514  0.13641423517655227  1.0000
  N   N10       1.0  0.5752147456408068  0.2075478635292001  0.36393788080364686  1.0000
  N   N11       1.0  0.633483911323701  0.2079399427509614  0.8635854287670099  1.0000
  N   N12       1.0  0.4247888046414446  0.7924570324687324  0.6360615702209101  1.0000
  N   N13       1.0  0.7321456926410689  0.7196777517501047  0.21854966827294928  1.0000
  N   N14       1.0  0.012511477288462958  0.28066413151356073  0.2812730546979267  1.0000
  N   N15       1.0  0.26785299636039644  0.2803174262015915  0.7814498877710249  1.0000
  N   N16       1.0  0.9874931872681856  0.7193336060903803  0.7187222036493208  1.0000
  O   O1        1.0  0.4166077904813364  0.5320923406325591  0.21506111368893946  1.0000
  O   O2        1.0  0.8842109725530493  0.4680138640017901  0.2848470934559231  1.0000
  O   O3        1.0  0.5833916973631973  0.46790443310503355  0.7849392125583349  1.0000
  O   O4        1.0  0.11579009460400164  0.5319837188021097  0.715153254423967  1.0000
  O   O5        1.0  0.13994757434226562  0.4791520683496984  0.2182195663176572  1.0000
  O   O6        1.0  0.6605056289586244  0.5210050422614714  0.28176559595048184  1.0000
  O   O7        1.0  0.8600504024242355  0.5208487274852587  0.7817815945037978  1.0000
  O   O8        1.0  0.33949309940796724  0.47899256229751325  0.7182340246400186  1.0000
  O   O9        1.0  0.1367695315289197  0.2746108014205078  0.1286671974969664  1.0000
  O   O10       1.0  0.8635924741496129  0.7248739241445392  0.3712179379641185  1.0000
  O   O11       1.0  0.8632465824010682  0.7253980743479288  0.8713345433831916  1.0000
  O   O12       1.0  0.13640128744410163  0.2751325332317407  0.6287833731438822  1.0000
  O   O13       1.0  0.9197566674413196  0.29744082986000814  0.0718081437506939  1.0000
  O   O14       1.0  0.6240545730056439  0.7030176029016459  0.4280565639563888  1.0000
  O   O15       1.0  0.08024666765381026  0.7025542384288312  0.9281950482132614  1.0000
  O   O16       1.0  0.37594225273923604  0.2969855863163319  0.5719457519943701  1.0000
  O   O17       1.0  0.08680042992056518  0.41325659402156845  0.904955894708827  1.0000
  O   O18       1.0  0.673757901074616  0.5866236359857382  0.5949631861594753  1.0000
  O   O19       1.0  0.9131959649034443  0.586741043317943  0.0950426350354121  1.0000
  O   O20       1.0  0.32623292811150156  0.41337226164537105  0.4050392992694042  1.0000
  O   O21       1.0  0.34444208933690124  0.4339722894228685  0.8766777760275983  1.0000
  O   O22       1.0  0.9108547073516747  0.5664558627261371  0.6234680452478969  1.0000
  O   O23       1.0  0.6555570646906049  0.5660261681563129  0.1233204118802291  1.0000
  O   O24       1.0  0.08913651862599183  0.4335384833687925  0.3765322158380399  1.0000
  O   O25       1.0  0.9306006244042496  0.5790241664091625  0.18998116161164796  1.0000
  O   O26       1.0  0.3516512524552908  0.42120526850636947  0.3101094670166091  1.0000
  O   O27       1.0  0.06939892379691064  0.4209750780375145  0.8100177749546944  1.0000
  O   O28       1.0  0.6483494677710766  0.5787963144919104  0.6898924426390279  1.0000
