data_image0
_chemical_formula_structural       Ag4H32C60S4N8O16F12
_chemical_formula_sum              "Ag4 H32 C60 S4 N8 O16 F12"
_cell_length_a       11.028063716025038
_cell_length_b       12.330147452967614
_cell_length_c       12.344266332041625
_cell_angle_alpha    89.99991456775726
_cell_angle_beta     89.99972085676569
_cell_angle_gamma    93.42783948348695

_space_group_name_H-M_alt    "P 1"
_space_group_IT_number       1

loop_
  _space_group_symop_operation_xyz
  'x, y, z'

loop_
  _atom_site_type_symbol
  _atom_site_label
  _atom_site_symmetry_multiplicity
  _atom_site_fract_x
  _atom_site_fract_y
  _atom_site_fract_z
  _atom_site_occupancy
  Ag  Ag1       1.0  0.8762343982224367  0.8712980465026305  0.1396663401748626  1.0000
  Ag  Ag2       1.0  0.6237618254811325  0.628701429468009  0.6396676227652804  1.0000
  Ag  Ag3       1.0  0.12376222112519032  0.12869927619347982  0.8603359011989513  1.0000
  Ag  Ag4       1.0  0.37623682673341113  0.37129914218009935  0.36033218832361064  1.0000
  H   H1        1.0  0.0928275452257523  0.5261230775547717  0.21083332319024353  1.0000
  H   H2        1.0  0.4071649613407544  0.9738783309290255  0.7108288107265467  1.0000
  H   H3        1.0  0.907171958892377  0.47387668114692616  0.7891664878974041  1.0000
  H   H4        1.0  0.5928320967599773  0.0261254915623681  0.2891677599926155  1.0000
  H   H5        1.0  0.1448980546083689  0.3327000686807722  0.20297707435220502  1.0000
  H   H6        1.0  0.3550976112741325  0.167302697317794  0.7029740530226648  1.0000
  H   H7        1.0  0.8551005427549753  0.6672996904906512  0.7970259771081913  1.0000
  H   H8        1.0  0.644903980550808  0.8327011228089488  0.29702413787202897  1.0000
  H   H9        1.0  0.0052503969767343965  0.19643423563498164  0.1091314805781707  1.0000
  H   H10       1.0  0.4947503259746497  0.3035686967094192  0.6091317001966416  1.0000
  H   H11       1.0  0.9947491071346162  0.8035655230645344  0.8908707607875641  1.0000
  H   H12       1.0  0.5052532438637486  0.6964375598919119  0.3908681108773351  1.0000
  H   H13       1.0  0.8163765024005015  0.2517223640070725  0.0239727311155633  1.0000
  H   H14       1.0  0.6836252954862944  0.24827866239839844  0.5239760063001243  1.0000
  H   H15       1.0  0.18362374393688446  0.7482749568006638  0.9760270799722691  1.0000
  H   H16       1.0  0.3163771482399795  0.7517243447812092  0.4760229946860193  1.0000
  H   H17       1.0  0.3991258164074054  0.35035021664489113  0.84224333777248  1.0000
  H   H18       1.0  0.10087616226087451  0.149649857781597  0.3422427715431197  1.0000
  H   H19       1.0  0.600874649303151  0.6496503540593963  0.1577548531270736  1.0000
  H   H20       1.0  0.8991253198752247  0.8503523373961455  0.6577570395384171  1.0000
  H   H21       1.0  0.32098494380226583  0.24170163772954822  0.0024707154919739  1.0000
  H   H22       1.0  0.1790168968113335  0.2582957985750483  0.5024723756835456  1.0000
  H   H23       1.0  0.6790145603203755  0.7582981209736064  0.9975274754102728  1.0000
  H   H24       1.0  0.820984475638191  0.7417047716544191  0.49752824549211994  1.0000
  H   H25       1.0  0.4468488823656073  0.23378954746782904  0.16760541351759883  1.0000
  H   H26       1.0  0.0531519824968498  0.26620677948980637  0.6676076094940342  1.0000
  H   H27       1.0  0.5531505669126133  0.7662093987608218  0.8323935874780659  1.0000
  H   H28       1.0  0.9468492254239324  0.7337913533176063  0.33239382177649907  1.0000
  H   H29       1.0  0.6483728127914787  0.3358704779629846  0.1786715758530022  1.0000
  H   H30       1.0  0.8516278481809041  0.16412620796408825  0.6786726247964551  1.0000
  H   H31       1.0  0.3516256748988411  0.6641276562645329  0.8213274251453555  1.0000
  H   H32       1.0  0.1483734694309717  0.8358735497930568  0.3213263761945413  1.0000
  C   C1        1.0  0.6743727699575787  0.056115755317215105  0.9229338604527939  1.0000
  C   C2        1.0  0.8256264740001386  0.44387967901288755  0.4229326904004012  1.0000
  C   C3        1.0  0.3256282185945594  0.943879127595096  0.0770675708206241  1.0000
  C   C4        1.0  0.17437206852556386  0.5561192676862133  0.5770687408753261  1.0000
  C   C5        1.0  0.8947843557567338  0.6075135595504548  0.1275223957617939  1.0000
  C   C6        1.0  0.6052092154426917  0.8924859396732001  0.6275201275849227  1.0000
  C   C7        1.0  0.1052150386770734  0.39248457420369226  0.8724774153272961  1.0000
  C   C8        1.0  0.39478784265352124  0.10751788281674378  0.372478063319626  1.0000
  C   C9        1.0  0.9242096070048547  0.4976438442061948  0.1229389087323369  1.0000
  C   C10       1.0  0.5757860888359759  0.0023553821758355003  0.6229357267860679  1.0000
  C   C11       1.0  0.07578978742894552  0.5023542895479521  0.8770609023567459  1.0000
  C   C12       1.0  0.4242145413988041  0.9976476259490424  0.3770632742040192  1.0000
  C   C13       1.0  0.032463055664386814  0.4654907146829005  0.17084489365129937  1.0000
  C   C14       1.0  0.4675327345707174  0.0345112966088621  0.6708407700127026  1.0000
  C   C15       1.0  0.9675373003550618  0.534508231071655  0.8291557275277839  1.0000
  C   C16       1.0  0.5324680601928051  0.9654941489380705  0.329157420882524  1.0000
  C   C17       1.0  0.06067498144692959  0.357326261151684  0.16690786196857493  1.0000
  C   C18       1.0  0.43932179232508156  0.14267656921690267  0.6669061309601646  1.0000
  C   C19       1.0  0.9393245226689402  0.642673497549282  0.833092759211759  1.0000
  C   C20       1.0  0.5606790024361814  0.8573288763292978  0.33309287002776233  1.0000
  C   C21       1.0  0.9818265975751501  0.2807211883604452  0.1152195709169916  1.0000
  C   C22       1.0  0.5181720809111923  0.2192813003734457  0.6152195583521731  1.0000
  C   C23       1.0  0.018171944950545096  0.7192777583386628  0.8847818603587355  1.0000
  C   C24       1.0  0.4818295657513971  0.7807233322256195  0.3847802527271966  1.0000
  C   C25       1.0  0.8750967889148173  0.3114918914790081  0.0666579634571676  1.0000
  C   C26       1.0  0.6249030122855218  0.18850987160954696  0.5666591524189712  1.0000
  C   C27       1.0  0.1249016987732432  0.6885062427477778  0.9333418476338835  1.0000
  C   C28       1.0  0.37509852469726473  0.811493136043424  0.4333390384764471  1.0000
  C   C29       1.0  0.8461102724872659  0.4197339367112464  0.07034710840197532  1.0000
  C   C30       1.0  0.6538875849684089  0.0802661957442652  0.5703467115745227  1.0000
  C   C31       1.0  0.1538900835389612  0.5802650090454903  0.9296510824990208  1.0000
  C   C32       1.0  0.3461121385183645  0.919736812852527  0.429653099510233  1.0000
  C   C33       1.0  0.614667231623784  0.4553797469356482  0.827995690851516  1.0000
  C   C34       1.0  0.8853364978111244  0.04462073102237701  0.32799485302582815  1.0000
  C   C35       1.0  0.3853367513786594  0.5446191969283517  0.17200493031968736  1.0000
  C   C36       1.0  0.1146648746406527  0.955379839207815  0.6720049580571441  1.0000
  C   C37       1.0  0.569508100994824  0.3978365987110449  0.9197266782265601  1.0000
  C   C38       1.0  0.9304931937038816  0.10216209033312401  0.4197271788337602  1.0000
  C   C39       1.0  0.43049401367847656  0.6021615336259175  0.0802723227639177  1.0000
  C   C40       1.0  0.0695073816909968  0.8978401053187071  0.580271012064351  1.0000
  C   C41       1.0  0.4534194094648569  0.34331808007465264  0.9153411292777778  1.0000
  C   C42       1.0  0.046583013457038205  0.1566810499914126  0.4153424089865467  1.0000
  C   C43       1.0  0.5465808917192092  0.656680053208312  0.0846570616239433  1.0000
  C   C44       1.0  0.9534184138391596  0.8433203327132829  0.5846565920030145  1.0000
  C   C45       1.0  0.41017115841186313  0.2844626471492687  0.00449653164506  1.0000
  C   C46       1.0  0.08983157765110411  0.21553478504107906  0.5044978331040397  1.0000
  C   C47       1.0  0.5898282360287155  0.7155354866070666  0.9955008491659356  1.0000
  C   C48       1.0  0.9101705918643576  0.7844641597696549  0.4955011678857133  1.0000
  C   C49       1.0  0.4814971889937425  0.2800841843949655  0.0979195098940906  1.0000
  C   C50       1.0  0.018502305838751492  0.21991308126084863  0.5979211151393855  1.0000
  C   C51       1.0  0.5185021506046753  0.7199131368875912  0.9020778709176226  1.0000
  C   C52       1.0  0.9814981050228584  0.7800866769674855  0.4020795060389801  1.0000
  C   C53       1.0  0.595127645001746  0.33550342252026877  0.10449717435876242  1.0000
  C   C54       1.0  0.9048725228742925  0.16449339722748854  0.6044979911406045  1.0000
  C   C55       1.0  0.40486982625624535  0.6644930872316124  0.8955026367357063  1.0000
  C   C56       1.0  0.09512794283399727  0.835507173476074  0.3955010098516496  1.0000
  C   C57       1.0  0.6392037530526622  0.3946672626521136  0.015345523283734501  1.0000
  C   C58       1.0  0.8607961149381468  0.10533134279037883  0.5153449993303312  1.0000
  C   C59       1.0  0.36079649328698343  0.6053300581563476  0.9846534777114044  1.0000
  C   C60       1.0  0.13920349886882383  0.8946700408603193  0.484653191570473  1.0000
  S   S1        1.0  0.8225027089293206  3.684999269640006e-05  0.8871096606122323  1.0000
  S   S2        1.0  0.6774978609199566  0.49996189816197756  0.38710986187336965  1.0000
  S   S3        1.0  0.17749759224796693  0.99996128328808  0.1128909605675759  1.0000
  S   S4        1.0  0.32250169803807444  0.500038673012767  0.6128907593062465  1.0000
  N   N1        1.0  0.8742482718241434  0.6989795247907294  0.1328795156253548  1.0000
  N   N2        1.0  0.6257452146669494  0.8010191523312001  0.632874053356133  1.0000
  N   N3        1.0  0.12575112260740437  0.30101860896269267  0.8671211055564286  1.0000
  N   N4        1.0  0.3742525856553058  0.1989822322669639  0.36712170727052756  1.0000
  N   N5        1.0  0.64880071073501  0.5009653453233299  0.7497924742617101  1.0000
  N   N6        1.0  0.8512013557395195  0.9990355543082997  0.24979111119201042  1.0000
  N   N7        1.0  0.3512016781400647  0.4990368493795856  0.2502097670959387  1.0000
  N   N8        1.0  0.1487989454355088  0.0009625789717518002  0.750210320080491  1.0000
  O   O1        1.0  0.820827477237785  0.8985864648663763  0.949431049478939  1.0000
  O   O2        1.0  0.6791724594775135  0.6014124513867217  0.44943102426358916  1.0000
  O   O3        1.0  0.1791710104480089  0.10141166935967762  0.0505695717048127  1.0000
  O   O4        1.0  0.3208280610706852  0.39858893178988103  0.5505687868206337  1.0000
  O   O5        1.0  0.8167733073895747  0.9842329879140124  0.7705803494435983  1.0000
  O   O6        1.0  0.6832266651350949  0.5157654378686517  0.2705804335749917  1.0000
  O   O7        1.0  0.18322704862761446  0.0157659578398182  0.22942108182818538  1.0000
  O   O8        1.0  0.3167728389807749  0.48423432083232143  0.7294201876053421  1.0000
  O   O9        1.0  0.9096800438019275  0.08586231170082212  0.9251602714265275  1.0000
  O   O10       1.0  0.5903175936116725  0.4141363694654172  0.4251609791661651  1.0000
  O   O11       1.0  0.0903184438793545  0.914135822523782  0.0748419699426179  1.0000
  O   O12       1.0  0.40968105859835185  0.5858642021812343  0.5748404521081198  1.0000
  O   O13       1.0  0.7470378087407425  0.45745729779768857  0.0171954939144427  1.0000
  O   O14       1.0  0.7529611970304372  0.04254211726563989  0.5171947220461135  1.0000
  O   O15       1.0  0.2529615856953242  0.5425408359571832  0.9828035070819467  1.0000
  O   O16       1.0  0.24703756487294734  0.9574600793314759  0.4828034688559413  1.0000
  F   F1        1.0  0.5799726704575364  0.985390621221185  0.8971902511771077  1.0000
  F   F2        1.0  0.9200273930563229  0.5146059515249702  0.397192547305572  1.0000
  F   F3        1.0  0.4200275758798497  0.014606699586543901  0.1028095599107246  1.0000
  F   F4        1.0  0.0799720562106074  0.4853929947000423  0.602810504153581  1.0000
  F   F5        1.0  0.6691507186623227  0.07687627818341268  0.0309480790678691  1.0000
  F   F6        1.0  0.8308450514404697  0.4231166137838684  0.5309472142310128  1.0000
  F   F7        1.0  0.3308493082996478  0.9231177927270408  0.9690541623009422  1.0000
  F   F8        1.0  0.1691517324313807  0.5768831463328326  0.46905583723332717  1.0000
  F   F9        1.0  0.6599770462470644  0.15085214517070258  0.8691436664822875  1.0000
  F   F10       1.0  0.8400208487219842  0.34914582422930357  0.36914095408280906  1.0000
  F   F11       1.0  0.34002149627185935  0.8491468015262242  0.1308601950715342  1.0000
  F   F12       1.0  0.15997774863910053  0.6508539349413951  0.6308629074702878  1.0000
