data_image0
_chemical_formula_structural       Ni16H116C152N20O60
_chemical_formula_sum              "Ni16 H116 C152 N20 O60"
_cell_length_a       12.929289408509778
_cell_length_b       18.593110043000088
_cell_length_c       21.93352907024469
_cell_angle_alpha    89.99999298108673
_cell_angle_beta     102.72678183083939
_cell_angle_gamma    90.00000970110648

_space_group_name_H-M_alt    "P 1"
_space_group_IT_number       1

loop_
  _space_group_symop_operation_xyz
  'x, y, z'

loop_
  _atom_site_type_symbol
  _atom_site_label
  _atom_site_symmetry_multiplicity
  _atom_site_fract_x
  _atom_site_fract_y
  _atom_site_fract_z
  _atom_site_occupancy
  Ni  Ni1       1.0  0.7909795175297489  0.7216092763859477  0.11881281026164464  1.0000
  Ni  Ni2       1.0  0.7090205581193914  0.22160898481093472  0.3811866370756151  1.0000
  Ni  Ni3       1.0  0.2090187206566085  0.27839016808565015  0.881186265159201  1.0000
  Ni  Ni4       1.0  0.29098085055922246  0.7783904596607839  0.6188133087057823  1.0000
  Ni  Ni5       1.0  0.9874597062204626  0.7683109889848435  0.21356394699166262  1.0000
  Ni  Ni6       1.0  0.5125403762467897  0.2683117643051744  0.2864368641866407  1.0000
  Ni  Ni7       1.0  0.012540116623064498  0.2316879176531614  0.7864357914942417  1.0000
  Ni  Ni8       1.0  0.48745864896813623  0.7316882179999382  0.7135645937295721  1.0000
  Ni  Ni9       1.0  0.9799071167752444  0.6101190552365168  0.23131242345779418  1.0000
  Ni  Ni10      1.0  0.5200937223685429  0.11011929617584566  0.2686889588832102  1.0000
  Ni  Ni11      1.0  0.020091910795223097  0.3898803892350243  0.7686881229193859  1.0000
  Ni  Ni12      1.0  0.4799076827767265  0.8898806861294088  0.7313123542067501  1.0000
  Ni  Ni13      1.0  0.1208725384217217  0.6388560022071699  0.1317746810154858  1.0000
  Ni  Ni14      1.0  0.3791277990584732  0.13885680772931858  0.368225685511078  1.0000
  Ni  Ni15      1.0  0.8791272832440028  0.3611429044308068  0.8682255132399492  1.0000
  Ni  Ni16      1.0  0.6208704367724068  0.8611437124094932  0.6317743014487862  1.0000
  H   H1        1.0  0.8578696745158039  0.9564586280785289  0.29007678467732495  1.0000
  H   H2        1.0  0.6421320354892542  0.4564594294301401  0.2099242198269451  1.0000
  H   H3        1.0  0.142130943600776  0.04353974072594719  0.7099221459172967  1.0000
  H   H4        1.0  0.3578677791096609  0.5435394772076306  0.7900787090456518  1.0000
  H   H5        1.0  0.7480830520750387  0.05887344112986169  0.31714559582869134  1.0000
  H   H6        1.0  0.7519193627229653  0.5588731810564197  0.18285554184318903  1.0000
  H   H7        1.0  0.2519183577812569  0.9411249276746217  0.6828538941832181  1.0000
  H   H8        1.0  0.2480788695742646  0.44112518774774406  0.8171458124253309  1.0000
  H   H9        1.0  0.4974202354246699  0.0082826541398902  0.1708816720083206  1.0000
  H   H10       1.0  0.002581658948884099  0.5082818062859855  0.3291189115085872  1.0000
  H   H11       1.0  0.5025787933236003  0.9917167903316868  0.8291184185993361  1.0000
  H   H12       1.0  0.9974189556344726  0.49171817601929746  0.6708813863945553  1.0000
  H   H13       1.0  0.5962663635705353  0.9033437875785634  0.13862913492328494  1.0000
  H   H14       1.0  0.9037353358394071  0.403344059092248  0.3613714177551444  1.0000
  H   H15       1.0  0.403733459272992  0.0966551190594487  0.8613706035626196  1.0000
  H   H16       1.0  0.0962660693059263  0.596656461046649  0.6386298953347946  1.0000
  H   H17       1.0  0.29893078436383996  0.6503435929551528  0.24348812468582542  1.0000
  H   H18       1.0  0.2010711426754526  0.15034493212603187  0.25651199251377227  1.0000
  H   H19       1.0  0.7010706231370917  0.34965692718380836  0.7565122768650598  1.0000
  H   H20       1.0  0.7989286801682525  0.8496555880128867  0.7434877459720753  1.0000
  H   H21       1.0  0.4647972866361981  0.7148804245523265  0.07024780423344623  1.0000
  H   H22       1.0  0.0352038653232825  0.21487956810212694  0.42975083721817964  1.0000
  H   H23       1.0  0.5352001633439158  0.2851195577530062  0.9297493444615202  1.0000
  H   H24       1.0  0.964795165780657  0.7851204142031563  0.5702483418504017  1.0000
  H   H25       1.0  0.4965974837714668  0.6661247173294526  0.26491681923244675  1.0000
  H   H26       1.0  0.0034060361344856  0.16612926391512417  0.2350821367822462  1.0000
  H   H27       1.0  0.50340551545343  0.3338752649761147  0.7350815107663281  1.0000
  H   H28       1.0  0.9965937878869652  0.8338707183901944  0.7649171459340922  1.0000
  H   H29       1.0  0.2104938922358599  0.7959566568702741  0.3797342075198956  1.0000
  H   H30       1.0  0.2895072741604706  0.29595372337536924  0.12026579522066073  1.0000
  H   H31       1.0  0.7895059294299855  0.20404332543497355  0.6202659867354969  1.0000
  H   H32       1.0  0.7104941356958248  0.7040446454291073  0.8797336947912485  1.0000
  H   H33       1.0  0.3120656144860305  0.8163964842361934  0.48978156762893144  1.0000
  H   H34       1.0  0.18793555526327305  0.3163962442686453  0.010218889363436305  1.0000
  H   H35       1.0  0.6879350012750719  0.1836029602354898  0.510218274504709  1.0000
  H   H36       1.0  0.8120658522377795  0.6836053515375937  0.9897815121874063  1.0000
  H   H37       1.0  0.12543540837972958  0.6728830919770842  0.5603847974861225  1.0000
  H   H38       1.0  0.3745696886955087  0.17288496224495728  0.939615965516282  1.0000
  H   H39       1.0  0.8745652038479647  0.3271163524944996  0.43961641195610224  1.0000
  H   H40       1.0  0.6254309258879118  0.8271155578939683  0.060384332386846026  1.0000
  H   H41       1.0  0.0231161722929372  0.6392878536828945  0.45200050183265733  1.0000
  H   H42       1.0  0.4768857534737236  0.1392897927422396  0.04799916041825011  1.0000
  H   H43       1.0  0.9768820623600192  0.36071159078860393  0.5479999408967658  1.0000
  H   H44       1.0  0.5231148634652313  0.8607101895631146  0.9520002259458383  1.0000
  H   H45       1.0  0.1792691529165324  0.412202140521174  0.31963740935236734  1.0000
  H   H46       1.0  0.3207312486840904  0.9122035022170393  0.18036156957025185  1.0000
  H   H47       1.0  0.8207298805429486  0.5877973039505305  0.6803608581771813  1.0000
  H   H48       1.0  0.6792677800643644  0.08779755575544358  0.819638521037348  1.0000
  H   H49       1.0  0.31622897765904406  0.313746858835195  0.34399124588168223  1.0000
  H   H50       1.0  0.1837714021189782  0.8137476705103238  0.15600774035104345  1.0000
  H   H51       1.0  0.6837708463624635  0.686253661303759  0.656008036834635  1.0000
  H   H52       1.0  0.8162276266294697  0.18625338746215894  0.8439923502565564  1.0000
  H   H53       1.0  0.4659320188537278  0.3847812550385399  0.2069424984904913  1.0000
  H   H54       1.0  0.0340699601481305  0.8847793403869063  0.29305760130275627  1.0000
  H   H55       1.0  0.5340717662219987  0.6152198029341348  0.7930586697731672  1.0000
  H   H56       1.0  0.9659290686001398  0.11522010408466343  0.7069424893049004  1.0000
  H   H57       1.0  0.3382063025271762  0.48656787908950616  0.17865882632669647  1.0000
  H   H58       1.0  0.1617949049402938  0.9865659749917058  0.3213416180308856  1.0000
  H   H59       1.0  0.6617974837263532  0.5134331788832114  0.8213418861674314  1.0000
  H   H60       1.0  0.8382033297126625  0.0134334694797928  0.6786588246985376  1.0000
  H   H61       1.0  0.7324513330896067  0.5591915188421692  0.987676006621797  1.0000
  H   H62       1.0  0.7675486987519378  0.059191287714099886  0.5123241414294527  1.0000
  H   H63       1.0  0.2675492826716095  0.44080900129679174  0.012323835511800513  1.0000
  H   H64       1.0  0.23245112409165355  0.9408081567575476  0.48767559705643043  1.0000
  H   H65       1.0  0.7317554157701238  0.4678969542285571  0.9030714184099085  1.0000
  H   H66       1.0  0.7682439113875431  0.9678967085453891  0.5969295071871772  1.0000
  H   H67       1.0  0.2682444058957785  0.5321035659103329  0.09692877584546271  1.0000
  H   H68       1.0  0.23175511736079094  0.03210327375982298  0.40307058342045826  1.0000
  H   H69       1.0  0.9944196951880855  0.36463351407056177  0.007060940806113158  1.0000
  H   H70       1.0  0.5055804086287949  0.8646326427015224  0.4929398632205207  1.0000
  H   H71       1.0  0.0055793323824459996  0.635366468234615  0.992939605571053  1.0000
  H   H72       1.0  0.4944186201195322  0.1353673396036896  0.5070602273871146  1.0000
  H   H73       1.0  0.009064174512325  0.45365675030782154  0.09561113096638253  1.0000
  H   H74       1.0  0.4909370256604858  0.9536554097604155  0.40438931583475585  1.0000
  H   H75       1.0  0.9909356471536412  0.546344307664704  0.9043890632889671  1.0000
  H   H76       1.0  0.5090627960054164  0.0463451103784749  0.5956108784206152  1.0000
  H   H77       1.0  0.8170453419452386  0.6952516567864249  0.22924399159722247  1.0000
  H   H78       1.0  0.6829539349443579  0.1952524539679601  0.2707553540492357  1.0000
  H   H79       1.0  0.18295369033649675  0.30474832551888653  0.7707547317018283  1.0000
  H   H80       1.0  0.3170450926261736  0.8047475283372165  0.7292451923279303  1.0000
  H   H81       1.0  0.1467408670742572  0.6868388235207165  0.24312699555153472  1.0000
  H   H82       1.0  0.3532602739586891  0.1868385666217875  0.25687347106020303  1.0000
  H   H83       1.0  0.8532597463312968  0.31316115878453826  0.7568737581211453  1.0000
  H   H84       1.0  0.6467403418024132  0.8131608778498957  0.7431263710734373  1.0000
  H   H85       1.0  0.8544516891555317  0.8809806861339663  0.051335207122733095  1.0000
  H   H86       1.0  0.6455507958596058  0.3809814531066493  0.44866636240289653  1.0000
  H   H87       1.0  0.1455505124405931  0.11901875833778769  0.9486648423064212  1.0000
  H   H88       1.0  0.3544498175458911  0.6190179913649628  0.5513343912697977  1.0000
  H   H89       1.0  0.1073438961691764  0.7797678143615768  0.9853980412014993  1.0000
  H   H90       1.0  0.39265567417415065  0.2797675972742155  0.5146019883307391  1.0000
  H   H91       1.0  0.8926559254967259  0.2202327057773131  0.014602153053871832  1.0000
  H   H92       1.0  0.6073449392313391  0.7202318471974039  0.4853987653419552  1.0000
  H   H93       1.0  0.09598116359127569  0.8724005205129334  0.9032794747691142  1.0000
  H   H94       1.0  0.4040168414491134  0.37240136843795557  0.5967203405898049  1.0000
  H   H95       1.0  0.9040154864044609  0.1275989239585229  0.09672030489527123  1.0000
  H   H96       1.0  0.5959837743121597  0.6275996895346407  0.40327950154377856  1.0000
  H   H97       1.0  0.8396194517589632  0.9746513383141457  0.9674160974130647  1.0000
  H   H98       1.0  0.6603814627309531  0.47465216759096057  0.5325850349779986  1.0000
  H   H99       1.0  0.160378782893936  0.025347568323716995  0.03258434531637991  1.0000
  H   H100      1.0  0.339619153030327  0.5253488903816291  0.4674148071555849  1.0000
  H   H101      1.0  0.265974231649487  0.7053548425222684  0.05737153344001201  1.0000
  H   H102      1.0  0.23402612174762538  0.20535293137032798  0.44262837237973685  1.0000
  H   H103      1.0  0.7340224230575101  0.29464513978296475  0.9426264231462512  1.0000
  H   H104      1.0  0.7659736999182201  0.7946470509349267  0.5573718218756554  1.0000
  H   H105      1.0  0.11572315396269768  0.9935706766760998  0.8837929285675019  1.0000
  H   H106      1.0  0.3842756720302134  0.493570981661442  0.6162065256730502  1.0000
  H   H107      1.0  0.884273493677547  0.0064298434625697995  0.11620776263590218  1.0000
  H   H108      1.0  0.6157249425531433  0.5064290006438412  0.3837937722300994  1.0000
  H   H109      1.0  0.020176441421604397  0.0414696035389852  0.8268157572357995  1.0000
  H   H110      1.0  0.47982069735063243  0.5414699088895957  0.6731839790462646  1.0000
  H   H111      1.0  0.9798202073964432  0.9585309165997199  0.17318447819808114  1.0000
  H   H112      1.0  0.520179124315213  0.4585300734156517  0.3268162152091278  1.0000
  H   H113      1.0  0.0337155183011433  0.9460476964546772  0.8197191533038649  1.0000
  H   H114      1.0  0.46628171132325485  0.4460474636954003  0.6802800971696712  1.0000
  H   H115      1.0  0.9662819257900851  0.0539533615177703  0.18028027423869028  1.0000
  H   H116      1.0  0.5337189044378404  0.5539519807762828  0.31971974496396893  1.0000
  C   C1        1.0  0.7939324878632732  0.858015713748955  0.19465459932810358  1.0000
  C   C2        1.0  0.7060668262805977  0.3580159707143409  0.3053442784639843  1.0000
  C   C3        1.0  0.20606258807532638  0.14198265505548588  0.8053404153455406  1.0000
  C   C4        1.0  0.29393615763270725  0.6419823980898796  0.6946599765387094  1.0000
  C   C5        1.0  0.7345750186552991  0.9217377005521428  0.21224400289871437  1.0000
  C   C6        1.0  0.7654258895585782  0.4217385047319482  0.2877573563052849  1.0000
  C   C7        1.0  0.2654248041881715  0.07826066825222706  0.7877557355872112  1.0000
  C   C8        1.0  0.2345739273960561  0.5782614775731645  0.7122446610282156  1.0000
  C   C9        1.0  0.7780339993890164  0.9664354394512812  0.2627530466683439  1.0000
  C   C10       1.0  0.7219669187320222  0.466435708161235  0.23724830921696596  1.0000
  C   C11       1.0  0.2219658281657786  0.03356400502050148  0.7372448687394312  1.0000
  C   C12       1.0  0.2780328970446391  0.5335626606429357  0.7627541638861219  1.0000
  C   C13       1.0  0.7174828026283038  0.0227493081408099  0.2781443805181071  1.0000
  C   C14       1.0  0.7825196029849548  0.5227485080687443  0.22185721560546062  1.0000
  C   C15       1.0  0.2825186060502531  0.9772495984972736  0.7218555652633115  1.0000
  C   C16       1.0  0.21747942222979325  0.4772498607354548  0.7781442423108232  1.0000
  C   C17       1.0  0.577268551285961  0.9945071216504144  0.19581204488952866  1.0000
  C   C18       1.0  0.9227331671523372  0.49450632800770916  0.3041889567897869  1.0000
  C   C19       1.0  0.4227320644752551  0.0054933984885466  0.8041877972440761  1.0000
  C   C20       1.0  0.07726744507535699  0.5054931164638743  0.6958122526524307  1.0000
  C   C21       1.0  0.6323699549680413  0.9370691828236842  0.17815824254741844  1.0000
  C   C22       1.0  0.8676309566440492  0.4370699937805044  0.32184311551824873  1.0000
  C   C23       1.0  0.36762828204051345  0.06293026164788529  0.8218412886429578  1.0000
  C   C24       1.0  0.13236965322816727  0.5629305263582863  0.6781590054629876  1.0000
  C   C25       1.0  0.337961461609062  0.6669298494261751  0.20649969447231345  1.0000
  C   C26       1.0  0.1620420561192759  0.1669301030588031  0.2935001730218119  1.0000
  C   C27       1.0  0.6620399482475888  0.33307174638012776  0.7934997955394751  1.0000
  C   C28       1.0  0.8379585596419474  0.833070417080151  0.7064996691117926  1.0000
  C   C29       1.0  0.49574134471609443  0.6897033509422813  0.16865292257094214  1.0000
  C   C30       1.0  0.004259801662968198  0.18970304310307273  0.3313457207500009  1.0000
  C   C31       1.0  0.5042592769339506  0.31029555569593015  0.831344640715081  1.0000
  C   C32       1.0  0.995739228262984  0.8102953257012614  0.6686539140881679  1.0000
  C   C33       1.0  0.42976391729163765  0.7023252312326207  0.10982590720593072  1.0000
  C   C34       1.0  0.07023643778974528  0.2023249224050332  0.39017308729964395  1.0000
  C   C35       1.0  0.5702327374153029  0.2976742132389703  0.8901720493803468  1.0000
  C   C36       1.0  0.9297641791492167  0.7976750599003211  0.6098262990644515  1.0000
  C   C37       1.0  0.6157501923209238  0.6908892803098823  0.17820566208560254  1.0000
  C   C38       1.0  0.8842514623543067  0.19089009318307854  0.32179399482802046  1.0000
  C   C39       1.0  0.3842496352338712  0.30911016416189335  0.8217922533221724  1.0000
  C   C40       1.0  0.11574836166708738  0.8091093512885974  0.6782052878883321  1.0000
  C   C41       1.0  0.447518474759498  0.6740991772491397  0.2182132258828703  1.0000
  C   C42       1.0  0.052483461078786285  0.17410210916992233  0.28178552224428444  1.0000
  C   C43       1.0  0.5524821457129221  0.3259013428899494  0.7817847931726194  1.0000
  C   C44       1.0  0.9475171558601758  0.825897873135432  0.718213864119811  1.0000
  C   C45       1.0  0.047441075849597794  0.7038913639372665  0.3417017318116607  1.0000
  C   C46       1.0  0.4525600689629669  0.20389059496933726  0.15829873353398233  1.0000
  C   C47       1.0  0.9525587458161835  0.29610808053434556  0.658298462443753  1.0000
  C   C48       1.0  0.5474413408935063  0.7961093873360524  0.8417007564778631  1.0000
  C   C49       1.0  0.10828182203006519  0.7161469777228221  0.4075943161627364  1.0000
  C   C50       1.0  0.39171932196560993  0.21614674919592144  0.09240751558151321  1.0000
  C   C51       1.0  0.8917164114452163  0.2838535424159261  0.5924065823361745  1.0000
  C   C52       1.0  0.6082812926179884  0.7838553844439174  0.9075927823215583  1.0000
  C   C53       1.0  0.19087959382616043  0.7663865595463405  0.41856586075908825  1.0000
  C   C54       1.0  0.3091215660161025  0.26638470962767963  0.08143414417693863  1.0000
  C   C55       1.0  0.8091202266619462  0.23361396059251396  0.5814347892658064  1.0000
  C   C56       1.0  0.6908798414847653  0.7336152726776459  0.918566257373968  1.0000
  C   C57       1.0  0.24653413735011748  0.7783576594098846  0.479378579294597  1.0000
  C   C58       1.0  0.2534686086249565  0.27835581195465414  0.020622543587165917  1.0000
  C   C59       1.0  0.7534656843157278  0.22164232289536304  0.5206216149607955  1.0000
  C   C60       1.0  0.746532797697995  0.7216430946833582  0.9793783137333066  1.0000
  C   C61       1.0  0.1419045514061992  0.6976099974365864  0.5185514621428311  1.0000
  C   C62       1.0  0.3580997617655086  0.19761078405242216  0.98144782806736  1.0000
  C   C63       1.0  0.8580960643548962  0.3023894470350966  0.48144837999080903  1.0000
  C   C64       1.0  0.6419016480910288  0.8023897360866101  0.01855166194446412  1.0000
  C   C65       1.0  0.0854976779536258  0.679859875020824  0.45881030129960726  1.0000
  C   C66       1.0  0.41450584264076434  0.17986127007195307  0.04118956523444691  1.0000
  C   C67       1.0  0.9145021448898447  0.3201384937835455  0.5411894371863184  1.0000
  C   C68       1.0  0.5854955660380269  0.820139787900679  0.9588103805468864  1.0000
  C   C69       1.0  0.17101628895586876  0.5180784631305572  0.22655143156219282  1.0000
  C   C70       1.0  0.3289840229317632  0.0180782010286791  0.2734484881623445  1.0000
  C   C71       1.0  0.8289843291609528  0.481922057008468  0.7734474990323579  1.0000
  C   C72       1.0  0.6710150034610294  0.9819223191101044  0.7265525139843236  1.0000
  C   C73       1.0  0.2475903044175141  0.4567772638029979  0.24623109332350177  1.0000
  C   C74       1.0  0.2524101058851612  0.9567769934578082  0.2537683380590963  1.0000
  C   C75       1.0  0.7524111042612771  0.5432237941696342  0.7537688524578317  1.0000
  C   C76       1.0  0.7475873393838696  0.043224064514667794  0.7462306337139355  1.0000
  C   C77       1.0  0.24175759926374235  0.4077241431397596  0.2936570393693786  1.0000
  C   C78       1.0  0.2582412119756583  0.9077233425382261  0.20634309989886654  1.0000
  C   C79       1.0  0.7582414318403109  0.5922769148327872  0.7063421396991603  1.0000
  C   C80       1.0  0.741757021499559  0.09227663976687948  0.7936577986000657  1.0000
  C   C81       1.0  0.3175682642220465  0.3531286539944886  0.30731675147332294  1.0000
  C   C82       1.0  0.18243291720236948  0.8531289223406943  0.19268233548316263  1.0000
  C   C83       1.0  0.68243314563437  0.6468707904772657  0.6926827385385439  1.0000
  C   C84       1.0  0.8175669021078065  0.14687052213085383  0.8073187703113051  1.0000
  C   C85       1.0  0.4014166454461474  0.39283638399335524  0.23059850818743402  1.0000
  C   C86       1.0  0.0985853365190508  0.8928355558660213  0.2694011352381622  1.0000
  C   C87       1.0  0.5985871396295224  0.6071641361456911  0.7694026600762458  1.0000
  C   C88       1.0  0.901413693407022  0.10716388860558368  0.7305984995999638  1.0000
  C   C89       1.0  0.330039565514852  0.4485892915278099  0.21491456169126624  1.0000
  C   C90       1.0  0.1699632170141783  0.9485879314823435  0.2850870043206939  1.0000
  C   C91       1.0  0.6699650113005828  0.5514117664448789  0.7850871659896799  1.0000
  C   C92       1.0  0.8300350164610392  0.05141205082276199  0.7149138941782384  1.0000
  C   C93       1.0  0.8860358475785827  0.5764065718781239  0.09294527735705319  1.0000
  C   C94       1.0  0.6139641970640497  0.07640411428091912  0.4070537249917409  1.0000
  C   C95       1.0  0.11396397762090521  0.4235955617617717  0.9070535495896765  1.0000
  C   C96       1.0  0.3860364175193637  0.9235964058580062  0.5929465729113873  1.0000
  C   C97       1.0  0.8736448487740773  0.5148800199141803  0.04715387599882357  1.0000
  C   C98       1.0  0.6263559727932702  0.014878632738401596  0.4528461461049461  1.0000
  C   C99       1.0  0.1263565599047141  0.48512103805845197  0.9528460697825097  1.0000
  C   C100      1.0  0.3736430583106625  0.985121349566874  0.5471530329636352  1.0000
  C   C101      1.0  0.7921311821614906  0.5169264033217897  0.9932805370698147  1.0000
  C   C102      1.0  0.7078672521214526  0.016926703987394404  0.5067203183630582  1.0000
  C   C103      1.0  0.20786863950441867  0.483074116817093  0.0067196571855561  1.0000
  C   C104      1.0  0.29213177780467703  0.9830732783178461  0.49327931647505363  1.0000
  C   C105      1.0  0.7911642942475438  0.4664614764920572  0.9466221441430563  1.0000
  C   C106      1.0  0.7088358255094676  0.9664612303269208  0.5533788852083676  1.0000
  C   C107      1.0  0.20883632033587668  0.5335390436468683  0.05337815376007171  1.0000
  C   C108      1.0  0.2911647890738891  0.033538751978362286  0.4466214126947819  1.0000
  C   C109      1.0  0.9387559605689119  0.409122033837761  0.004748840019786391  1.0000
  C   C110      1.0  0.5612441531088165  0.9091211685266952  0.4952519607036694  1.0000
  C   C111      1.0  0.061243861097054306  0.5908790241347646  0.9952513542355633  1.0000
  C   C112      1.0  0.4387556685570856  0.09087935161218749  0.5047482335517018  1.0000
  C   C113      1.0  0.9456964616166059  0.45777015880936733  0.053810717193442784  1.0000
  C   C114      1.0  0.5543036640216883  0.9577687620129967  0.4461896241484952  1.0000
  C   C115      1.0  0.05430336122716279  0.5422308991631936  0.9461890212923765  1.0000
  C   C116      1.0  0.44569615764422105  0.04223175812588659  0.553810570106876  1.0000
  C   C117      1.0  0.9955828418122649  0.7702100901307104  0.07478082346119662  1.0000
  C   C118      1.0  0.5044188269109497  0.2702108443048061  0.42522019487161344  1.0000
  C   C119      1.0  0.004417772771034799  0.22978935434093725  0.9252194744419671  1.0000
  C   C120      1.0  0.4955809935772137  0.729790213667684  0.5747804551532669  1.0000
  C   C121      1.0  0.9824560360563976  0.8245183824191213  0.023979290355803994  1.0000
  C   C122      1.0  0.5175456458818884  0.3245180550349928  0.4760212681752521  1.0000
  C   C123      1.0  0.017542993869796  0.1754821377197615  0.9760203444822866  1.0000
  C   C124      1.0  0.48245576044118377  0.6754819272702973  0.5239795891451777  1.0000
  C   C125      1.0  0.9061663743893575  0.8795742565515707  0.018266173118121315  1.0000
  C   C126      1.0  0.5938337327391918  0.37957393709950077  0.48173462979917053  1.0000
  C   C127      1.0  0.09383344845434749  0.12042626358734758  0.9817335653677194  1.0000
  C   C128      1.0  0.40616688184422156  0.6204265830394246  0.5182656681039577  1.0000
  C   C129      1.0  0.04890121178129899  0.8226976922109798  0.9814073454112844  1.0000
  C   C130      1.0  0.45109915863937994  0.3226980190899764  0.5185936961202985  1.0000
  C   C131      1.0  0.951098607528948  0.17730229009419662  0.018593760383161927  1.0000
  C   C132      1.0  0.5489022476836282  0.6773014253816783  0.4814071612001528  1.0000
  C   C133      1.0  0.9667996774471277  0.9299681297315912  0.9305462959920874  1.0000
  C   C134      1.0  0.5332012283165922  0.42996893902790123  0.5694543839470755  1.0000
  C   C135      1.0  0.03319776782160489  0.0700302390727003  0.06945267578104361  1.0000
  C   C136      1.0  0.46679938626682105  0.5700315811110243  0.4305459139560527  1.0000
  C   C137      1.0  0.0423682767473892  0.8747890342940325  0.9351630029182093  1.0000
  C   C138      1.0  0.45763210757501566  0.37479043085560443  0.5648371232066154  1.0000
  C   C139      1.0  0.9576299614388546  0.12520933451029487  0.06483607250267912  1.0000
  C   C140      1.0  0.5423677140909504  0.625210627116921  0.4351630710487414  1.0000
  C   C141      1.0  0.8975770560119898  0.9313057150005121  0.9718854780555902  1.0000
  C   C142      1.0  0.6024238488704654  0.4313070761036711  0.5281156575537694  1.0000
  C   C143      1.0  0.10242117864085289  0.06869265380371559  0.028114964673882508  1.0000
  C   C144      1.0  0.39757597279543694  0.5686934440352189  0.47188453670160174  1.0000
  C   C145      1.0  0.3204006494747062  0.6964504686782929  0.102329006132905  1.0000
  C   C146      1.0  0.17960128896176283  0.1964501713226454  0.3976706518738952  1.0000
  C   C147      1.0  0.679599171013578  0.30355166496147484  0.8976716438919328  1.0000
  C   C148      1.0  0.8203985327039619  0.8035487353153313  0.6023295423815398  1.0000
  C   C149      1.0  0.03643352337817869  0.9910353266236528  0.8526565563028543  1.0000
  C   C150      1.0  0.4635629221224918  0.491036174016514  0.6473430429521871  1.0000
  C   C151      1.0  0.9635623325222936  0.008964655681374696  0.14734357548329066  1.0000
  C   C152      1.0  0.5364369007211494  0.5089638082887687  0.3526566955336819  1.0000
  N   N1        1.0  0.6181002940669913  0.036077360153377896  0.24574473900762686  1.0000
  N   N2        1.0  0.8819005310211165  0.5360776424469123  0.25425573729175005  1.0000
  N   N3        1.0  0.38189873468115815  0.9639210086509208  0.7542553516000655  1.0000
  N   N4        1.0  0.11809849654935786  0.4639218020246289  0.74574480908543  1.0000
  N   N5        1.0  0.22129114723482243  0.7460602065994378  0.5290489968204498  1.0000
  N   N6        1.0  0.27871158848520844  0.24606098562401252  0.9709509940359669  1.0000
  N   N7        1.0  0.7787094673484773  0.25393923787221684  0.47095130108272104  1.0000
  N   N8        1.0  0.7212906154665857  0.7539389966814483  0.029048143854112075  1.0000
  N   N9        1.0  0.39610377481251646  0.3454166642360973  0.27637448563510253  1.0000
  N   N10       1.0  0.1038981978198805  0.8454153055525709  0.22362470554179487  1.0000
  N   N11       1.0  0.603897632688536  0.6545849315701346  0.72362591591574  1.0000
  N   N12       1.0  0.8961016250237676  0.1545846767527124  0.7763750329440671  1.0000
  N   N13       1.0  0.8654236020899051  0.41475092758334137  0.9507230615789768  1.0000
  N   N14       1.0  0.6345757132879868  0.914750673484441  0.5492778679640866  1.0000
  N   N15       1.0  0.13457542665848624  0.5852495925555062  0.04927702902863732  1.0000
  N   N16       1.0  0.36542410837791545  0.0852498466544418  0.4507223262912846  1.0000
  N   N17       1.0  0.2747794521918721  0.6768695534011683  0.1494240951482411  1.0000
  N   N18       1.0  0.22522168663138586  0.1768692681456159  0.3505763722036903  1.0000
  N   N19       1.0  0.7252195777343786  0.32313150457135004  0.8505755396898284  1.0000
  N   N20       1.0  0.7747773432948079  0.82313125199326  0.6494232626344002  1.0000
  O   O1        1.0  0.6711804483828698  0.694656266312002  0.23280810817388442  1.0000
  O   O2        1.0  0.8288204153877174  0.194658156437157  0.26719098904272454  1.0000
  O   O3        1.0  0.3288193827055679  0.30534532949442905  0.767188439925228  1.0000
  O   O4        1.0  0.17117861571627907  0.8053423637017546  0.7328081900258427  1.0000
  O   O5        1.0  0.647052390217773  0.686496798546642  0.126666974050778  1.0000
  O   O6        1.0  0.8529492646617243  0.18649813815109437  0.37333222741943234  1.0000
  O   O7        1.0  0.3529466444195038  0.3135026459250979  0.87333083770924  1.0000
  O   O8        1.0  0.1470505605374086  0.8135007684869746  0.6266665995274183  1.0000
  O   O9        1.0  0.8728573696230839  0.6915782580258988  0.20486702096452805  1.0000
  O   O10       1.0  0.6271426981920242  0.1915790452452839  0.2951328843719524  1.0000
  O   O11       1.0  0.1271416626585946  0.30842118644577704  0.7951317023345441  1.0000
  O   O12       1.0  0.37285791403573393  0.8084209370599355  0.704868325070251  1.0000
  O   O13       1.0  0.08531295446482548  0.6827781785445737  0.2086232175553064  1.0000
  O   O14       1.0  0.41468739157282636  0.18277846151081428  0.2913776014796739  1.0000
  O   O15       1.0  0.9146868660231604  0.31722126592700306  0.7913774324696308  1.0000
  O   O16       1.0  0.5853116371755077  0.8172215207943905  0.7086224891279614  1.0000
  O   O17       1.0  0.7448690082857823  0.8197149674097728  0.14961305573928033  1.0000
  O   O18       1.0  0.7551326737656936  0.3197152234515812  0.3503870473788738  1.0000
  O   O19       1.0  0.2551316121864033  0.18028340139477447  0.8503849633162945  1.0000
  O   O20       1.0  0.24486872784605399  0.6802836831863031  0.6496156330197068  1.0000
  O   O21       1.0  0.8873791047304208  0.8486751600121208  0.22662846823458696  1.0000
  O   O22       1.0  0.6126225825621957  0.34867487306545536  0.27337208850288164  1.0000
  O   O23       1.0  0.11261993226221992  0.15132213312514145  0.7733684319864625  1.0000
  O   O24       1.0  0.3873788166937685  0.6513224200714518  0.7266315034348098  1.0000
  O   O25       1.0  0.03191646057288719  0.7606026954819426  0.30870653134471143  1.0000
  O   O26       1.0  0.4680839038922499  0.2606024613255044  0.19129382614246282  1.0000
  O   O27       1.0  0.968081776435852  0.2393983624905402  0.6912929998456009  1.0000
  O   O28       1.0  0.5319151260340007  0.7393985966470138  0.8087058086956064  1.0000
  O   O29       1.0  0.021047707376396805  0.6398762527990199  0.32517305347119674  1.0000
  O   O30       1.0  0.4789534208917345  0.1398760222894424  0.17482832816645552  1.0000
  O   O31       1.0  0.9789529060292208  0.36012426733987  0.6748277002014548  1.0000
  O   O32       1.0  0.5210487736378795  0.8601261113503041  0.8251744558797611  1.0000
  O   O33       1.0  0.10287140990055117  0.5319986671117436  0.2581452473004547  1.0000
  O   O34       1.0  0.39712969681225724  0.03199895527357201  0.2418552308078007  1.0000
  O   O35       1.0  0.8971284129432175  0.4680023908608105  0.7418544911853715  1.0000
  O   O36       1.0  0.6028709177712841  0.9680026405326242  0.7581450670952848  1.0000
  O   O37       1.0  0.1856464338782118  0.5509465567302739  0.17811848680091913  1.0000
  O   O38       1.0  0.3143530935547716  0.050945210226359394  0.3218808710659929  1.0000
  O   O39       1.0  0.8143557688957158  0.4490528877415158  0.8218811068587046  1.0000
  O   O40       1.0  0.685645141098064  0.9490531585778752  0.67811957166348  1.0000
  O   O41       1.0  0.8145057643315212  0.6238079983758239  0.08152655600980555  1.0000
  O   O42       1.0  0.6854958754749416  0.12380662300031274  0.4184731058845373  1.0000
  O   O43       1.0  0.1854956443472702  0.37619305959681526  0.9184733897715349  1.0000
  O   O44       1.0  0.31450474028627434  0.8761938971386485  0.5815267362490675  1.0000
  O   O45       1.0  0.9692229738915188  0.5764420704418215  0.13736381494813094  1.0000
  O   O46       1.0  0.530777862498752  0.07644014759096508  0.36263574681528615  1.0000
  O   O47       1.0  0.030778435965068195  0.42355898753084625  0.8626356750636789  1.0000
  O   O48       1.0  0.46922195798941146  0.9235609103815247  0.6373649032095942  1.0000
  O   O49       1.0  0.9382775361327945  0.7764252893757086  0.11562021770380684  1.0000
  O   O50       1.0  0.5617241339679565  0.27642551824753525  0.3843808001675627  1.0000
  O   O51       1.0  0.061723077272823404  0.22357523076318134  0.8843805359688449  1.0000
  O   O52       1.0  0.4382764782598015  0.723574464057684  0.6156204092746408  1.0000
  O   O53       1.0  0.0647938885281789  0.7213220347119034  0.07486028818635761  1.0000
  O   O54       1.0  0.4352072601480613  0.2213228383871594  0.42514017586503894  1.0000
  O   O55       1.0  0.9352059319598709  0.27867794759331593  0.9251403618385583  1.0000
  O   O56       1.0  0.5647925603401022  0.7786782195853305  0.5748604741598415  1.0000
  O   O57       1.0  0.9560079297653059  0.9843006240620581  0.8880628498110712  1.0000
  O   O58       1.0  0.5439929892189069  0.48430089057701065  0.6119373703245188  1.0000
  O   O59       1.0  0.04398951668128599  0.015698282575904395  0.11193566619251531  1.0000
  O   O60       1.0  0.45600762654230914  0.5156996295619435  0.38806247180907877  1.0000
