data_image0
_chemical_formula_structural       Sm4H22C22N2O32
_chemical_formula_sum              "Sm4 H22 C22 N2 O32"
_cell_length_a       7.751541285384548
_cell_length_b       10.987220979929415
_cell_length_c       12.727926722966455
_cell_angle_alpha    94.20317940990002
_cell_angle_beta     103.91371242332843
_cell_angle_gamma    108.28266282190096

_space_group_name_H-M_alt    "P 1"
_space_group_IT_number       1

loop_
  _space_group_symop_operation_xyz
  'x, y, z'

loop_
  _atom_site_type_symbol
  _atom_site_label
  _atom_site_symmetry_multiplicity
  _atom_site_fract_x
  _atom_site_fract_y
  _atom_site_fract_z
  _atom_site_occupancy
  Sm  Sm1       1.0  0.7284464824049977  0.32198912559844917  0.1019710927048223  1.0000
  Sm  Sm2       1.0  0.2715453557416084  0.6780111379980481  0.8980192989638522  1.0000
  Sm  Sm3       1.0  0.18011690114365564  0.9640381081191548  0.3069684978462561  1.0000
  Sm  Sm4       1.0  0.819877537567159  0.03595071436113529  0.6930341756652892  1.0000
  H   H1        1.0  0.40321095177807115  0.07174735781440938  0.9574315754772441  1.0000
  H   H2        1.0  0.596782841019312  0.9282712651635162  0.042562537363664915  1.0000
  H   H3        1.0  0.3313378764170168  0.18543120049333334  0.9397668986593783  1.0000
  H   H4        1.0  0.6686657074756254  0.8145827998690502  0.060234666798343994  1.0000
  H   H5        1.0  0.10586508460758638  0.40392403365257207  0.05945150352337691  1.0000
  H   H6        1.0  0.8941335728784665  0.5960879664716429  0.940550006601583  1.0000
  H   H7        1.0  0.9856493187863793  0.3737247688859639  0.9390308543130955  1.0000
  H   H8        1.0  0.014348049634563197  0.6262929886299274  0.060970018498615317  1.0000
  H   H9        1.0  0.25275424645704453  0.9288765919950491  0.07518704110148636  1.0000
  H   H10       1.0  0.7472336304525414  0.07112940773308908  0.9248054622110613  1.0000
  H   H11       1.0  0.42178542328111507  0.034351843477992396  0.1688010047630044  1.0000
  H   H12       1.0  0.5782148832446481  0.9656494443939388  0.8311796913846832  1.0000
  H   H13       1.0  0.4463373249618813  0.8290643901915541  0.2918231981219392  1.0000
  H   H14       1.0  0.5536544904755164  0.17093299202506523  0.7081685925575129  1.0000
  H   H15       1.0  0.5446775613065714  0.9055098812380321  0.4110566051286852  1.0000
  H   H16       1.0  0.45531784284902715  0.09448948532480728  0.588935829132346  1.0000
  H   H17       1.0  0.6162359561802049  0.3384202735676496  0.5205120795534199  1.0000
  H   H18       1.0  0.38378799582692835  0.6615775952946235  0.4794813177490979  1.0000
  H   H19       1.0  0.7855355579872666  0.5813335663533507  0.5868751493311848  1.0000
  H   H20       1.0  0.21445474477300058  0.4186435776928191  0.41311916037513186  1.0000
  H   H21       1.0  0.9348223505537804  0.7159273078290763  0.460092212018452  1.0000
  H   H22       1.0  0.0651707921317737  0.28406163556965675  0.5399314917151656  1.0000
  C   C1        1.0  0.6764354068482918  0.3511281817321858  0.36441536083445664  1.0000
  C   C2        1.0  0.32356211876680147  0.6488586937661578  0.6355774380134631  1.0000
  C   C3        1.0  0.6828961303358909  0.40290928477866556  0.46953542373370266  1.0000
  C   C4        1.0  0.31712150735057076  0.5970807894079257  0.5304589458172089  1.0000
  C   C5        1.0  0.775942696106391  0.5361604943956307  0.5054464621767848  1.0000
  C   C6        1.0  0.22407267104588882  0.4638247404807104  0.49454964701399  1.0000
  C   C7        1.0  0.8602170924646803  0.6118904983663639  0.43575994776398363  1.0000
  C   C8        1.0  0.13978449776847407  0.38809940090260375  0.5642438394620228  1.0000
  C   C9        1.0  0.8494464164105937  0.5515669513923526  0.33263267935539187  1.0000
  C   C10       1.0  0.15055643028866683  0.44841146982069785  0.6673808330433458  1.0000
  C   C11       1.0  0.5724458507255079  0.2108723268579027  0.31474776842507873  1.0000
  C   C12       1.0  0.42757670375296913  0.7891197159952268  0.6852419390801572  1.0000
  C   C13       1.0  0.9379294424071889  0.6220149700775719  0.2512280697822504  1.0000
  C   C14       1.0  0.062052874283480705  0.3779622101653287  0.7487894251605097  1.0000
  C   C15       1.0  0.5556164564080819  0.5126704817121633  0.9560183945721902  1.0000
  C   C16       1.0  0.44438127972438923  0.48733953954005915  0.04397736432484582  1.0000
  C   C17       1.0  0.0996777094900523  0.020950032688261896  0.5417780343019273  1.0000
  C   C18       1.0  0.9003257771560415  0.979052421106871  0.45822598227994854  1.0000
  C   C19       1.0  0.9036320313665058  0.08184899079321886  0.14305525242322395  1.0000
  C   C20       1.0  0.09636967721997541  0.918155331160932  0.8569438984381179  1.0000
  C   C21       1.0  0.0305638684178504  0.19834550815325963  0.2354561639966377  1.0000
  C   C22       1.0  0.9694472119994518  0.8016589513542556  0.7645428002716486  1.0000
  N   N1        1.0  0.7584202324072821  0.4241606606920526  0.298249911542257  1.0000
  N   N2        1.0  0.2415750905260481  0.5758272119229131  0.7017528361403362  1.0000
  O   O1        1.0  0.5726917995129671  0.17928524424965528  0.21554444300838332  1.0000
  O   O2        1.0  0.42729454228550184  0.8207004436408951  0.784439572114664  1.0000
  O   O3        1.0  0.48932114604823357  0.13372838425318886  0.3696487694754608  1.0000
  O   O4        1.0  0.5106859408082726  0.8662788984344654  0.6303489880690377  1.0000
  O   O5        1.0  0.927156744904174  0.5528203117215326  0.163491036785274  1.0000
  O   O6        1.0  0.0728054725345544  0.4471537119286209  0.8365311772924143  1.0000
  O   O7        1.0  0.015560437419054605  0.7437980987098526  0.2730563324947468  1.0000
  O   O8        1.0  0.9844251149753591  0.25619165721311526  0.7269615897847927  1.0000
  O   O9        1.0  0.6644751766629045  0.44808420936225696  0.9514677225306796  1.0000
  O   O10       1.0  0.3355400805913007  0.5519404832660509  0.04852204260491527  1.0000
  O   O11       1.0  0.530897430593079  0.5965562071967196  0.8968157263181522  1.0000
  O   O12       1.0  0.4690981562881903  0.4034606002415727  0.10319111454069231  1.0000
  O   O13       1.0  0.7665301735814227  0.09826114848925727  0.07338033868089873  1.0000
  O   O14       1.0  0.23347522096981524  0.90175670437835  0.9266170046378759  1.0000
  O   O15       1.0  0.9413109645444635  0.9781624286312504  0.14474564703894546  1.0000
  O   O16       1.0  0.05867284106213331  0.021837718565770096  0.8552451292037019  1.0000
  O   O17       1.0  0.001392341206703004  0.3047275074363752  0.23135452952736554  1.0000
  O   O18       1.0  0.9986196298428281  0.6952760232535692  0.7686476538309319  1.0000
  O   O19       1.0  0.15320038168421496  0.1760483937221622  0.3094948147490584  1.0000
  O   O20       1.0  0.8468106453025259  0.8239502767159123  0.6905030163920856  1.0000
  O   O21       1.0  0.23376191643417604  0.013274634470405998  0.5026402739830118  1.0000
  O   O22       1.0  0.7662537435097507  0.9867396299441464  0.49737408051934295  1.0000
  O   O23       1.0  0.11481310648535731  0.05901688070269268  0.6399856005111388  1.0000
  O   O24       1.0  0.8851757500156482  0.9409969027527009  0.3600161458457051  1.0000
  O   O25       1.0  0.4489164614926794  0.1675231305827082  0.9649673444972962  1.0000
  O   O26       1.0  0.5510871998669415  0.8324967377781928  0.03504714753368185  1.0000
  O   O27       1.0  0.9818340654043285  0.34725713064010216  0.011944177354919823  1.0000
  O   O28       1.0  0.018168953354049153  0.6527443100403116  0.9880534255791601  1.0000
  O   O29       1.0  0.3120646171134425  0.9500570733553101  0.1548937254534906  1.0000
  O   O30       1.0  0.6879357118463147  0.04994428818375239  0.8450979779105693  1.0000
  O   O31       1.0  0.4186655528781883  0.8522816749094768  0.3598350548454333  1.0000
  O   O32       1.0  0.5813293767047656  0.1477138497781425  0.6401602270759881  1.0000
