data_image0
_chemical_formula_structural       Cu4H20C30N8Cl6O4
_chemical_formula_sum              "Cu4 H20 C30 N8 Cl6 O4"
_cell_length_a       8.811500004248693
_cell_length_b       10.358521125647483
_cell_length_c       10.564499449020783
_cell_angle_alpha    60.315484064988524
_cell_angle_beta     78.45305338583599
_cell_angle_gamma    83.41463037323958

_space_group_name_H-M_alt    "P 1"
_space_group_IT_number       1

loop_
  _space_group_symop_operation_xyz
  'x, y, z'

loop_
  _atom_site_type_symbol
  _atom_site_label
  _atom_site_symmetry_multiplicity
  _atom_site_fract_x
  _atom_site_fract_y
  _atom_site_fract_z
  _atom_site_occupancy
  Cu  Cu1       1.0  0.2664565591902388  0.6795183273636879  0.011512384632723626  1.0000
  Cu  Cu2       1.0  0.7335031109176315  0.3204813569353392  0.9884816407474375  1.0000
  Cu  Cu3       1.0  0.5672757851711836  0.664531896877435  0.3992098253683026  1.0000
  Cu  Cu4       1.0  0.4327164508113341  0.3354654350405823  0.6007968182940006  1.0000
  H   H1        1.0  0.43549436622210885  0.9640847493225954  0.8743748546404929  1.0000
  H   H2        1.0  0.5644628336473262  0.03590968239964811  0.12557478885546663  1.0000
  H   H3        1.0  0.39620416677324494  0.19403496312036594  0.9004096201247619  1.0000
  H   H4        1.0  0.6038178791404859  0.8059627131770244  0.09953498056663088  1.0000
  H   H5        1.0  0.15859812472763934  0.21308943791100182  0.06934331744605518  1.0000
  H   H6        1.0  0.8414819659262421  0.7869200089407117  0.9306510409273085  1.0000
  H   H7        1.0  0.9815441556681961  0.0028828959928973  0.21198545091731094  1.0000
  H   H8        1.0  0.018483530409085295  0.9971475730631525  0.7880276081821833  1.0000
  H   H9        1.0  0.0742568200681291  0.7874353142355518  0.4494165720917849  1.0000
  H   H10       1.0  0.925732854552038  0.21257209433819918  0.5505743023559688  1.0000
  H   H11       1.0  0.9683352796077569  0.8666456667112002  0.636733844819311  1.0000
  H   H12       1.0  0.03168625603053949  0.1333360207778824  0.3632857412070721  1.0000
  H   H13       1.0  0.6769438577550632  0.8939253713865228  0.6981924779538177  1.0000
  H   H14       1.0  0.323069926349298  0.1060395898439381  0.301845940656257  1.0000
  H   H15       1.0  0.5062853540094139  0.8253718072243929  0.5778030257551804  1.0000
  H   H16       1.0  0.49372439476918834  0.1746242629582468  0.422223010778751  1.0000
  H   H17       1.0  0.7416223652739262  0.4382731927405673  0.29014188857176043  1.0000
  H   H18       1.0  0.25837739189812936  0.5617049746274034  0.7099143408286607  1.0000
  H   H19       1.0  0.016511568339112197  0.439849907157047  0.157052470631463  1.0000
  H   H20       1.0  0.9834935419020426  0.5601439977081242  0.8429668788762613  1.0000
  C   C1        1.0  0.34031900310803564  0.9741241713462331  0.9528334396195534  1.0000
  C   C2        1.0  0.6596683238395045  0.025876752104878203  0.04713255668001891  1.0000
  C   C3        1.0  0.31519582695449333  0.10297159686866311  0.9652791586647567  1.0000
  C   C4        1.0  0.6848207640640779  0.8970169860281347  0.03470292987040585  1.0000
  C   C5        1.0  0.18509940604273106  0.11226123229801029  0.060278111687438206  1.0000
  C   C6        1.0  0.8149320345231034  0.8877417224592821  0.9397049450240401  1.0000
  C   C7        1.0  0.08704475004531528  0.9916413134050612  0.1438056167873897  1.0000
  C   C8        1.0  0.9129784602712193  0.0083737506034396  0.8561919503278049  1.0000
  C   C9        1.0  0.12453994315113447  0.8616354834744513  0.1342776486379976  1.0000
  C   C10       1.0  0.8754404699036442  0.13837083776006415  0.8657124879487913  1.0000
  C   C11       1.0  0.029627905945176305  0.7276481949683813  0.21057165974923464  1.0000
  C   C12       1.0  0.9703618759125234  0.27235799923318643  0.7894358725385544  1.0000
  C   C13       1.0  0.8934209008387269  0.7007653345688214  0.3162066288633625  1.0000
  C   C14       1.0  0.10656389600712401  0.29925650075529125  0.6837819243318464  1.0000
  C   C15       1.0  0.8464370594097659  0.7661516951668192  0.41422949366725703  1.0000
  C   C16       1.0  0.1535558560633632  0.23387229721370764  0.5857661038340681  1.0000
  C   C17       1.0  0.9493012841834272  0.7995612792123341  0.4782443055615886  1.0000
  C   C18       1.0  0.0506929933894327  0.20045159855351363  0.5217564057838899  1.0000
  C   C19       1.0  0.8887960966376768  0.8449890848029041  0.5826374996872657  1.0000
  C   C20       1.0  0.1112206732712195  0.1550003732241478  0.41738105439947765  1.0000
  C   C21       1.0  0.7287899783835101  0.8574801083567963  0.6185073057388594  1.0000
  C   C22       1.0  0.2712234694048946  0.1425015600414454  0.381517454637006  1.0000
  C   C23       1.0  0.6324722738343027  0.8207923620631024  0.5516363734587769  1.0000
  C   C24       1.0  0.3675352396790572  0.17919708972328152  0.44838565483082254  1.0000
  C   C25       1.0  0.8279442819621251  0.5145751894053775  0.27439159608584157  1.0000
  C   C26       1.0  0.1720540769817376  0.48540761204373695  0.7256332984555415  1.0000
  C   C27       1.0  0.9764389852964187  0.520095531627696  0.19519168533619077  1.0000
  C   C28       1.0  0.023559475473504694  0.47988062572481033  0.8048326012541196  1.0000
  C   C29       1.0  0.44240071198102987  0.4381647283646259  0.02641497433404538  1.0000
  C   C30       1.0  0.5575877428783967  0.5618405793252919  0.9735581867835066  1.0000
  N   N1        1.0  0.24836302688228776  0.8568313632906666  0.03660269920364099  1.0000
  N   N2        1.0  0.7516115231273519  0.14317722073919734  0.9633816689856829  1.0000
  N   N3        1.0  0.07071213230567248  0.6300031408170953  0.1584860284347585  1.0000
  N   N4        1.0  0.929291901117857  0.36998631923034964  0.8415356425749251  1.0000
  N   N5        1.0  0.7893429667967098  0.6040919294864366  0.3336695032036516  1.0000
  N   N6        1.0  0.21064532041823003  0.3959309726173005  0.6663245679672799  1.0000
  N   N7        1.0  0.6910698619912595  0.7742519369479198  0.4536997832786652  1.0000
  N   N8        1.0  0.3089302327627336  0.22576090685652864  0.5463046856399814  1.0000
  Cl  Cl1       1.0  0.20183499101164415  0.7932052424828769  0.7707509517576058  1.0000
  Cl  Cl2       1.0  0.7981729468230726  0.20681660844289956  0.22922891593047015  1.0000
  Cl  Cl3       1.0  0.36231763239108983  0.8193508600764121  0.37444516993060256  1.0000
  Cl  Cl4       1.0  0.6376554520643155  0.1806175761217048  0.6255805304906871  1.0000
  Cl  Cl5       1.0  0.4559272434274462  0.5381124867649092  0.32018245644098187  1.0000
  Cl  Cl6       1.0  0.5440748517998273  0.4619116027246621  0.6797954373775993  1.0000
  O   O1        1.0  0.2991747793825398  0.47005649492005114  0.04764365691558944  1.0000
  O   O2        1.0  0.7008126652630295  0.5299475506689363  0.9523539482152971  1.0000
  O   O3        1.0  0.4965968985144613  0.31256835894924256  0.04595731670024608  1.0000
  O   O4        1.0  0.503367119014385  0.6874360102800027  0.9539958505461498  1.0000
