data_image0
_chemical_formula_structural       Cu6H44C32S4I6N4
_chemical_formula_sum              "Cu6 H44 C32 S4 I6 N4"
_cell_length_a       8.769243046026926
_cell_length_b       9.777217616701112
_cell_length_c       13.826335151085651
_cell_angle_alpha    95.6791805033689
_cell_angle_beta     90.00028132559633
_cell_angle_gamma    89.99996042076191

_space_group_name_H-M_alt    "P 1"
_space_group_IT_number       1

loop_
  _space_group_symop_operation_xyz
  'x, y, z'

loop_
  _atom_site_type_symbol
  _atom_site_label
  _atom_site_symmetry_multiplicity
  _atom_site_fract_x
  _atom_site_fract_y
  _atom_site_fract_z
  _atom_site_occupancy
  Cu  Cu1       1.0  0.2177787651545984  0.5658287809941172  0.7962816046650472  1.0000
  Cu  Cu2       1.0  0.2177851125329298  0.9341715235308005  0.7037184288532712  1.0000
  Cu  Cu3       1.0  0.7822152241817477  0.43417135419019115  0.20371928612612314  1.0000
  Cu  Cu4       1.0  0.7822122978460374  0.06582553082308353  0.29628079703242344  1.0000
  Cu  Cu5       1.0  0.21823484680703595  0.24999999559291552  0.7500002216059443  1.0000
  Cu  Cu6       1.0  0.7817602828813648  0.7500001382613067  0.2500013923507822  1.0000
  H   H1        1.0  0.43888160566760354  0.8486448245427667  0.36503606341915423  1.0000
  H   H2        1.0  0.4388853587139394  0.6513544981092071  0.1349612372509341  1.0000
  H   H3        1.0  0.5611192257586524  0.1513573689608734  0.6349635267773052  1.0000
  H   H4        1.0  0.5611177534028826  0.348644615894095  0.8650359648745007  1.0000
  H   H5        1.0  0.3293613961677195  0.06146658632113851  0.3071287900326283  1.0000
  H   H6        1.0  0.3293608148862219  0.4385386044844355  0.19287262941990949  1.0000
  H   H7        1.0  0.6706394352666507  0.9385376588526099  0.6928731153773525  1.0000
  H   H8        1.0  0.6706388761933085  0.5614656433493793  0.8071278296607217  1.0000
  H   H9        1.0  0.16439541764614063  0.21415608623557603  0.4184563646073869  1.0000
  H   H10       1.0  0.16439181672681974  0.2858450183446024  0.0815478633606403  1.0000
  H   H11       1.0  0.8356054137914413  0.7858440462881192  0.5815459725220434  1.0000
  H   H12       1.0  0.8356033129695817  0.7141581950097448  0.9184561386706844  1.0000
  H   H13       1.0  0.4448968071492915  0.7854469368745854  0.6191866582464982  1.0000
  H   H14       1.0  0.44490011881731567  0.7145461371162157  0.8808092364628235  1.0000
  H   H15       1.0  0.5551040242744064  0.21455320229900116  0.3808120630640204  1.0000
  H   H16       1.0  0.555105273993064  0.28544784039673493  0.11918615503319066  1.0000
  H   H17       1.0  0.48053571303488957  0.7061318243825101  0.49927930426201766  1.0000
  H   H18       1.0  0.4805417487523302  0.7938623497737043  0.0007184855238549184  1.0000
  H   H19       1.0  0.5194662587406427  0.2938703691210237  0.5007202859362323  1.0000
  H   H20       1.0  0.5194659247593805  0.20613162640904653  0.9992776291395129  1.0000
  H   H21       1.0  0.30185689555910505  0.6856477179381103  0.5573467399606287  1.0000
  H   H22       1.0  0.30186060635555373  0.8143505200678477  0.9426505180915115  1.0000
  H   H23       1.0  0.6981450762109915  0.3143534503953661  0.44265133104897086  1.0000
  H   H24       1.0  0.6981459268118897  0.18564859260514777  0.0573474072030535  1.0000
  H   H25       1.0  0.09764894676501973  0.38250064815219537  0.5531470576212313  1.0000
  H   H26       1.0  0.097647137124099  0.11749422442802171  0.9468540905336622  1.0000
  H   H27       1.0  0.9023507443180565  0.6174964035415158  0.44685361459559647  1.0000
  H   H28       1.0  0.9023525539668711  0.8825069345958242  0.05314904261884829  1.0000
  H   H29       1.0  0.9505148407225122  0.2784225162006067  0.49266091624204467  1.0000
  H   H30       1.0  0.9505175609412293  0.2215702264362633  0.007338678595978398  1.0000
  H   H31       1.0  0.0494825696593324  0.721573508993281  0.5073389599463525  1.0000
  H   H32       1.0  0.04947984944028861  0.7784288822476741  0.9926614161756715  1.0000
  H   H33       1.0  0.9288192846869735  0.43554607610392543  0.6981978467857174  1.0000
  H   H34       1.0  0.9288186824663712  0.06445275849460333  0.8018004066037463  1.0000
  H   H35       1.0  0.0711792660381647  0.5644540630698813  0.3018008745212342  1.0000
  H   H36       1.0  0.07118214896831891  0.9355484031890884  0.19820128022298178  1.0000
  H   H37       1.0  0.7830836182814382  0.32683972963022984  0.6435261284213354  1.0000
  H   H38       1.0  0.7830856341255483  0.17315707203190564  0.8564744161846747  1.0000
  H   H39       1.0  0.2169137921029716  0.6731583498937185  0.35647461665300983  1.0000
  H   H40       1.0  0.21691519730648423  0.8268430631517489  0.14352647461718956  1.0000
  H   H41       1.0  0.8340581182798275  0.4802509701185826  0.5926885472420835  1.0000
  H   H42       1.0  0.8340560791206001  0.019743768734869604  0.9073105647068899  1.0000
  H   H43       1.0  0.16594157279747898  0.5197481398951141  0.4073108243693468  1.0000
  H   H44       1.0  0.1659436119623621  0.9802543107888512  0.0926901803710223  1.0000
  C   C1        1.0  0.18424483412893986  0.08198838486379151  0.5348857017076298  1.0000
  C   C2        1.0  0.184242937125795  0.41800852405293654  0.965117309285219  1.0000
  C   C3        1.0  0.815755997305864  0.9180117489898834  0.46511591225801396  1.0000
  C   C4        1.0  0.8157578943146717  0.5819905793107623  0.03488567814690669  1.0000
  C   C5        1.0  0.33457552705958454  0.8841587239915258  0.5065643410873477  1.0000
  C   C6        1.0  0.3345786376370157  0.6158374493984767  0.9934343198815511  1.0000
  C   C7        1.0  0.6654253043725545  0.11584038336210514  0.49343647685343217  1.0000
  C   C8        1.0  0.6654244744853557  0.3841616619448731  0.006564328571450113  1.0000
  C   C9        1.0  0.3659085306206721  0.9161947140274623  0.4123773311925021  1.0000
  C   C10       1.0  0.365910831072199  0.5838035921768283  0.0876211147524515  1.0000
  C   C11       1.0  0.6340934411628683  0.0838105589761966  0.5876246470803465  1.0000
  C   C12       1.0  0.6340922810448434  0.41619346616643343  0.9123759416508079  1.0000
  C   C13       1.0  0.3049422479848616  0.0354701952103724  0.38046569525901924  1.0000
  C   C14       1.0  0.3049410840772638  0.4645298598141494  0.11953600669144038  1.0000
  C   C15       1.0  0.6950620045027875  0.9645350751331071  0.6195377293449553  1.0000
  C   C16       1.0  0.6950597473518769  0.5354713045295014  0.8804642338077284  1.0000
  C   C17       1.0  0.21345565194335592  0.12125994151198682  0.4425235953471115  1.0000
  C   C18       1.0  0.21345521697531922  0.37873602112706106  0.057476805914596696  1.0000
  C   C19       1.0  0.7865451794915616  0.8787391645116713  0.5574779457574479  1.0000
  C   C20       1.0  0.7865433337580328  0.6212651418868235  0.9425241577447849  1.0000
  C   C21       1.0  0.39448968065275386  0.758709895722916  0.546920397012812  1.0000
  C   C22       1.0  0.3944946671475122  0.7412883284475956  0.9530749812159199  1.0000
  C   C23       1.0  0.6055122911229988  0.24129024212057715  0.45307904746326944  1.0000
  C   C24       1.0  0.6055130063607664  0.2587118160452421  0.04692084745015989  1.0000
  C   C25       1.0  0.9979433654569122  0.3173812725590325  0.5636729563088209  1.0000
  C   C26       1.0  0.9979437064054366  0.18261240559788663  0.9363273184214548  1.0000
  C   C27       1.0  0.0020551852742159006  0.6826147526347414  0.43632691988135963  1.0000
  C   C28       1.0  0.0020571250293671003  0.8173877282557882  0.063674295544196  1.0000
  C   C29       1.0  0.8791248927834943  0.39355723245251545  0.6286721085017035  1.0000
  C   C30       1.0  0.8791259328190791  0.10643955072855962  0.8713287364271948  1.0000
  C   C31       1.0  0.1208713772516319  0.6064408470715323  0.3713286365708654  1.0000
  C   C32       1.0  0.12087375826921942  0.8935605817952493  0.12867360070045214  1.0000
  S   S1        1.0  0.0631685521455054  0.168964902345202  0.6223843878866901  1.0000
  S   S2        1.0  0.0631694703798757  0.331033064349775  0.8776147015429813  1.0000
  S   S3        1.0  0.9368288582332411  0.831034207668715  0.37761498372117325  1.0000
  S   S4        1.0  0.9368290803505985  0.6689691278241128  0.122385611813705  1.0000
  I   I1        1.0  0.3888193337813988  0.4346111430164685  0.673910980285349  1.0000
  I   I2        1.0  0.3888268997148857  0.0653919094730711  0.8260844296349957  1.0000
  I   I3        1.0  0.6111746555357344  0.5653869458176503  0.3260847026371677  1.0000
  I   I4        1.0  0.6111727913622004  0.9346092562006593  0.1739150876986031  1.0000
  I   I5        1.0  0.03643561377830911  0.7500006829606465  0.7500001312334561  1.0000
  I   I6        1.0  0.9635583755391508  0.2499943223834151  0.2499953331058151  1.0000
  N   N1        1.0  0.2444744488790818  0.9671601475959195  0.5666497087161203  1.0000
  N   N2        1.0  0.2444725996820765  0.532837070962657  0.9333487433569018  1.0000
  N   N3        1.0  0.7555263825502793  0.032838961087691104  0.4333503860608728  1.0000
  N   N4        1.0  0.7555259510429553  0.4671640960411667  0.06665005081113412  1.0000
