data_image0
_chemical_formula_structural       Zn2H28C36N12O6
_chemical_formula_sum              "Zn2 H28 C36 N12 O6"
_cell_length_a       8.85951051116627
_cell_length_b       10.552513037268165
_cell_length_c       12.525056909097133
_cell_angle_alpha    64.16653012448452
_cell_angle_beta     84.11534130176513
_cell_angle_gamma    67.24537593698449

_space_group_name_H-M_alt    "P 1"
_space_group_IT_number       1

loop_
  _space_group_symop_operation_xyz
  'x, y, z'

loop_
  _atom_site_type_symbol
  _atom_site_label
  _atom_site_symmetry_multiplicity
  _atom_site_fract_x
  _atom_site_fract_y
  _atom_site_fract_z
  _atom_site_occupancy
  Zn  Zn1       1.0  0.9440936446065464  0.8822713233380168  0.699781653662882  1.0000
  Zn  Zn2       1.0  0.05590833995436382  0.11772816663441425  0.3002197093962735  1.0000
  H   H1        1.0  0.854247195969954  0.9003638941926797  0.4953316678095591  1.0000
  H   H2        1.0  0.14574765323408198  0.09963431031565761  0.5046734618625666  1.0000
  H   H3        1.0  0.5641657733134622  0.3262805825270618  0.6504899872106835  1.0000
  H   H4        1.0  0.4358362755542657  0.6737180317120561  0.3495092525437898  1.0000
  H   H5        1.0  0.02743141909230225  0.3782551091998839  0.6092635098364739  1.0000
  H   H6        1.0  0.9725634217201607  0.6217471894929003  0.39074425829570475  1.0000
  H   H7        1.0  0.8855773249091851  0.6477432958278655  0.5765352073255984  1.0000
  H   H8        1.0  0.11441643618923082  0.3522605723708167  0.4234681551079334  1.0000
  H   H9        1.0  0.5814395045490671  0.7591848089950801  0.5771732718332245  1.0000
  H   H10       1.0  0.41854949931250457  0.24082404368584787  0.4228145670088211  1.0000
  H   H11       1.0  0.6936945985011533  0.7342331394685645  0.7389347980569171  1.0000
  H   H12       1.0  0.30633404981729484  0.2657387567148389  0.2610627700755118  1.0000
  H   H13       1.0  0.24946450737773765  0.9331989484837351  0.7671129158233045  1.0000
  H   H14       1.0  0.7505405133726272  0.06679998955962668  0.2328930602268714  1.0000
  H   H15       1.0  0.3637880488015881  0.9181435250255917  0.9503183689643112  1.0000
  H   H16       1.0  0.6362138155372605  0.081853622229012  0.04968460224413462  1.0000
  H   H17       1.0  0.24568921855443185  0.8078577152166916  0.14510534339799358  1.0000
  H   H18       1.0  0.7543062451675908  0.19214734400198097  0.8548965940770687  1.0000
  H   H19       1.0  0.029822846312228493  0.7103070737980204  0.15114513317001874  1.0000
  H   H20       1.0  0.9701542498131347  0.2897162310656682  0.8488538380926658  1.0000
  H   H21       1.0  0.865780318820612  0.6138854559775025  0.14400597118879693  1.0000
  H   H22       1.0  0.13420963614136383  0.38612357866413305  0.8559905199612602  1.0000
  H   H23       1.0  0.5649461001388263  0.5883863652038598  0.9109230931821845  1.0000
  H   H24       1.0  0.43508921103982356  0.41157335138787937  0.0890745024744106  1.0000
  H   H25       1.0  0.7394072269631877  0.04956936401269022  0.5038730294951891  1.0000
  H   H26       1.0  0.26058124342327454  0.9504277993964793  0.4961332765329303  1.0000
  H   H27       1.0  0.6535838758899075  0.5318562039023931  0.11870074813680294  1.0000
  H   H28       1.0  0.34643578741063413  0.46812059083671903  0.8812939226175092  1.0000
  C   C1        1.0  0.5528943021216224  0.5486516941312231  0.617586270249561  1.0000
  C   C2        1.0  0.4470973638555337  0.4513544373459622  0.38240615748198103  1.0000
  C   C3        1.0  0.6339249058367075  0.3973698008260627  0.6341059113421255  1.0000
  C   C4        1.0  0.36606941555218236  0.6026360388867784  0.36588868100419364  1.0000
  C   C5        1.0  0.8040780334087502  0.3372847900491606  0.6290203399915202  1.0000
  C   C6        1.0  0.195917614842152  0.6627217361540261  0.37097786602956984  1.0000
  C   C7        1.0  0.894556621008455  0.4273604730949929  0.6102322018586009  1.0000
  C   C8        1.0  0.10543834002606914  0.5726441683156123  0.38977395812428745  1.0000
  C   C9        1.0  0.8140439590010828  0.5786973078500849  0.5915439598734767  1.0000
  C   C10       1.0  0.18594929940983468  0.4213061425405371  0.4084636250678671  1.0000
  C   C11       1.0  0.6440507504805524  0.6401245612266565  0.5933248727867452  1.0000
  C   C12       1.0  0.35594237598834866  0.359879740579899  0.40667440901970053  1.0000
  C   C13       1.0  0.377053303404402  0.6061226693398324  0.6313371656951647  1.0000
  C   C14       1.0  0.6229383642604773  0.39388179739231083  0.36865019930160514  1.0000
  C   C15       1.0  0.8892435690446804  0.17708978459553745  0.6438720023886192  1.0000
  C   C16       1.0  0.11075902333038107  0.8229189895266202  0.3561237441987545  1.0000
  C   C17       1.0  0.7282688865365046  0.7051501556398634  0.8300517817236186  1.0000
  C   C18       1.0  0.2717471584848568  0.29483417257739564  0.16994483603749444  1.0000
  C   C19       1.0  0.20590283015771144  0.8837946623140525  0.8543892314728154  1.0000
  C   C20       1.0  0.794098898863659  0.116206665846569  0.1456155620702759  1.0000
  C   C21       1.0  0.2673349564688507  0.8759735801559716  0.9561473538127602  1.0000
  C   C22       1.0  0.7326634875273754  0.12402770868249748  0.043858681497958726  1.0000
  C   C23       1.0  0.20226601891655369  0.8141311324946159  0.06397573308779421  1.0000
  C   C24       1.0  0.7977236872097321  0.1858773108958118  0.9360266128209178  1.0000
  C   C25       1.0  0.07989010718620186  0.7604494128769232  0.06709046419918256  1.0000
  C   C26       1.0  0.9200937077146069  0.2395649308462353  0.9329090497430388  1.0000
  C   C27       1.0  0.023731170062966125  0.7727568124761888  0.9610698204168531  1.0000
  C   C28       1.0  0.9762606770676073  0.22725411547559551  0.038929001330252816  1.0000
  C   C29       1.0  0.8934023097131458  0.7202632384423708  0.9540624678698466  1.0000
  C   C30       1.0  0.10659479401338962  0.27974222278454874  0.04593510521666393  1.0000
  C   C31       1.0  0.8256197566805952  0.6413455006879686  0.05459981572179377  1.0000
  C   C32       1.0  0.17437963677538462  0.3586534053154934  0.9453972594179023  1.0000
  C   C33       1.0  0.7063052901650836  0.5931493923706911  0.040275900062042166  1.0000
  C   C34       1.0  0.29370822637044103  0.4068351408893419  0.9597193692097153  1.0000
  C   C35       1.0  0.6571244607599596  0.6244709612857166  0.9263293211555708  1.0000
  C   C36       1.0  0.3428977310264258  0.3755056284106217  0.07366669808809694  1.0000
  N   N1        1.0  0.2842659696054782  0.7494113184255723  0.6168638869970737  1.0000
  N   N2        1.0  0.7157298782697197  0.25059015113829736  0.3831303733847022  1.0000
  N   N3        1.0  0.13614672787770143  0.7445681027273068  0.6477244918372664  1.0000
  N   N4        1.0  0.8638554596358786  0.25542723065647277  0.3522854753268236  1.0000
  N   N5        1.0  0.13800142804128512  0.6061873238592242  0.6787750382510042  1.0000
  N   N6        1.0  0.862001896789316  0.39380799372474234  0.32123478703234554  1.0000
  N   N7        1.0  0.28807321021994176  0.5169433120449655  0.6692436702231038  1.0000
  N   N8        1.0  0.711924220056794  0.48305700582105954  0.3307507733495075  1.0000
  N   N9        1.0  0.08643062226874332  0.8346269527295719  0.8571305117020458  1.0000
  N   N10       1.0  0.9135690725627228  0.165379092466317  0.14287134930391698  1.0000
  N   N11       1.0  0.8430122317943116  0.7516249116521009  0.8435381096809639  1.0000
  N   N12       1.0  0.1569907005386284  0.2483738602303589  0.15645935594194074  1.0000
  O   O1        1.0  0.785856196783421  0.9372703783402796  0.5520419988310155  1.0000
  O   O2        1.0  0.21414105398054772  0.0627277078468609  0.44796366320505143  1.0000
  O   O3        1.0  0.03507694377618263  0.1317554902892155  0.6157558814856829  1.0000
  O   O4        1.0  0.9649287765072997  0.8682664571243494  0.38423823557933195  1.0000
  O   O5        1.0  0.8066955186655563  0.09079632025759565  0.6876689277615783  1.0000
  O   O6        1.0  0.19331745158396554  0.9092057013208571  0.31232614383924334  1.0000
