data_image0
_chemical_formula_structural       H32Rh4C36O16
_chemical_formula_sum              "H32 Rh4 C36 O16"
_cell_length_a       9.500539152753177
_cell_length_b       10.640438365778788
_cell_length_c       10.640605341040134
_cell_angle_alpha    102.39497883943027
_cell_angle_beta     99.95905462733607
_cell_angle_gamma    99.96338154855843

_space_group_name_H-M_alt    "P 1"
_space_group_IT_number       1

loop_
  _space_group_symop_operation_xyz
  'x, y, z'

loop_
  _atom_site_type_symbol
  _atom_site_label
  _atom_site_symmetry_multiplicity
  _atom_site_fract_x
  _atom_site_fract_y
  _atom_site_fract_z
  _atom_site_occupancy
  H   H1        1.0  0.8393426686000183  0.3847534238295864  0.1860239312888723  1.0000
  H   H2        1.0  0.6606964654036671  0.8139548847736505  0.615191168731215  1.0000
  H   H3        1.0  0.16065924411412172  0.6152381217628573  0.8139497463899231  1.0000
  H   H4        1.0  0.33932955500868905  0.1860411987171915  0.384814851449427  1.0000
  H   H5        1.0  0.6424114856804765  0.34021732427005696  0.1398563805475987  1.0000
  H   H6        1.0  0.8576027848665574  0.8601716132164723  0.6598425688238763  1.0000
  H   H7        1.0  0.3575924806063782  0.6597782110607682  0.8601240777096419  1.0000
  H   H8        1.0  0.14241300848019725  0.1398212725863743  0.3401911307656674  1.0000
  H   H9        1.0  0.7463290765139519  0.34613664899957536  0.017639774723250002  1.0000
  H   H10       1.0  0.7536486711787731  0.982352863250142  0.6538639782718009  1.0000
  H   H11       1.0  0.25366198165035303  0.6538204762914218  0.9823271415685325  1.0000
  H   H12       1.0  0.24636662028447637  0.017643682483551998  0.3461468494771793  1.0000
  H   H13       1.0  0.5297865662743321  0.0765740284732317  0.580714773333284  1.0000
  H   H14       1.0  0.970215952735593  0.41930360347767254  0.9234207729362396  1.0000
  H   H15       1.0  0.4702101547924684  0.9234332238145413  0.4193033905794579  1.0000
  H   H16       1.0  0.029761952711829916  0.5807017658067151  0.07655614766422048  1.0000
  H   H17       1.0  0.609644086954738  0.2418146036768789  0.47958603346170037  1.0000
  H   H18       1.0  0.8903256938541091  0.5203983773100377  0.758147992349741  1.0000
  H   H19       1.0  0.39036359384284225  0.7581811543772119  0.5204195569663383  1.0000
  H   H20       1.0  0.10967153803616005  0.4795992978849525  0.24182607518639537  1.0000
  H   H21       1.0  0.6149505979394833  0.46919330477572174  0.542445024942694  1.0000
  H   H22       1.0  0.8850185983051446  0.4575048113033517  0.5307909333404054  1.0000
  H   H23       1.0  0.38505904769693433  0.5308161925007935  0.45755514242052436  1.0000
  H   H24       1.0  0.11498375725945917  0.542503671837771  0.4691889660362419  1.0000
  H   H25       1.0  0.5483836434116185  0.5854590634260077  0.7308373120310349  1.0000
  H   H26       1.0  0.9516137707815203  0.269129588428882  0.4145627368915186  1.0000
  H   H27       1.0  0.45161523725526825  0.4145469044887166  0.2691659330746461  1.0000
  H   H28       1.0  0.04840415354279053  0.7308717200244884  0.5854410219978945  1.0000
  H   H29       1.0  0.46352306760530143  0.5045714086181192  0.896663451756538  1.0000
  H   H30       1.0  0.0364847438486677  0.10332429910911858  0.49547415822473073  1.0000
  H   H31       1.0  0.5364695760168914  0.49543871218837404  0.10333670449987409  1.0000
  H   H32       1.0  0.9635284836684618  0.8966791331886624  0.5045273212795536  1.0000
  Rh  Rh1       1.0  0.386298983880188  0.10137171876982617  0.9576054870177657  1.0000
  Rh  Rh2       1.0  0.11368954494751894  0.04239819934514339  0.8986301117535261  1.0000
  Rh  Rh3       1.0  0.6136937324925567  0.8986246467945093  0.04240420363944955  1.0000
  Rh  Rh4       1.0  0.8863100316544176  0.9576108234947184  0.10138043470140452  1.0000
  C   C1        1.0  0.748136938211033  0.17962144848858938  0.09820409657529439  1.0000
  C   C2        1.0  0.7518372594007232  0.9017837503403358  0.8203849472989334  1.0000
  C   C3        1.0  0.25185761716795707  0.8203738591584725  0.9018057059404824  1.0000
  C   C4        1.0  0.24816983578890728  0.0982180911233286  0.17962831624181766  1.0000
  C   C5        1.0  0.7443889282072648  0.3218096028826736  0.1128161560599068  1.0000
  C   C6        1.0  0.7555928322525601  0.8871538574813227  0.6782009207145518  1.0000
  C   C7        1.0  0.2556039302132902  0.6781854801748678  0.8871735650376563  1.0000
  C   C8        1.0  0.24442372953387084  0.11280989564672687  0.3218093321185193  1.0000
  C   C9        1.0  0.46746357976424247  0.1820828122534266  0.743534389644644  1.0000
  C   C10       1.0  0.032516767124526794  0.256450981110163  0.8179021643003352  1.0000
  C   C11       1.0  0.532520480791419  0.8179196441855153  0.2564627711149328  1.0000
  C   C12       1.0  0.9674724815024831  0.7435381354982197  0.18207729751216556  1.0000
  C   C13       1.0  0.5228653570240738  0.17632734519043677  0.6282444087186079  1.0000
  C   C14       1.0  0.9771126916827342  0.37175303755783057  0.8236591461503336  1.0000
  C   C15       1.0  0.4771280329808008  0.8236749259317547  0.3717637377200873  1.0000
  C   C16       1.0  0.022879502769391928  0.6282470020908375  0.17632861208290504  1.0000
  C   C17       1.0  0.5697428394046895  0.2753180455376025  0.5686491283431891  1.0000
  C   C18       1.0  0.9302168396500292  0.43134821045187977  0.7246481763108434  1.0000
  C   C19       1.0  0.4302581189258206  0.7246878780504031  0.43135634926527183  1.0000
  C   C20       1.0  0.0697721597143044  0.5686708542730372  0.2753437010699216  1.0000
  C   C21       1.0  0.5739037229882626  0.4103657561607718  0.6060288427585547  1.0000
  C   C22       1.0  0.9260672679082305  0.39395086239364463  0.5896098439599342  1.0000
  C   C23       1.0  0.42609427579962034  0.5896224021495795  0.39397545417106977  1.0000
  C   C24       1.0  0.07394340236468369  0.6060534235289907  0.4103753767687692  1.0000
  C   C25       1.0  0.5342160113658281  0.47873438929445183  0.717131597179602  1.0000
  C   C26       1.0  0.9657664051121982  0.2828364890798766  0.5212429132627605  1.0000
  C   C27       1.0  0.4657767869433728  0.521260736223546  0.2828609421677726  1.0000
  C   C28       1.0  0.034244038664731066  0.7171547235173463  0.4787293608445323  1.0000
  C   C29       1.0  0.4824346962139998  0.4311450377417856  0.816294740204647  1.0000
  C   C30       1.0  0.017557752053662078  0.18368213941883477  0.5688571044327091  1.0000
  C   C31       1.0  0.5175427427698623  0.5688457750121715  0.1837036854014258  1.0000
  C   C32       1.0  0.9824598575185987  0.8163141921463006  0.4311446828198199  1.0000
  C   C33       1.0  0.4545277455009611  0.30243222356642  0.8337534074942994  1.0000
  C   C34       1.0  0.0454538420600343  0.166231598937074  0.69756795114926  1.0000
  C   C35       1.0  0.545451299441666  0.6975713997403261  0.16624311090235006  1.0000
  C   C36       1.0  0.9545485099285713  0.8337792510688259  0.302438735514265  1.0000
  O   O1        1.0  0.6310794675745868  0.09268379929752511  0.034905072991513554  1.0000
  O   O2        1.0  0.8689311605293213  0.9650923643437891  0.9073021955244799  1.0000
  O   O3        1.0  0.3689201594749747  0.9073143189328902  0.9651061622964505  1.0000
  O   O4        1.0  0.13107840317064756  0.0349183729790496  0.0927151231485794  1.0000
  O   O5        1.0  0.865700066589895  0.14946050109773518  0.14721154183910562  1.0000
  O   O6        1.0  0.6343065259023816  0.8527958595893492  0.8505841459140554  1.0000
  O   O7        1.0  0.1343016964466556  0.8505387137778938  0.8528125013452694  1.0000
  O   O8        1.0  0.3657115150686323  0.14720773080787097  0.14944076376261958  1.0000
  O   O9        1.0  0.4287434648198598  0.0722411378712238  0.7769981695190253  1.0000
  O   O10       1.0  0.07124955104222148  0.22300920981147948  0.9277495607369489  1.0000
  O   O11       1.0  0.571248533083036  0.9277751088052995  0.22301247809988914  1.0000
  O   O12       1.0  0.9287240570301448  0.7769975306331317  0.07224286441759627  1.0000
  O   O13       1.0  0.4143335222676824  0.28683906459356484  0.9421478955947081  1.0000
  O   O14       1.0  0.08566338382632921  0.05785355283797599  0.713177786404458  1.0000
  O   O15       1.0  0.5856507024068165  0.7131793441104788  0.057855245051719385  1.0000
  O   O16       1.0  0.914346085529857  0.9421520519082948  0.286827227049109  1.0000
