data_image0
_chemical_formula_structural       Na4H16C16S4N4O16
_chemical_formula_sum              "Na4 H16 C16 S4 N4 O16"
_cell_length_a       7.146105261652388
_cell_length_b       8.996235905048987
_cell_length_c       10.456163514936412
_cell_angle_alpha    90.0003657462774
_cell_angle_beta     98.13391283850714
_cell_angle_gamma    90.00003986532941

_space_group_name_H-M_alt    "P 1"
_space_group_IT_number       1

loop_
  _space_group_symop_operation_xyz
  'x, y, z'

loop_
  _atom_site_type_symbol
  _atom_site_label
  _atom_site_symmetry_multiplicity
  _atom_site_fract_x
  _atom_site_fract_y
  _atom_site_fract_z
  _atom_site_occupancy
  Na  Na1       1.0  0.175047975138142  0.11455712078808485  0.07428559612944241  1.0000
  Na  Na2       1.0  0.32495204292839464  0.6145594322107257  0.9257149338286439  1.0000
  Na  Na3       1.0  0.8249526367615445  0.8854439647753908  0.9257139137956687  1.0000
  Na  Na4       1.0  0.6750457197193285  0.38543943020240334  0.07428522646829093  1.0000
  H   H1        1.0  0.34573722649039945  0.3861951361346456  0.6520552668494518  1.0000
  H   H2        1.0  0.1542619529084206  0.8861952984803948  0.3479466595336974  1.0000
  H   H3        1.0  0.6542534691267717  0.6138037262738507  0.3479441341838623  1.0000
  H   H4        1.0  0.8457442901771443  0.11380467551430935  0.6520544118827445  1.0000
  H   H5        1.0  0.1958808869966617  0.2923539613920098  0.4422360556482802  1.0000
  H   H6        1.0  0.30411955212780833  0.7923513104612282  0.5577635795359016  1.0000
  H   H7        1.0  0.8041126354350823  0.7076471241703572  0.5577636490968203  1.0000
  H   H8        1.0  0.6958881492362822  0.20764644037532065  0.4422357355597201  1.0000
  H   H9        1.0  0.057839098130081396  0.1277539943733075  0.447825901454408  1.0000
  H   H10       1.0  0.442159556886061  0.6277524846422865  0.5521735977760758  1.0000
  H   H11       1.0  0.9421558377042416  0.8722437564619624  0.5521739551339095  1.0000
  H   H12       1.0  0.5578439491321133  0.37224304303239814  0.4478233535878289  1.0000
  H   H13       1.0  0.29589584823740006  0.11513978003211629  0.4178661056450539  1.0000
  H   H14       1.0  0.20410417106035786  0.615140593047741  0.5821344276298106  1.0000
  H   H15       1.0  0.7041005010065645  0.8848613055321051  0.582133902805495  1.0000
  H   H16       1.0  0.795900725931247  0.3848593809354384  0.41786362968309737  1.0000
  C   C1        1.0  0.38371945773531024  0.2601642126007705  0.8317164096088304  1.0000
  C   C2        1.0  0.116273801374895  0.7601607999861955  0.16828419100145453  1.0000
  C   C3        1.0  0.6162768915086544  0.7398368729634511  0.16828359884171826  1.0000
  C   C4        1.0  0.8837239837125638  0.2398402855754257  0.8317150152182082  1.0000
  C   C5        1.0  0.3351750494308233  0.2758024465070221  0.6924205627551177  1.0000
  C   C6        1.0  0.1648168293611079  0.7757989802342633  0.3075799751371876  1.0000
  C   C7        1.0  0.6648141879078153  0.7241986390596296  0.30758059459901693  1.0000
  C   C8        1.0  0.8351852183808929  0.22420099375059266  0.6924187325538754  1.0000
  C   C9        1.0  0.2648488435129792  0.1640542875943893  0.6133723861172911  1.0000
  C   C10       1.0  0.23514845246243957  0.6640503321244111  0.3866281222417172  1.0000
  C   C11       1.0  0.735146069888664  0.8359479095484446  0.3866284245672987  1.0000
  C   C12       1.0  0.7648564220906096  0.3359485302862879  0.6133708891516252  1.0000
  C   C13       1.0  0.19969706552508626  0.17601097240830652  0.47270739452148564  1.0000
  C   C14       1.0  0.3003002333171381  0.6760125398680543  0.5272941360876475  1.0000
  C   C15       1.0  0.8002964120295317  0.823987890009107  0.5272942183844833  1.0000
  C   C16       1.0  0.6997060546420215  0.3239863225435756  0.47270502715841917  1.0000
  S   S1        1.0  0.3708668401632309  0.979756168825837  0.8024346770127552  1.0000
  S   S2        1.0  0.1291368671577757  0.47975141319309955  0.19756442185983766  1.0000
  S   S3        1.0  0.6291408612055635  0.020246028314744494  0.1975646380955426  1.0000
  S   S4        1.0  0.8708694208013839  0.5202474492185304  0.802434741386229  1.0000
  N   N1        1.0  0.37118833798743384  0.1228603257191025  0.8878387647094147  1.0000
  N   N2        1.0  0.1288060664561002  0.6228587265375864  0.1121602510696889  1.0000
  N   N3        1.0  0.6288136873171837  0.8771396482692849  0.11216089706525172  1.0000
  N   N4        1.0  0.8711874784141999  0.3771434705972538  0.8878384995949702  1.0000
  O   O1        1.0  0.2634273130662804  0.8606209310698247  0.8487659197678781  1.0000
  O   O2        1.0  0.23656903028353327  0.36062033349849526  0.15123364897244332  1.0000
  O   O3        1.0  0.736578974890527  0.13937570818978168  0.1512332434718502  1.0000
  O   O4        1.0  0.7634258831181099  0.6393818636443386  0.8487671617121466  1.0000
  O   O5        1.0  0.5550011480532718  0.9405285756370247  0.7691932734546968  1.0000
  O   O6        1.0  0.9449972801063923  0.44052756386867026  0.2308080889580851  1.0000
  O   O7        1.0  0.4450023355357544  0.05947473307325878  0.23080463201498702  1.0000
  O   O8        1.0  0.05500312985918038  0.5594757448786042  0.7692000077258003  1.0000
  O   O9        1.0  0.2439352585152434  0.0217805008321363  0.6583319106044314  1.0000
  O   O10       1.0  0.25606604396863014  0.5217817806099135  0.34166538014392245  1.0000
  O   O11       1.0  0.7560639175374105  0.9782172500059119  0.3416684015420587  1.0000
  O   O12       1.0  0.7439402664314442  0.47822041652621283  0.6583328290280407  1.0000
  O   O13       1.0  0.42745138722157344  0.37172003014214977  0.9021674431362926  1.0000
  O   O14       1.0  0.07254778398453961  0.8717171841721836  0.09783344664937492  1.0000
  O   O15       1.0  0.5725449844586024  0.6282799438425356  0.09783161122747691  1.0000
  O   O16       1.0  0.9274528054777563  0.1282839013948234  0.9021670173593394  1.0000
