data_image0
_chemical_formula_structural       Bi2H38C24S2N4O8
_chemical_formula_sum              "Bi2 H38 C24 S2 N4 O8"
_cell_length_a       8.44823067407111
_cell_length_b       8.983345620595584
_cell_length_c       11.402327371128582
_cell_angle_alpha    111.18443670238209
_cell_angle_beta     90.0004540665724
_cell_angle_gamma    89.99972416861706

_space_group_name_H-M_alt    "P 1"
_space_group_IT_number       1

loop_
  _space_group_symop_operation_xyz
  'x, y, z'

loop_
  _atom_site_type_symbol
  _atom_site_label
  _atom_site_symmetry_multiplicity
  _atom_site_fract_x
  _atom_site_fract_y
  _atom_site_fract_z
  _atom_site_occupancy
  Bi  Bi1       1.0  0.08886959689198899  0.008659121898958205  0.24481792383711112  1.0000
  Bi  Bi2       1.0  0.9111320112954289  0.0086577348948182  0.7448159369573092  1.0000
  H   H1        1.0  0.319744654894393  0.42152723277395426  0.12709685143734364  1.0000
  H   H2        1.0  0.680257130102703  0.4215263264599401  0.6270945204248904  1.0000
  H   H3        1.0  0.5437649581190982  0.5006290702058467  0.28031960208739554  1.0000
  H   H4        1.0  0.45624160829932237  0.5006274393686427  0.7803157449293466  1.0000
  H   H5        1.0  0.5839970471309925  0.7861665165210854  0.41675801128918993  1.0000
  H   H6        1.0  0.4160095118369397  0.7861637671331609  0.9167562278593524  1.0000
  H   H7        1.0  0.0649510803944011  0.498339369208985  0.05553344183490344  1.0000
  H   H8        1.0  0.9350495465889919  0.4983403137914309  0.5555340178857976  1.0000
  H   H9        1.0  0.1322349026472835  0.6473453944908484  0.9973508225211987  1.0000
  H   H10       1.0  0.8677673103289505  0.6473416071216536  0.4973445099204172  1.0000
  H   H11       1.0  0.7960573562867664  0.7715882549771041  0.28578564548423924  1.0000
  H   H12       1.0  0.20394077692527188  0.7715907042666503  0.7857902426837314  1.0000
  H   H13       1.0  0.9755118418411328  0.6781844826933324  0.30498913086209  1.0000
  H   H14       1.0  0.024486975397508097  0.6781861170952228  0.8049915613001704  1.0000
  H   H15       1.0  0.8303983185482764  0.564942066463907  0.19475805644846395  1.0000
  H   H16       1.0  0.16960108612343558  0.564943387856886  0.694763882359361  1.0000
  H   H17       1.0  0.8987026379143614  0.7899208926411704  0.9822783226534356  1.0000
  H   H18       1.0  0.10129868300961678  0.7899174782250855  0.4822790068351993  1.0000
  H   H19       1.0  0.74520771451958  0.8102340180322262  0.09364332871633259  1.0000
  H   H20       1.0  0.25479408732060455  0.8102315824086547  0.5936477024564512  1.0000
  H   H21       1.0  0.8005275356911311  0.6163247656777887  0.9895846072184896  1.0000
  H   H22       1.0  0.1994735698132359  0.6163223304357502  0.4895887808759627  1.0000
  H   H23       1.0  0.3253523114496701  0.0646704990100702  0.5050293391127313  1.0000
  H   H24       1.0  0.6746464491619902  0.06466829208935113  0.005027604824853402  1.0000
  H   H25       1.0  0.5222026763611466  0.074335176973868  0.4496092888798771  1.0000
  H   H26       1.0  0.4777972306298323  0.0743299284272396  0.9496018909038924  1.0000
  H   H27       1.0  0.397877929208505  0.22842875350471561  0.21005854451634323  1.0000
  H   H28       1.0  0.6021209971375185  0.22843278027016825  0.7100589212309388  1.0000
  H   H29       1.0  0.4752187847656657  0.037774785763609514  0.19361451965809107  1.0000
  H   H30       1.0  0.5247821273645029  0.037778986547706915  0.6936109829615732  1.0000
  H   H31       1.0  0.5623649974959263  0.21228766270169797  0.3064187388586106  1.0000
  H   H32       1.0  0.43763504049940133  0.21228845852915876  0.8064154675691171  1.0000
  H   H33       1.0  0.20702283639685248  0.29625741224692365  0.5120323363471257  1.0000
  H   H34       1.0  0.7929771787582566  0.29625494243466494  0.012035608282161533  1.0000
  H   H35       1.0  0.25005585737945785  0.378695624488465  0.39393900926745573  1.0000
  H   H36       1.0  0.7499430781185267  0.3786993175835321  0.8939471765581573  1.0000
  H   H37       1.0  0.4025108539832373  0.36830989354206184  0.499336364186867  1.0000
  H   H38       1.0  0.597489260143284  0.36830675195360396  0.9993390446168819  1.0000
  C   C1        1.0  0.26156642108259825  0.8227974306851851  0.2502121006065395  1.0000
  C   C2        1.0  0.7384310696474543  0.8227964084861699  0.7502083247684724  1.0000
  C   C3        1.0  0.2373069033273793  0.6635139998855665  0.173666554246637  1.0000
  C   C4        1.0  0.7626905869167898  0.6635129298598984  0.6736620304745744  1.0000
  C   C5        1.0  0.3404933612061285  0.5467300893417502  0.1840609750730238  1.0000
  C   C6        1.0  0.6595072062770199  0.5467304233406837  0.6840580003304312  1.0000
  C   C7        1.0  0.4645019256335274  0.591822976836774  0.2712976640541244  1.0000
  C   C8        1.0  0.5355028931105892  0.5918235706316608  0.7712940338751012  1.0000
  C   C9        1.0  0.48771151980666616  0.7516692741840957  0.34818867111476953  1.0000
  C   C10       1.0  0.5122921165447708  0.7516663350692242  0.8481838919636574  1.0000
  C   C11       1.0  0.3852731442412107  0.8685221195560333  0.337205356282361  1.0000
  C   C12       1.0  0.6147262245522143  0.8685201626779105  0.8372005844987741  1.0000
  C   C13       1.0  0.0989864308310402  0.6249949690664849  0.08291904226891231  1.0000
  C   C14       1.0  0.9010150227231505  0.6249924094122863  0.582916659817947  1.0000
  C   C15       1.0  0.8862537223379192  0.683426914798112  0.23693314675237087  1.0000
  C   C16       1.0  0.1137455250339769  0.683425974511643  0.7369353647692879  1.0000
  C   C17       1.0  0.8456937753125118  0.7360589807699255  0.045183594257252865  1.0000
  C   C18       1.0  0.15430907314711106  0.7360579555057857  0.5451860266634159  1.0000
  C   C19       1.0  0.3987128410414654  0.042378147250275305  0.42063276556712037  1.0000
  C   C20       1.0  0.6012869204483449  0.042376212533128  0.920629675064518  1.0000
  C   C21       1.0  0.45080543978840376  0.158102422842454  0.26094142559519184  1.0000
  C   C22       1.0  0.5491932068191047  0.1581065634899091  0.7609406464027658  1.0000
  C   C23       1.0  0.29725318458299194  0.30721125916461034  0.4462396851677255  1.0000
  C   C24       1.0  0.7027466759291484  0.30721028474987133  0.9462436061332086  1.0000
  S   S1        1.0  0.8729864016822119  0.09679999016368872  0.5009324860031797  1.0000
  S   S2        1.0  0.127010966733053  0.09680130924655123  0.0009311698595056073  1.0000
  N   N1        1.0  0.9621837729007937  0.7307492415219558  0.1395413967358365  1.0000
  N   N2        1.0  0.037816559244483  0.7307496571520249  0.6395426793675228  1.0000
  N   N3        1.0  0.33684838494458796  0.1475791862305798  0.35596382923360187  1.0000
  N   N4        1.0  0.6631525139159109  0.14758070044300106  0.8559629681711275  1.0000
  O   O1        1.0  0.0368431925620243  0.029587568716777903  0.45297333809320867  1.0000
  O   O2        1.0  0.9631557961583894  0.029586075716544303  0.9529707500344602  1.0000
  O   O3        1.0  0.7958877762451236  0.9723097076896255  0.5451191409738742  1.0000
  O   O4        1.0  0.20411149262460526  0.9723132409476206  0.0451224211676617  1.0000
  O   O5        1.0  0.7809641703991446  0.11236077502299223  0.3967279361426251  1.0000
  O   O6        1.0  0.21903379330162656  0.11235723545635781  0.8967273979947665  1.0000
  O   O7        1.0  0.892501927309567  0.24637508202600608  0.609624145884034  1.0000
  O   O8        1.0  0.10749346723373068  0.2463776478316363  0.10961956405294161  1.0000
