data_image0
_chemical_formula_structural       Cd4H20C20S4N20O16
_chemical_formula_sum              "Cd4 H20 C20 S4 N20 O16"
_cell_length_a       6.849687153055401
_cell_length_b       11.13832336962837
_cell_length_c       11.933181657003411
_cell_angle_alpha    89.99997681181142
_cell_angle_beta     89.9999256364393
_cell_angle_gamma    106.28365736600261

_space_group_name_H-M_alt    "P 1"
_space_group_IT_number       1

loop_
  _space_group_symop_operation_xyz
  'x, y, z'

loop_
  _atom_site_type_symbol
  _atom_site_label
  _atom_site_symmetry_multiplicity
  _atom_site_fract_x
  _atom_site_fract_y
  _atom_site_fract_z
  _atom_site_occupancy
  Cd  Cd1       1.0  0.2775034765914767  0.571310015754534  0.1235996835070878  1.0000
  Cd  Cd2       1.0  0.7224978343679284  0.9286918933794936  0.6236018935140277  1.0000
  Cd  Cd3       1.0  0.7224976511838361  0.4286907149519692  0.8763987756627074  1.0000
  Cd  Cd4       1.0  0.2775036919089757  0.07130977247668108  0.37639907965387914  1.0000
  H   H1        1.0  0.18962884534985838  0.4862324388463646  0.6789972946093955  1.0000
  H   H2        1.0  0.8103748856528769  0.013769177880490695  0.17900140860934496  1.0000
  H   H3        1.0  0.8103718839238637  0.5137673567104597  0.320998650562295  1.0000
  H   H4        1.0  0.1896262421169012  0.9862315528241365  0.821001240557848  1.0000
  H   H5        1.0  0.2826550076959152  0.2001308065729859  0.6049189972614215  1.0000
  H   H6        1.0  0.7173451864473958  0.29986897029002074  0.10492223623984387  1.0000
  H   H7        1.0  0.7173453230695729  0.7998680538319222  0.39507946190902726  1.0000
  H   H8        1.0  0.28265594132238187  0.7001317604146065  0.895080412927342  1.0000
  H   H9        1.0  0.26889542373942277  0.30426322494703567  0.7146533386022469  1.0000
  H   H10       1.0  0.7311082130470936  0.19573835993747923  0.21465660619985266  1.0000
  H   H11       1.0  0.7311057040369987  0.6957375057598366  0.2853442825680759  1.0000
  H   H12       1.0  0.26889478102391706  0.8042633237768013  0.785346880965932  1.0000
  H   H13       1.0  0.310928021313039  0.2771467683845472  0.1857231412899552  1.0000
  H   H14       1.0  0.6890667589096324  0.2228510124361377  0.6857279675539517  1.0000
  H   H15       1.0  0.6890716386681673  0.7228539444638498  0.8142728038819624  1.0000
  H   H16       1.0  0.3109298392445367  0.7771459419464787  0.3142755196151299  1.0000
  H   H17       1.0  0.21768808426625696  0.6656672697335535  0.5699156963880013  1.0000
  H   H18       1.0  0.7823129700401378  0.8343337521914899  0.0699197115071044  1.0000
  H   H19       1.0  0.7823089124016818  0.3343306198028485  0.4300810867849307  1.0000
  H   H20       1.0  0.21769002403308943  0.16566793152353645  0.9300820996597279  1.0000
  C   C1        1.0  0.29920903484386924  0.3268329841597576  0.2628266303791236  1.0000
  C   C2        1.0  0.700784472348431  0.1731656450950324  0.7628314664162659  1.0000
  C   C3        1.0  0.7007883603311953  0.6731658405281918  0.7371684767945222  1.0000
  C   C4        1.0  0.2992133213215807  0.8268341147403502  0.2371711827523626  1.0000
  C   C5        1.0  0.2674686379978651  0.4717822452751717  0.3757587768614242  1.0000
  C   C6        1.0  0.7325279048828576  0.028217253994519388  0.8757636432515736  1.0000
  C   C7        1.0  0.7325335590732819  0.5282175681408745  0.6242371683097118  1.0000
  C   C8        1.0  0.2674665546862868  0.9717815349712422  0.12423984391796947  1.0000
  C   C9        1.0  0.2318375947804582  0.5818545726838307  0.5271098554093712  1.0000
  C   C10       1.0  0.7681646419295017  0.9181455701778841  0.027113011809788593  1.0000
  C   C11       1.0  0.7681660700881137  0.4181452585914441  0.4728860897612036  1.0000
  C   C12       1.0  0.23183568882601685  0.08185329022364839  0.9728929893559621  1.0000
  C   C13       1.0  0.2518179102421668  0.37008183172230946  0.5565588651847904  1.0000
  C   C14       1.0  0.748180545383093  0.12991703531804424  0.05656382055909151  1.0000
  C   C15       1.0  0.7481805542254137  0.6299160756740605  0.4434362419886283  1.0000
  C   C16       1.0  0.2518183175783192  0.8700818072253893  0.9434396666087819  1.0000
  C   C17       1.0  0.2685577096116559  0.36459955562244756  0.4385978633769411  1.0000
  C   C18       1.0  0.7314397365159664  0.13539897023708383  0.9386026904564416  1.0000
  C   C19       1.0  0.7314440889534737  0.6353993226424277  0.5613989197939944  1.0000
  C   C20       1.0  0.26855325525464474  0.8645998008690722  0.06140163471313538  1.0000
  S   S1        1.0  0.22083988310648545  0.44182735915320126  0.9003657472824143  1.0000
  S   S2        1.0  0.7791628644540438  0.058173124731077074  0.4003656781779128  1.0000
  S   S3        1.0  0.7791631109711687  0.5581743245633247  0.09963271188650678  1.0000
  S   S4        1.0  0.2208367955194105  0.9418275881146979  0.5996361329903549  1.0000
  N   N1        1.0  0.28735237655187257  0.4459329743835666  0.26520485506839003  1.0000
  N   N2        1.0  0.7126425921547083  0.05406567060693128  0.7652088887643556  1.0000
  N   N3        1.0  0.7126487512245488  0.554067756323313  0.7347927661019324  1.0000
  N   N4        1.0  0.2873529367069521  0.9459322010672576  0.23479459840495306  1.0000
  N   N5        1.0  0.29046736572205833  0.2737263393761394  0.3648488900694957  1.0000
  N   N6        1.0  0.7095273396857421  0.22627221662703076  0.8648528616355193  1.0000
  N   N7        1.0  0.7095344328441796  0.7262725388891124  0.6351470551019673  1.0000
  N   N8        1.0  0.2904656520859773  0.7737265544795019  0.13515062553457818  1.0000
  N   N9        1.0  0.2524906802568694  0.5823310464082849  0.4178456095947709  1.0000
  N   N10       1.0  0.7475075883803297  0.9176687117874917  0.9178486428813457  1.0000
  N   N11       1.0  0.7475129846105872  0.41766878486661324  0.5821511735752836  1.0000
  N   N12       1.0  0.2524872696959406  0.08233101232980997  0.08215316828891868  1.0000
  N   N13       1.0  0.2291238816517519  0.4823257212471359  0.5944699491088414  1.0000
  N   N14       1.0  0.7708759415981773  0.017673129796960996  0.0944724154097401  1.0000
  N   N15       1.0  0.7708775184084615  0.517672221866938  0.4055268340624209  1.0000
  N   N16       1.0  0.2291207827793257  0.9823275473299942  0.9055302337591156  1.0000
  N   N17       1.0  0.2575679176696823  0.2829033850742987  0.6304168013360965  1.0000
  N   N18       1.0  0.7424348724094114  0.2170991923290799  0.1304208904001953  1.0000
  N   N19       1.0  0.7424317423104227  0.7170973277737287  0.36957998183530794  1.0000
  N   N20       1.0  0.2575685201665081  0.7829034265360021  0.8695825967652623  1.0000
  O   O1        1.0  0.10167919678330858  0.38665944410325886  0.000594030934657  1.0000
  O   O2        1.0  0.898322740827645  0.11334044378748587  0.5005953885260936  1.0000
  O   O3        1.0  0.8983236710732215  0.6133385168696674  0.9994035902355236  1.0000
  O   O4        1.0  0.10167731765072571  0.8866612042090904  0.4994064226418473  1.0000
  O   O5        1.0  0.36490094488121355  0.5663800579386515  0.9339149787914989  1.0000
  O   O6        1.0  0.6351024817006133  0.9336216097870107  0.43391487766643866  1.0000
  O   O7        1.0  0.6350987150944574  0.4336206549078766  0.0660851563778095  1.0000
  O   O8        1.0  0.3649015816662242  0.0663791566368133  0.5660860955006796  1.0000
  O   O9        1.0  0.34083997720023257  0.35904303119549025  0.8555989474518807  1.0000
  O   O10       1.0  0.6591618193570454  0.14095840995868508  0.35560061377412916  1.0000
  O   O11       1.0  0.6591652816868817  0.640960540682606  0.144397835716866  1.0000
  O   O12       1.0  0.3408363728189911  0.8590422850278681  0.6444011973946928  1.0000
  O   O13       1.0  0.08354108742781816  0.4633929881797768  0.8093129616873114  1.0000
  O   O14       1.0  0.916460160650125  0.036610346753406  0.30931279719875693  1.0000
  O   O15       1.0  0.9164589710538774  0.5366086598179219  0.19068633548219785  1.0000
  O   O16       1.0  0.08354069483918641  0.9633931715451423  0.6906881759690506  1.0000
