data_image0
_chemical_formula_structural       Sm2H38C64N8O10
_chemical_formula_sum              "Sm2 H38 C64 N8 O10"
_cell_length_a       8.72125417688778
_cell_length_b       8.721246409441246
_cell_length_c       17.317499343350207
_cell_angle_alpha    92.26517625058851
_cell_angle_beta     92.26513998811586
_cell_angle_gamma    105.94741063977563

_space_group_name_H-M_alt    "P 1"
_space_group_IT_number       1

loop_
  _space_group_symop_operation_xyz
  'x, y, z'

loop_
  _atom_site_type_symbol
  _atom_site_label
  _atom_site_symmetry_multiplicity
  _atom_site_fract_x
  _atom_site_fract_y
  _atom_site_fract_z
  _atom_site_occupancy
  Sm  Sm1       1.0  0.7078976088127789  0.2921023687728805  0.7500013991138277  1.0000
  Sm  Sm2       1.0  0.292102000357076  0.7078997335698601  0.2499985988335922  1.0000
  H   H1        1.0  0.24417193235481707  0.7558303041281109  0.7499997836766286  1.0000
  H   H2        1.0  0.7558273587566902  0.244170615661595  0.24999902671941504  1.0000
  H   H3        1.0  0.1746903473169041  0.22464893952788864  0.7844422351240965  1.0000
  H   H4        1.0  0.7753530850674436  0.8253095174976509  0.7155583634421774  1.0000
  H   H5        1.0  0.8253077902519266  0.7753519736265773  0.21555712750671321  1.0000
  H   H6        1.0  0.22464651250602685  0.17469257324923856  0.28444278892344244  1.0000
  H   H7        1.0  0.3586770595275155  0.41700551857992013  0.7443599636925171  1.0000
  H   H8        1.0  0.5829919512726107  0.6413209314357503  0.7556376090106482  1.0000
  H   H9        1.0  0.6413230380773527  0.5829941963023656  0.25563999296286977  1.0000
  H   H10       1.0  0.41700274886095906  0.35867998500468457  0.2443611014880887  1.0000
  H   H11       1.0  0.1451724599110378  0.47128239095411567  0.6597454238420042  1.0000
  H   H12       1.0  0.5287130398259946  0.8548286092482369  0.8402516331633194  1.0000
  H   H13       1.0  0.8548309395415856  0.5287209254432454  0.34025295053429266  1.0000
  H   H14       1.0  0.4712850919446367  0.1451722981082995  0.15974830667659753  1.0000
  H   H15       1.0  0.1452965691634276  0.41345497983039087  0.5150343506104065  1.0000
  H   H16       1.0  0.5865418566293101  0.8547065867781073  0.9849627738573616  1.0000
  H   H17       1.0  0.8547063297599989  0.5865423666598631  0.48496388307430033  1.0000
  H   H18       1.0  0.4134589118814204  0.14529552799780282  0.015036094646191602  1.0000
  H   H19       1.0  0.2686012545235529  0.31086251856930164  0.4052063438474676  1.0000
  H   H20       1.0  0.6891336856216981  0.7314062690913803  0.0947925372190639  1.0000
  H   H21       1.0  0.7314006380410946  0.6891312280805194  0.5947935220649897  1.0000
  H   H22       1.0  0.3108639635121193  0.2685970315235338  0.9052068667037931  1.0000
  H   H23       1.0  0.4729988498818401  0.18254458624623737  0.3574882138446895  1.0000
  H   H24       1.0  0.8174554534111991  0.5270121301558106  0.14251250949153163  1.0000
  H   H25       1.0  0.5270069806472505  0.8174551270247221  0.6425124448914374  1.0000
  H   H26       1.0  0.18254038866866298  0.4729887813240126  0.857486803190632  1.0000
  H   H27       1.0  0.7185501086923978  0.10294200829866901  0.3816812882175356  1.0000
  H   H28       1.0  0.8970592190112112  0.2814640981903906  0.11832237085195631  1.0000
  H   H29       1.0  0.2814583411822085  0.8970588949978833  0.6183200308095209  1.0000
  H   H30       1.0  0.10293679394310826  0.7185415890476533  0.8816770493886068  1.0000
  H   H31       1.0  0.9357569043594154  0.07820438454727713  0.4760177777235199  1.0000
  H   H32       1.0  0.9217953235011435  0.06425241212838272  0.023985706586685796  1.0000
  H   H33       1.0  0.06425400608042513  0.9218012903842095  0.5239842760196894  1.0000
  H   H34       1.0  0.07820280247129567  0.9357484894302318  0.9760148104623312  1.0000
  H   H35       1.0  0.9170226884960184  0.14730774075801634  0.6170070229866695  1.0000
  H   H36       1.0  0.85269150330722  0.08297866973522623  0.882997469927588  1.0000
  H   H37       1.0  0.08297918717183705  0.8526943342697352  0.3829959109548966  1.0000
  H   H38       1.0  0.14730662266521924  0.9170222318233884  0.1170030471214218  1.0000
  C   C1        1.0  0.2280514594931375  0.9988998369649666  0.7660852900771007  1.0000
  C   C2        1.0  0.0011012426197396891  0.7719482802367922  0.7339142357441517  1.0000
  C   C3        1.0  0.771949309017586  0.0011022778109506  0.23391357842645286  1.0000
  C   C4        1.0  0.9988980426935754  0.22805263375498447  0.2660851518609917  1.0000
  C   C5        1.0  0.1659247951458411  0.8340757019343316  0.7499997573007421  1.0000
  C   C6        1.0  0.8340756495083496  0.1659252244906213  0.24999850086052794  1.0000
  C   C7        1.0  0.1264693943076338  0.09794810949836122  0.769366740264843  1.0000
  C   C8        1.0  0.9020512036351602  0.8735299175816494  0.730633775842435  1.0000
  C   C9        1.0  0.8735307032972344  0.9020516053839317  0.2306332163905438  1.0000
  C   C10       1.0  0.09794658688435479  0.1264697840301565  0.2693672852824919  1.0000
  C   C11       1.0  0.9611314245309684  0.03886931630805891  0.7500008012078467  1.0000
  C   C12       1.0  0.0388689911322473  0.961131581127262  0.25000034299891644  1.0000
  C   C13       1.0  0.40380754867983626  0.07599677094045632  0.7747511524489781  1.0000
  C   C14       1.0  0.9240049086041466  0.5961921708925645  0.7252482252773831  1.0000
  C   C15       1.0  0.596192401741142  0.9240065371470152  0.22524772421343903  1.0000
  C   C16       1.0  0.07599437091096921  0.40380873730129013  0.27475173953686044  1.0000
  C   C17       1.0  0.3563944144892375  0.39387745075259784  0.6819682701140409  1.0000
  C   C18       1.0  0.606117278824648  0.6436042257324603  0.8180304089963429  1.0000
  C   C19       1.0  0.6436061715506439  0.6061198766692402  0.3180316452493131  1.0000
  C   C20       1.0  0.3938805348876429  0.3563954990710414  0.1819683432921977  1.0000
  C   C21       1.0  0.23615762849310326  0.4249825589627251  0.6336629789796789  1.0000
  C   C22       1.0  0.5750096621835183  0.7638431667282788  0.8663339821993362  1.0000
  C   C23       1.0  0.7638455884886781  0.5750159700805642  0.3663364422564115  1.0000
  C   C24       1.0  0.4249865153492749  0.23615894469836016  0.1336647864069107  1.0000
  C   C25       1.0  0.23585609622054446  0.39145039048893443  0.5550866866589388  1.0000
  C   C26       1.0  0.6085442127140651  0.7641456436405393  0.9449109194552038  1.0000
  C   C27       1.0  0.7641457963440954  0.6085433561608865  0.4449131792535184  1.0000
  C   C28       1.0  0.3914532771416788  0.23585289281200522  0.05508722249104642  1.0000
  C   C29       1.0  0.35453339694623764  0.3263819921487681  0.5256515027446866  1.0000
  C   C30       1.0  0.6736137509095813  0.6454682734917514  0.9743478321515865  1.0000
  C   C31       1.0  0.6454620801919332  0.6736093446229104  0.4743499036570569  1.0000
  C   C32       1.0  0.3263847163139815  0.3545338338116012  0.0256515636124135  1.0000
  C   C33       1.0  0.35754928338187136  0.2854204646702456  0.4450518831732992  1.0000
  C   C34       1.0  0.7145757204042339  0.6424586440967558  0.0549469895271386  1.0000
  C   C35       1.0  0.6424530918195899  0.7145708887212053  0.554948518656218  1.0000
  C   C36       1.0  0.2854216048730365  0.3575434681672007  0.9450518040534348  1.0000
  C   C37       1.0  0.4715560666827159  0.2194255516560446  0.4183724887399762  1.0000
  C   C38       1.0  0.7805774225853598  0.5284539337104235  0.08162828270921103  1.0000
  C   C39       1.0  0.5284453200523344  0.780570565060451  0.581629150091807  1.0000
  C   C40       1.0  0.219421703947674  0.47155056189069455  0.9183711793211558  1.0000
  C   C41       1.0  0.5940005260103759  0.1954063925418978  0.47000507814459525  1.0000
  C   C42       1.0  0.804593412811741  0.4060085775109813  0.029996160937997705  1.0000
  C   C43       1.0  0.4060016788144196  0.804588530863036  0.5299965525283314  1.0000
  C   C44       1.0  0.19540424791846076  0.5939947346997839  0.970002088566666  1.0000
  C   C45       1.0  0.7179567873445337  0.13518955611582584  0.4431259998967221  1.0000
  C   C46       1.0  0.8648162383422998  0.2820585053323228  0.0568777868920307  1.0000
  C   C47       1.0  0.2820557592747974  0.8648137321925305  0.5568760375287738  1.0000
  C   C48       1.0  0.13518403013702598  0.7179459853081837  0.9431222773217557  1.0000
  C   C49       1.0  0.8364455133239446  0.1205806221625778  0.49520056937386414  1.0000
  C   C50       1.0  0.8794182080930711  0.16356255063868022  0.0048040442625989  1.0000
  C   C51       1.0  0.16356063526349382  0.879420273661417  0.5048012769136392  1.0000
  C   C52       1.0  0.12057795784333078  0.8364395491921075  0.9951958787618411  1.0000
  C   C53       1.0  0.8276842041569027  0.16103852216305375  0.5740364486574167  1.0000
  C   C54       1.0  0.8389599732371096  0.17231802857475745  0.9259674846078882  1.0000
  C   C55       1.0  0.17232011998200394  0.8389599671320697  0.42596703801668684  1.0000
  C   C56       1.0  0.16103930047981407  0.8276828738211748  0.0740330574154484  1.0000
  C   C57       1.0  0.5960636135940688  0.23602333968329958  0.5505551907590558  1.0000
  C   C58       1.0  0.7639718091081065  0.4039368512720643  0.949445788840059  1.0000
  C   C59       1.0  0.4039353299703237  0.7639680227920423  0.4494439817292815  1.0000
  C   C60       1.0  0.23602780585994046  0.596065256868606  0.05055363189826781  1.0000
  C   C61       1.0  0.4719451510934363  0.30018301566267525  0.5792344215406757  1.0000
  C   C62       1.0  0.6998129658825859  0.5280576844421816  0.9207649228687063  1.0000
  C   C63       1.0  0.5280522976771634  0.6998071344326887  0.42076642446744483  1.0000
  C   C64       1.0  0.3001851832826361  0.4719432403081356  0.0792332853439177  1.0000
  N   N1        1.0  0.4711627908942191  0.33390384956022967  0.656519678760624  1.0000
  N   N2        1.0  0.6660930987623317  0.5288383167249577  0.8434796541453907  1.0000
  N   N3        1.0  0.5288359706971306  0.6660910713327509  0.3434818769893226  1.0000
  N   N4        1.0  0.3339038968602067  0.4711626013901125  0.15651910630199953  1.0000
  N   N5        1.0  0.7113924844330767  0.21638409091129776  0.6014266818492614  1.0000
  N   N6        1.0  0.783612908295936  0.28860769748659715  0.8985754670128331  1.0000
  N   N7        1.0  0.2886072661224688  0.783614412428328  0.39857497330023517  1.0000
  N   N8        1.0  0.21638703632685014  0.7113956048029523  0.101423986858677  1.0000
  O   O1        1.0  0.4551928192530568  0.20750999314205393  0.8156018346482483  1.0000
  O   O2        1.0  0.7924912906776244  0.5448057734150353  0.6843969442296256  1.0000
  O   O3        1.0  0.5448080906433647  0.7924885226307481  0.18439869105738182  1.0000
  O   O4        1.0  0.20750682369843076  0.4551951165477278  0.3156047272375844  1.0000
  O   O5        1.0  0.4993375903514803  0.016570018228257797  0.7374976331661147  1.0000
  O   O6        1.0  0.9834319116719926  0.5006635666288446  0.7625017585928688  1.0000
  O   O7        1.0  0.5006638490651056  0.9834344964412693  0.2625001471856123  1.0000
  O   O8        1.0  0.016568697560664654  0.4993337839846958  0.2374958479340918  1.0000
  O   O9        1.0  0.8669397950719145  0.1330608616048039  0.7500008131553387  1.0000
  O   O10       1.0  0.13305947284681713  0.8669400349932063  0.25000030607709794  1.0000
