data_image0
_chemical_formula_structural       Fe6H48C84N12O26
_chemical_formula_sum              "Fe6 H48 C84 N12 O26"
_cell_length_a       15.248530080257998
_cell_length_b       16.892682775916253
_cell_length_c       16.894385596886295
_cell_angle_alpha    120.00637891820138
_cell_angle_beta     89.99676542682631
_cell_angle_gamma    90.00213150031828

_space_group_name_H-M_alt    "P 1"
_space_group_IT_number       1

loop_
  _space_group_symop_operation_xyz
  'x, y, z'

loop_
  _atom_site_type_symbol
  _atom_site_label
  _atom_site_symmetry_multiplicity
  _atom_site_fract_x
  _atom_site_fract_y
  _atom_site_fract_z
  _atom_site_occupancy
  Fe  Fe1       1.0  0.2498095415202499  0.732461808864649  0.46493315639624905  1.0000
  Fe  Fe2       1.0  0.2498255625600549  0.7324434946852066  0.26753242196905097  1.0000
  Fe  Fe3       1.0  0.2503703942060369  0.5346557895542929  0.26732016594029767  1.0000
  Fe  Fe4       1.0  0.7497357802052207  0.2674695069947435  0.5349281371876842  1.0000
  Fe  Fe5       1.0  0.7499132200961184  0.2675876536875281  0.732405453951941  1.0000
  Fe  Fe6       1.0  0.7503566780525832  0.46529957388347043  0.7326437395640042  1.0000
  H   H1        1.0  0.4447353403729367  0.9360092066344311  0.5949779722262178  1.0000
  H   H2        1.0  0.44479741419282  0.6589589993736169  0.06394245934930615  1.0000
  H   H3        1.0  0.4447441448060944  0.4050104993100234  0.34107577128430927  1.0000
  H   H4        1.0  0.9447255938797169  0.06398363184378308  0.4050411754878525  1.0000
  H   H5        1.0  0.9447723835216948  0.34102223117900393  0.9360527756725007  1.0000
  H   H6        1.0  0.9447515476143806  0.5950011801008447  0.6589328258510889  1.0000
  H   H7        1.0  0.555229604343843  0.06393153387893612  0.6589403961314846  1.0000
  H   H8        1.0  0.5552432774109662  0.34104474666340695  0.40498527783659455  1.0000
  H   H9        1.0  0.5552856548014306  0.5949541759769233  0.9360061339679434  1.0000
  H   H10       1.0  0.0552316533713935  0.9360725004152428  0.34107632145192224  1.0000
  H   H11       1.0  0.05524421336959761  0.6589812289453294  0.5950130540401801  1.0000
  H   H12       1.0  0.0552549553710193  0.40502681877566005  0.0639779747909301  1.0000
  H   H13       1.0  0.5552506754909456  0.06392500509691966  0.4050153807197178  1.0000
  H   H14       1.0  0.5552528716120192  0.3410117101558472  0.9360286085992656  1.0000
  H   H15       1.0  0.5552556428993969  0.5949876810170311  0.6589589910173927  1.0000
  H   H16       1.0  0.0552341909469263  0.9360733349748858  0.595001110130461  1.0000
  H   H17       1.0  0.055232651238938515  0.6589634312551597  0.06395306611777579  1.0000
  H   H18       1.0  0.0552620144835814  0.40502868211309834  0.3410406637194042  1.0000
  H   H19       1.0  0.44474329597739637  0.9360182594044206  0.34104803354833285  1.0000
  H   H20       1.0  0.4447781531618278  0.6589832359302722  0.59502323947072  1.0000
  H   H21       1.0  0.4447528275390483  0.4050055901750512  0.06392733628843664  1.0000
  H   H22       1.0  0.9447360008215142  0.0639833251638179  0.6589730244381116  1.0000
  H   H23       1.0  0.9447824637422855  0.3410364391087272  0.40498446580167524  1.0000
  H   H24       1.0  0.9447317161805273  0.5949780323881843  0.9360655086823186  1.0000
  H   H25       1.0  0.25000416119306834  0.9338353000988989  0.623358808377084  1.0000
  H   H26       1.0  0.25005723695134924  0.6895871579043417  0.06621202832810259  1.0000
  H   H27       1.0  0.24994279149706242  0.3766488875956142  0.3104565216101918  1.0000
  H   H28       1.0  0.7500362874041783  0.06614952629971785  0.3766277427114701  1.0000
  H   H29       1.0  0.7500369874775644  0.3104370898785263  0.9337954862568338  1.0000
  H   H30       1.0  0.7499343618746224  0.6233684258082662  0.6895768717926246  1.0000
  H   H31       1.0  0.7499864805128951  0.06617800636671947  0.6895507668593555  1.0000
  H   H32       1.0  0.7500642792831015  0.31041396090460444  0.3766386480615651  1.0000
  H   H33       1.0  0.7499522857440086  0.6233620433152044  0.933829475307249  1.0000
  H   H34       1.0  0.25001527539699714  0.9338413156432639  0.3104723290251528  1.0000
  H   H35       1.0  0.2500496192274682  0.6895792029498086  0.6233466692575008  1.0000
  H   H36       1.0  0.24994126262365773  0.376629764555105  0.0661879824133251  1.0000
  H   H37       1.0  0.2500141276615224  0.025545461746467983  0.7956298379057503  1.0000
  H   H38       1.0  0.25000880099752015  0.7701986370885553  0.9745517735302941  1.0000
  H   H39       1.0  0.2499804545853479  0.20442481502829687  0.22989821030100194  1.0000
  H   H40       1.0  0.7500191066552733  0.9744453031705478  0.2043756374605081  1.0000
  H   H41       1.0  0.7500014804105959  0.22982662955522673  0.025472482049359285  1.0000
  H   H42       1.0  0.7499819524529628  0.7955987791751656  0.7701537635649915  1.0000
  H   H43       1.0  0.7500059732365827  0.9744756266405121  0.7701309039644144  1.0000
  H   H44       1.0  0.7500135815693768  0.22980769299543627  0.2043815579041492  1.0000
  H   H45       1.0  0.7499803608435088  0.795589571210563  0.025512104219344994  1.0000
  H   H46       1.0  0.2500141446388043  0.02555268566693773  0.22991280010958803  1.0000
  H   H47       1.0  0.2500078486582282  0.7701965112472711  0.7956223198474177  1.0000
  H   H48       1.0  0.24998139047347226  0.2044105680568224  0.9745218840757772  1.0000
  C   C1        1.0  0.4381504519676156  0.9291070848776359  0.4645629770140474  1.0000
  C   C2        1.0  0.4382497559134181  0.5354488923056595  0.07087245516643034  1.0000
  C   C3        1.0  0.4382243054503903  0.5354584665412645  0.4645833901311106  1.0000
  C   C4        1.0  0.9381446230349014  0.07088711674524013  0.5354585876147553  1.0000
  C   C5        1.0  0.9382204184537812  0.46453675339036266  0.9291268797577176  1.0000
  C   C6        1.0  0.938233408969822  0.4645559438315774  0.5354262541614574  1.0000
  C   C7        1.0  0.5617667051923405  0.0708725165566762  0.5354477421972561  1.0000
  C   C8        1.0  0.561801059603198  0.46456183818436625  0.5354304356687863  1.0000
  C   C9        1.0  0.5618359429902071  0.4645339080413608  0.9291113852623242  1.0000
  C   C10       1.0  0.06176335320935781  0.9291267606459714  0.46456521789712457  1.0000
  C   C11       1.0  0.0618090074502504  0.5354576717153564  0.4645658460601254  1.0000
  C   C12       1.0  0.061806913635642495  0.5354457903731317  0.07087379253016485  1.0000
  C   C13       1.0  0.37108000911324973  0.8542806259894608  0.4271484522746364  1.0000
  C   C14       1.0  0.3710981057893505  0.5727458088535117  0.14557924173378464  1.0000
  C   C15       1.0  0.37108207021762507  0.5727604159692634  0.42717173629402794  1.0000
  C   C16       1.0  0.8710736114246133  0.14571029973383548  0.5728763443129098  1.0000
  C   C17       1.0  0.871085682249806  0.42722353573265087  0.854410304891374  1.0000
  C   C18       1.0  0.871094504096874  0.42724698254522064  0.5728401420646136  1.0000
  C   C19       1.0  0.6289099421373977  0.14559124063644907  0.5727852935297975  1.0000
  C   C20       1.0  0.6289124723662242  0.4271275815670282  0.5727494334115804  1.0000
  C   C21       1.0  0.6289161111487047  0.4271056422790524  0.8543074338843654  1.0000
  C   C22       1.0  0.1289078148254603  0.85440936014043  0.42720744192806137  1.0000
  C   C23       1.0  0.12890922048902104  0.5728875143893007  0.42721815480349074  1.0000
  C   C24       1.0  0.1289088604862485  0.572874426975041  0.14564426708727754  1.0000
  C   C25       1.0  0.4693205660482322  0.9647738127212693  0.5541502693186757  1.0000
  C   C26       1.0  0.4694071198939939  0.5893731297854927  0.035206870738754385  1.0000
  C   C27       1.0  0.4693727228091334  0.44585183863387823  0.4106461248846003  1.0000
  C   C28       1.0  0.969312976837877  0.03521548907049521  0.4458632751201037  1.0000
  C   C29       1.0  0.9693792250343377  0.4106101427306684  0.9647890215181292  1.0000
  C   C30       1.0  0.9693847671480499  0.5541623163103966  0.5893615113395896  1.0000
  C   C31       1.0  0.5306065225990579  0.03519987161439546  0.5893691605878716  1.0000
  C   C32       1.0  0.5306377827405413  0.4106321063700663  0.44583756925018764  1.0000
  C   C33       1.0  0.5306867863425923  0.5541408149679158  0.9647811076596966  1.0000
  C   C34       1.0  0.03060146291018381  0.9647972684251374  0.4106482000706179  1.0000
  C   C35       1.0  0.0306495556005402  0.5893870424212652  0.5541648889966526  1.0000
  C   C36       1.0  0.0306569505396297  0.44584184873797034  0.03520810439212599  1.0000
  C   C37       1.0  0.530609707069104  0.035197476118483596  0.4458569217870051  1.0000
  C   C38       1.0  0.5306687419946242  0.41061178834824147  0.9647784041398141  1.0000
  C   C39       1.0  0.530653953709333  0.5541672576664638  0.5893712768336669  1.0000
  C   C40       1.0  0.0306054922185695  0.9648026240571286  0.5541633986057022  1.0000
  C   C41       1.0  0.030636958403974297  0.5893717174093852  0.03521233444856622  1.0000
  C   C42       1.0  0.030662895779563798  0.44585394197392253  0.4106291304661838  1.0000
  C   C43       1.0  0.46932506218232123  0.9647776120580007  0.4106401240692746  1.0000
  C   C44       1.0  0.46937971277815654  0.5893910912599054  0.5541757321243707  1.0000
  C   C45       1.0  0.46940022420086086  0.4458384332696639  0.035199180861404396  1.0000
  C   C46       1.0  0.9693196294729846  0.03522535502774818  0.5893775158328863  1.0000
  C   C47       1.0  0.9693876142993147  0.41062511442713406  0.4458298536000171  1.0000
  C   C48       1.0  0.969365790845771  0.5541438137918536  0.9647977369956778  1.0000
  C   C49       1.0  0.25002463073511194  0.904513661550631  0.8089170598229386  1.0000
  C   C50       1.0  0.2500240256464892  0.9045137309005684  0.09559039821781569  1.0000
  C   C51       1.0  0.24994700768677092  0.1910329977271346  0.0955178309574691  1.0000
  C   C52       1.0  0.750031557251532  0.09547153110816711  0.19106438928770328  1.0000
  C   C53       1.0  0.750010520653092  0.09552149029750719  0.9044321915518765  1.0000
  C   C54       1.0  0.7499517867117403  0.8089679834573433  0.9045176844406555  1.0000
  C   C55       1.0  0.25005005922983514  0.900887771481742  0.6647170786941957  1.0000
  C   C56       1.0  0.25005314669063955  0.763905773832896  0.0991797354923846  1.0000
  C   C57       1.0  0.24989573728348094  0.3352986368729064  0.23614522822293782  1.0000
  C   C58       1.0  0.7500802340144619  0.099098398135162  0.3352728634088251  1.0000
  C   C59       1.0  0.7500246824705956  0.2361173325792621  0.9008348399158096  1.0000
  C   C60       1.0  0.749900096676747  0.6647117977028573  0.7638867568724094  1.0000
  C   C61       1.0  0.750020245494092  0.09912968426015567  0.7638604975009358  1.0000
  C   C62       1.0  0.7500791249664899  0.23609698293505238  0.3352898025067931  1.0000
  C   C63       1.0  0.7498997398084059  0.6647148133880807  0.9008751983672737  1.0000
  C   C64       1.0  0.2500516811875714  0.9008967667555225  0.23616494063679036  1.0000
  C   C65       1.0  0.2500518242766603  0.7638987077831983  0.6647000914406432  1.0000
  C   C66       1.0  0.24989674990952446  0.33528765030740715  0.099152917192967  1.0000
  C   C67       1.0  0.2500415613396711  0.9511759522454288  0.7597507993444951  1.0000
  C   C68       1.0  0.25003006904888286  0.8086744964757175  0.04890671083453666  1.0000
  C   C69       1.0  0.24992403414719896  0.24027033949879248  0.19139263229284612  1.0000
  C   C70       1.0  0.7500572533274976  0.04881265242933352  0.24024499589501863  1.0000
  C   C71       1.0  0.7500103793548972  0.1913544383848988  0.9511150606247654  1.0000
  C   C72       1.0  0.7499321333034531  0.7597442151453394  0.8086482551960329  1.0000
  C   C73       1.0  0.7500204292742582  0.04884548272982408  0.8086129467599293  1.0000
  C   C74       1.0  0.7500477330285309  0.191329049110685  0.24025146017293517  1.0000
  C   C75       1.0  0.7499263569321357  0.7597408694395755  0.9511575685746011  1.0000
  C   C76       1.0  0.2500403486231947  0.9511827198903406  0.191419027477586  1.0000
  C   C77       1.0  0.250031407796385  0.8086702605944186  0.7597454713323658  1.0000
  C   C78       1.0  0.24992521988912136  0.24026182039781224  0.048876239333296156  1.0000
  C   C79       1.0  0.2499949563441888  0.9551601055857122  0.9102791423872391  1.0000
  C   C80       1.0  0.24999518108845822  0.9551648789869633  0.0448725097353986  1.0000
  C   C81       1.0  0.25000487134788324  0.08979953884781373  0.044899491431898794  1.0000
  C   C82       1.0  0.7499910601267674  0.044851471299693926  0.089745777934624  1.0000
  C   C83       1.0  0.7499960817808926  0.044841528446035464  0.9551492917478371  1.0000
  C   C84       1.0  0.750005409881304  0.9102144306399114  0.9551230363495264  1.0000
  N   N1        1.0  0.25007979294343124  0.8090677163116029  0.6180792809518962  1.0000
  N   N2        1.0  0.2500813696732608  0.8090771325328847  0.1909710552767621  1.0000
  N   N3        1.0  0.2498417159953732  0.3819710689585777  0.1909881012372878  1.0000
  N   N4        1.0  0.7501213266732664  0.19093029407636664  0.3819224991340064  1.0000
  N   N5        1.0  0.7500364630141265  0.190936770385669  0.8090479855575767  1.0000
  N   N6        1.0  0.7498459109821453  0.6180376133678467  0.8090373504712574  1.0000
  N   N7        1.0  0.2500175078251559  0.046923627535378036  0.9530064274190054  1.0000
  N   N8        1.0  0.2499585020082336  0.9059935442526384  0.9529990383859187  1.0000
  N   N9        1.0  0.2500181899827254  0.04692638842891481  0.093930827781783  1.0000
  N   N10       1.0  0.7500065461005717  0.9530743879263072  0.0469775924668738  1.0000
  N   N11       1.0  0.7499586564263508  0.09400702179677724  0.04698480103819952  1.0000
  N   N12       1.0  0.7500275053415992  0.9530745872468034  0.90605615151037  1.0000
  O   O1        1.0  0.3447571929377276  0.825638735505443  0.47999062919826924  1.0000
  O   O2        1.0  0.3442549985426949  0.6540072769602505  0.173819816536941  1.0000
  O   O3        1.0  0.3451754684860688  0.5199773355625369  0.34551626754421244  1.0000
  O   O4        1.0  0.8445926486472716  0.1742034426296826  0.519960046738781  1.0000
  O   O5        1.0  0.8443459217485056  0.3459137267111745  0.8260757403269495  1.0000
  O   O6        1.0  0.8452557884896238  0.4799950132046293  0.6545303662881282  1.0000
  O   O7        1.0  0.6554607032134925  0.17406490951547243  0.6541679191167519  1.0000
  O   O8        1.0  0.6547431250635328  0.345418637967555  0.5200237547776114  1.0000
  O   O9        1.0  0.6555967285049675  0.4801170444217748  0.8260067227517638  1.0000
  O   O10       1.0  0.15529264819389973  0.8258222303201423  0.3457419969588217  1.0000
  O   O11       1.0  0.15478912564474007  0.6545737341246253  0.4799360596579588  1.0000
  O   O12       1.0  0.15571536819594198  0.519826150615458  0.17384713974067967  1.0000
  O   O13       1.0  0.6551219289120453  0.17428005244748615  0.5199435618473488  1.0000
  O   O14       1.0  0.6548916069937576  0.3454538077846439  0.8253881184287695  1.0000
  O   O15       1.0  0.6557732835169788  0.48019234341273204  0.6539811954094006  1.0000
  O   O16       1.0  0.15529106291127448  0.8258272858055593  0.48007650853942596  1.0000
  O   O17       1.0  0.15478491900375957  0.6545738299840523  0.17462404203818238  1.0000
  O   O18       1.0  0.15570538567702394  0.5198327098984877  0.34595656558441584  1.0000
  O   O19       1.0  0.3447541877941092  0.8256428593114296  0.3456564112940298  1.0000
  O   O20       1.0  0.34425327014260887  0.6540198740978839  0.48018818719800993  1.0000
  O   O21       1.0  0.3451900086490838  0.5199695538616994  0.17445816509413706  1.0000
  O   O22       1.0  0.8449078164752777  0.17448633947798706  0.6544370447769481  1.0000
  O   O23       1.0  0.8442033738518049  0.3460120987242022  0.5197834783806528  1.0000
  O   O24       1.0  0.8450845119216768  0.4800294837196477  0.8256055915697261  1.0000
  O   O25       1.0  0.25000642338045515  0.6665272570338561  0.3332660729566896  1.0000
  O   O26       1.0  0.7500058275207308  0.3334447215703096  0.6666563716437963  1.0000
