data_image0
_chemical_formula_structural       H10Pb2C16N2O10
_chemical_formula_sum              "H10 Pb2 C16 N2 O10"
_cell_length_a       4.569190932263496
_cell_length_b       9.851709771973168
_cell_length_c       9.964973839743605
_cell_angle_alpha    84.05918483842554
_cell_angle_beta     83.43966848274047
_cell_angle_gamma    77.1283558052395

_space_group_name_H-M_alt    "P 1"
_space_group_IT_number       1

loop_
  _space_group_symop_operation_xyz
  'x, y, z'

loop_
  _atom_site_type_symbol
  _atom_site_label
  _atom_site_symmetry_multiplicity
  _atom_site_fract_x
  _atom_site_fract_y
  _atom_site_fract_z
  _atom_site_occupancy
  H   H1        1.0  0.0525915427866224  0.07757522905460952  0.8694129693119733  1.0000
  H   H2        1.0  0.947406652237163  0.9224738477419195  0.13056657450304235  1.0000
  H   H3        1.0  0.2532605810743648  0.0193061015643536  0.7153557239306068  1.0000
  H   H4        1.0  0.7467527294777484  0.9807616742135536  0.2846135037122153  1.0000
  H   H5        1.0  0.08768643942883614  0.1086085381351936  0.5122398273961792  1.0000
  H   H6        1.0  0.9121997328268279  0.8913265598844619  0.48776203986800937  1.0000
  H   H7        1.0  0.7266923866245918  0.2777510479665821  0.37400553468998504  1.0000
  H   H8        1.0  0.27324965570669946  0.7222048406868923  0.6259811335595485  1.0000
  H   H9        1.0  0.26922259882704946  0.4247675288076422  0.49429656984884934  1.0000
  H   H10       1.0  0.7307330063977632  0.5752125983143302  0.5056972670299587  1.0000
  Pb  Pb1       1.0  0.6410311001884708  0.6662663161301766  0.9026743649406797  1.0000
  Pb  Pb2       1.0  0.3591981989702545  0.3337534863628876  0.09740039956113117  1.0000
  C   C1        1.0  0.9087130393602652  0.9082263153968171  0.7950435613415721  1.0000
  C   C2        1.0  0.0913897872851877  0.09180204615437053  0.2049368554673947  1.0000
  C   C3        1.0  0.028630482212257398  0.04253635506457701  0.7711843871017479  1.0000
  C   C4        1.0  0.9713909791612783  0.9575054460914316  0.22879556948356586  1.0000
  C   C5        1.0  0.8809025397962241  0.17154020029276043  0.5581672597575248  1.0000
  C   C6        1.0  0.11900218859408797  0.8284197813818821  0.44181828383392485  1.0000
  C   C7        1.0  0.6811604085334012  0.26557227560189034  0.483438203577684  1.0000
  C   C8        1.0  0.31874767645916796  0.7343803772071668  0.5165470291648973  1.0000
  C   C9        1.0  0.4289811025533864  0.34827369552590437  0.551706012874881  1.0000
  C   C10       1.0  0.5709506525724705  0.6516959257422885  0.44828864909019467  1.0000
  C   C11       1.0  0.3850575139162018  0.3373948196716229  0.6918304545094358  1.0000
  C   C12       1.0  0.6148856740377087  0.6625884484704727  0.30816479388569457  1.0000
  C   C13       1.0  0.5787954667673817  0.2299913739795727  0.7690492848019089  1.0000
  C   C14       1.0  0.4212014808634522  0.7700298583434133  0.2309548748438246  1.0000
  C   C15       1.0  0.14436340672876474  0.4433100791750064  0.7603175791925948  1.0000
  C   C16       1.0  0.8555889936651012  0.5566610802946244  0.23970267494227215  1.0000
  N   N1        1.0  0.8303098215508627  0.15323915428130164  0.6952584166522797  1.0000
  N   N2        1.0  0.16964194006430947  0.8467681368867022  0.3047322993529278  1.0000
  O   O1        1.0  0.0354626104679525  0.8141458211151402  0.8816274726665299  1.0000
  O   O2        1.0  0.9647130418918766  0.18589615515773525  0.11834457450800073  1.0000
  O   O3        1.0  0.6976965952940332  0.8934663657779325  0.7300573338189906  1.0000
  O   O4        1.0  0.3023831035254219  0.10654766247714782  0.2699444160922866  1.0000
  O   O5        1.0  0.5389180446615356  0.1946971946796694  0.8940607081807458  1.0000
  O   O6        1.0  0.46117359033080857  0.8053747711755649  0.10595919695967378  1.0000
  O   O7        1.0  0.19004062099706692  0.48190503061403706  0.8754170206424233  1.0000
  O   O8        1.0  0.8099750446974097  0.5180712877767066  0.1245915057303435  1.0000
  O   O9        1.0  0.9118533119586162  0.4986494693779521  0.7013015070483632  1.0000
  O   O10       1.0  0.08803468444104115  0.5012928136880389  0.2987515600948639  1.0000
