data_image0
_chemical_formula_structural       H56Ru4C76S2N8O16
_chemical_formula_sum              "H56 Ru4 C76 S2 N8 O16"
_cell_length_a       11.602886853155583
_cell_length_b       15.402695657483392
_cell_length_c       15.66724708957002
_cell_angle_alpha    95.8462415966659
_cell_angle_beta     108.6571793572827
_cell_angle_gamma    107.74996114753439

_space_group_name_H-M_alt    "P 1"
_space_group_IT_number       1

loop_
  _space_group_symop_operation_xyz
  'x, y, z'

loop_
  _atom_site_type_symbol
  _atom_site_label
  _atom_site_symmetry_multiplicity
  _atom_site_fract_x
  _atom_site_fract_y
  _atom_site_fract_z
  _atom_site_occupancy
  H   H1        1.0  0.6814601956532015  0.7973317254767947  0.21018448748857557  1.0000
  H   H2        1.0  0.3185288484586478  0.2026631619737174  0.7898054692384233  1.0000
  H   H3        1.0  0.6919688387862307  0.9575104503130304  0.26098690142725167  1.0000
  H   H4        1.0  0.30801466398603583  0.042478765097051494  0.7390196653512645  1.0000
  H   H5        1.0  0.4910399767989233  0.0490645020308378  0.21906236518282174  1.0000
  H   H6        1.0  0.5089473580206559  0.9509379974200414  0.7809432905120913  1.0000
  H   H7        1.0  0.49895302728248214  0.08040676211822272  0.11429908319334454  1.0000
  H   H8        1.0  0.5010413524269737  0.919586038386683  0.8856944769220616  1.0000
  H   H9        1.0  0.6442381060509914  0.09811962679612658  0.20993646385618797  1.0000
  H   H10       1.0  0.3557576264102948  0.9018703863899873  0.7900571294305434  1.0000
  H   H11       1.0  0.3838693226976063  0.9279274113532027  0.005275431636263787  1.0000
  H   H12       1.0  0.6161030264639819  0.07206316512758798  0.994728629794302  1.0000
  H   H13       1.0  0.3762083192723936  0.7677564403667462  0.9521100378571246  1.0000
  H   H14       1.0  0.6237729408733514  0.23223559175875863  0.0478879900715938  1.0000
  H   H15       1.0  0.3154759662652964  0.4700710569618635  0.22824540946551503  1.0000
  H   H16       1.0  0.6845417869223951  0.5299322473557311  0.7717643537342764  1.0000
  H   H17       1.0  0.13425255808053294  0.44734259020290784  0.28644663207980153  1.0000
  H   H18       1.0  0.8657544783155159  0.5526537366035454  0.713550932729454  1.0000
  H   H19       1.0  0.907518588309969  0.437174650379255  0.2540720448750802  1.0000
  H   H20       1.0  0.09246857992797426  0.5628090676049807  0.745915675588577  1.0000
  H   H21       1.0  0.84011268074849  0.31938808211543096  0.19313304471660317  1.0000
  H   H22       1.0  0.1598868414026384  0.6806096096591361  0.8068647933083068  1.0000
  H   H23       1.0  0.7916116280672725  0.4049999649659029  0.13931671748152746  1.0000
  H   H24       1.0  0.2083937679473635  0.5949893606028313  0.8606842034284552  1.0000
  H   H25       1.0  0.8587652948012732  0.3747500716499629  0.00676527992726503  1.0000
  H   H26       1.0  0.14125427238543153  0.6252476849474319  0.993236681572412  1.0000
  H   H27       1.0  0.04054870434258365  0.399573494606571  0.9488365187193747  1.0000
  H   H28       1.0  0.9594560812772528  0.6004256365189918  0.051155695418685754  1.0000
  H   H29       1.0  0.8854129668326393  0.9119217180548418  0.1717558516967371  1.0000
  H   H30       1.0  0.11458839046485987  0.08808154021291159  0.8282487407775815  1.0000
  H   H31       1.0  0.8452488833649312  0.9461034264491205  0.015382752476938282  1.0000
  H   H32       1.0  0.1547455961614546  0.05389143089815461  0.9846206178134336  1.0000
  H   H33       1.0  0.810060336440145  0.058352353981241806  0.9156010551725371  1.0000
  H   H34       1.0  0.18993299652985488  0.9416383323036754  0.08439650633965097  1.0000
  H   H35       1.0  0.9763631126630584  0.1302476555055776  0.9538068625204656  1.0000
  H   H36       1.0  0.023631707104392795  0.8697423523674743  0.04618715198787261  1.0000
  H   H37       1.0  0.8615673016947981  0.1796356842072342  0.9656763105813152  1.0000
  H   H38       1.0  0.1384220500593543  0.8203543041837663  0.034317043078061674  1.0000
  H   H39       1.0  0.980724824150812  0.2400133925549142  0.13517548946348504  1.0000
  H   H40       1.0  0.01926842854059887  0.7599808076302779  0.864816032952042  1.0000
  H   H41       1.0  0.018173329509501502  0.2054277963305395  0.2914120361107066  1.0000
  H   H42       1.0  0.9818314756486684  0.7945769055376743  0.7085839491056516  1.0000
  H   H43       1.0  0.5347740450165687  0.864395702922593  0.3486146312461427  1.0000
  H   H44       1.0  0.4652253626272723  0.13560545068769872  0.651390558032247  1.0000
  H   H45       1.0  0.3157272427145585  0.8766267253907927  0.2868952853467802  1.0000
  H   H46       1.0  0.6842720455531007  0.12337234162595219  0.7131077453852938  1.0000
  H   H47       1.0  0.17209034178145546  0.9637305521271172  0.30971424772653217  1.0000
  H   H48       1.0  0.8279042701606156  0.0362664116478228  0.6902861800243867  1.0000
  H   H49       1.0  0.2307631575897275  0.046782507934317194  0.24905437534445696  1.0000
  H   H50       1.0  0.7692380835914676  0.9532186686984191  0.750946783312109  1.0000
  H   H51       1.0  0.24258332287311649  0.0851933483847063  0.3628524425388519  1.0000
  H   H52       1.0  0.7574158688165723  0.9148092077396723  0.6371509254537668  1.0000
  H   H53       1.0  0.477906520792409  0.1641606027425198  0.4338539273114818  1.0000
  H   H54       1.0  0.5220894618098909  0.8358391419770185  0.566150942324782  1.0000
  H   H55       1.0  0.6974054965644784  0.15182890702185864  0.4946386873638743  1.0000
  H   H56       1.0  0.302592316315291  0.8481708557615946  0.5053634269220024  1.0000
  Ru  Ru1       1.0  0.5685660641951173  0.5040868028121608  0.07387673081681356  1.0000
  Ru  Ru2       1.0  0.4314470452657417  0.4959144478489249  0.9261176766874113  1.0000
  Ru  Ru3       1.0  0.956083548129321  0.9202153183608174  0.46699296863744866  1.0000
  Ru  Ru4       1.0  0.04391919775772381  0.0797907481234432  0.5330090517292874  1.0000
  C   C1        1.0  0.7632614848825696  0.5530923736720438  0.2933250769728487  1.0000
  C   C2        1.0  0.2367464262652703  0.44691861879158523  0.7066722944033044  1.0000
  C   C3        1.0  0.8547721247945929  0.5973879449854421  0.3821479751680098  1.0000
  C   C4        1.0  0.14524073240001903  0.40262937101311264  0.6178442012032335  1.0000
  C   C5        1.0  0.8779009222676704  0.6928150052052044  0.40268911069587415  1.0000
  C   C6        1.0  0.12211897653602925  0.3071981478803138  0.5973036680742464  1.0000
  C   C7        1.0  0.9240765208446078  0.5501647515894206  0.44130934727003507  1.0000
  C   C8        1.0  0.0759406854740305  0.44985953695926634  0.558689686778635  1.0000
  C   C9        1.0  0.8822360942426144  0.45101131476022255  0.4262351188694422  1.0000
  C   C10       1.0  0.11778543025213391  0.5490143582411093  0.5737714652283896  1.0000
  C   C11       1.0  0.042994833909013125  0.5977960477346825  0.5176764340466631  1.0000
  C   C12       1.0  0.9570237463297246  0.40223102671713906  0.4823257666159007  1.0000
  C   C13       1.0  0.5218053705503536  0.6761401573659143  0.04777749568597756  1.0000
  C   C14       1.0  0.4782695025565431  0.32387744802224466  0.9522045290518474  1.0000
  C   C15       1.0  0.5279358108490442  0.7720202842190319  0.0776622338937472  1.0000
  C   C16       1.0  0.47200505575003854  0.22794708754447157  0.9223517505477683  1.0000
  C   C17       1.0  0.6164586307833845  0.8260551896949552  0.165182203050925  1.0000
  C   C18       1.0  0.38351986033296004  0.1739312383938625  0.8348177809143632  1.0000
  C   C19       1.0  0.6215648409887748  0.916004049118044  0.19356257759070414  1.0000
  C   C20       1.0  0.3784481605054708  0.0839951323043451  0.8064252079171722  1.0000
  C   C21       1.0  0.5380707501137535  0.9542849170001517  0.13736480694787892  1.0000
  C   C22       1.0  0.46192155076531793  0.0457092183696304  0.8626424399465547  1.0000
  C   C23       1.0  0.5432317409642023  0.05069046304245719  0.1712567626734368  1.0000
  C   C24       1.0  0.4567562384788745  0.9493022829161576  0.8287442094432718  1.0000
  C   C25       1.0  0.4493846380439096  0.8994336260614516  0.05027585422015325  1.0000
  C   C26       1.0  0.5506281784440858  0.10057254597253261  0.9497094176302096  1.0000
  C   C27       1.0  0.44457460050676184  0.8096345329932504  0.02013019032423808  1.0000
  C   C28       1.0  0.5554068707033223  0.19035608918037641  0.9798715717974101  1.0000
  C   C29       1.0  0.2978601758505519  0.4535339152655311  0.05216964095226468  1.0000
  C   C30       1.0  0.7021342233763335  0.5464699969734995  0.9478391129483935  1.0000
  C   C31       1.0  0.18871267772799172  0.43526671151416013  0.08501962096086399  1.0000
  C   C32       1.0  0.811291326437228  0.5647198008795369  0.9149851473281454  1.0000
  C   C33       1.0  0.2149192122898143  0.448567263949009  0.1803470200298633  1.0000
  C   C34       1.0  0.7850865434833095  0.5514283238796267  0.819659738883338  1.0000
  C   C35       1.0  0.11335706445141373  0.435696891407261  0.21224912139468433  1.0000
  C   C36       1.0  0.8866432901149535  0.5643043195806497  0.7877422563119649  1.0000
  C   C37       1.0  0.9837641680119376  0.4083717892578207  0.15048253244216173  1.0000
  C   C38       1.0  0.016236131157455737  0.5916237964436136  0.8495191021720314  1.0000
  C   C39       1.0  0.8750536140610591  0.3922173698954979  0.18572866507833638  1.0000
  C   C40       1.0  0.12495592981380095  0.6077748120593752  0.8142601307948707  1.0000
  C   C41       1.0  0.958847438930178  0.39478170030358944  0.05536419237572688  1.0000
  C   C42       1.0  0.041159252334985456  0.6052194685392893  0.9446446411227283  1.0000
  C   C43       1.0  0.05983164520359452  0.4083369501780822  0.022581653945025003  1.0000
  C   C44       1.0  0.9401620214668043  0.5916544177070264  0.977420525034965  1.0000
  C   C45       1.0  0.9755502113874783  0.03604692112856609  0.33435204793814677  1.0000
  C   C46       1.0  0.02444889513380136  0.9639591414582965  0.6656471938649772  1.0000
  C   C47       1.0  0.9546169388591534  0.056462184772456715  0.2415679362572119  1.0000
  C   C48       1.0  0.04538713372162576  0.9435355137333092  0.7584328967454324  1.0000
  C   C49       1.0  0.9063902536375676  0.9837180110327209  0.16326402849820443  1.0000
  C   C50       1.0  0.09360916215596399  0.0162831549738911  0.8367379726015824  1.0000
  C   C51       1.0  0.8841711435640887  0.0033346117879702003  0.07587364872656364  1.0000
  C   C52       1.0  0.1158218687241048  0.9966609537223478  0.9241256169390082  1.0000
  C   C53       1.0  0.910074039871162  0.09558494465257888  0.06403635693904865  1.0000
  C   C54       1.0  0.08992334110030953  0.9044176231590555  0.9359621147753  1.0000
  C   C55       1.0  0.887599024648324  0.1169752577799485  0.9698186657650535  1.0000
  C   C56       1.0  0.11239317478388242  0.8830168182681958  0.030179408590143453  1.0000
  C   C57       1.0  0.9592554520446583  0.16787930338398377  0.14294636673582056  1.0000
  C   C58       1.0  0.04074135484410847  0.8321184071610971  0.8570438080538236  1.0000
  C   C59       1.0  0.9810041149171197  0.14903651764265644  0.23058043823861846  1.0000
  C   C60       1.0  0.01900112214935499  0.8509653791973831  0.7694191895492748  1.0000
  C   C61       1.0  0.7612311186437707  0.0023331572556130995  0.45889733386901804  1.0000
  C   C62       1.0  0.2387699016934519  0.9976694144534193  0.5411039164089428  1.0000
  C   C63       1.0  0.6298734731889581  0.007693213201051202  0.42488362781367056  1.0000
  C   C64       1.0  0.37012776636229466  0.9923079609524237  0.5751181684786173  1.0000
  C   C65       1.0  0.5216102694624779  0.9299375214828061  0.36665080608064915  1.0000
  C   C66       1.0  0.4783842426417521  0.0700629264412385  0.6333512342022514  1.0000
  C   C67       1.0  0.39949550769957637  0.9373531257956457  0.332122390338  1.0000
  C   C68       1.0  0.6005052820140547  0.0626508261140941  0.6678827773756807  1.0000
  C   C69       1.0  0.3817258309569097  0.0216529076547189  0.3550480114477991  1.0000
  C   C70       1.0  0.6182701663148293  0.9783468593782061  0.6449511194669738  1.0000
  C   C71       1.0  0.24997447709036177  0.029563995251223198  0.31757691048009906  1.0000
  C   C72       1.0  0.7500251546573153  0.9704357682413016  0.6824269119054518  1.0000
  C   C73       1.0  0.49049020083301537  0.09860800244206297  0.41403418670084585  1.0000
  C   C74       1.0  0.5095060091329984  0.9013903571182382  0.5859680407711351  1.0000
  C   C75       1.0  0.6131688358054816  0.09217010951448398  0.4485349578215503  1.0000
  C   C76       1.0  0.3868232572691283  0.9078254407657055  0.5514672796085092  1.0000
  S   S1        1.0  0.7635043590200041  0.2872106979664083  0.3699988222701335  1.0000
  S   S2        1.0  0.23651177122029318  0.7128114317355242  0.630015690618279  1.0000
  N   N1        1.0  0.6916740056184877  0.5229617712147389  0.21621802889740838  1.0000
  N   N2        1.0  0.30834928238903814  0.4770471952262342  0.7837776747937466  1.0000
  N   N3        1.0  0.8871525703454141  0.7715804306146553  0.4133100305506119  1.0000
  N   N4        1.0  0.11283392999643378  0.2284277235193457  0.5866768625582707  1.0000
  N   N5        1.0  0.7691307460521839  0.39141964121059664  0.36035477160567786  1.0000
  N   N6        1.0  0.23087855529422546  0.6085997029402819  0.6396508127341176  1.0000
  N   N7        1.0  0.8978629459006483  0.3080335165014745  0.45562805453061356  1.0000
  N   N8        1.0  0.10215526803893488  0.6919928267648602  0.544382281378567  1.0000
  O   O1        1.0  0.5864761943442005  0.6401378542709609  0.107330540425842  1.0000
  O   O2        1.0  0.4134940532097033  0.3598429403820447  0.892673289269936  1.0000
  O   O3        1.0  0.45068948000611897  0.6313674170698674  0.9637748236586743  1.0000
  O   O4        1.0  0.5493001940388638  0.36862323556647425  0.03622761091855147  1.0000
  O   O5        1.0  0.4111609505700003  0.4656744946686758  0.11102221472485495  1.0000
  O   O6        1.0  0.5888326949321224  0.5343112999945204  0.8889768308125522  1.0000
  O   O7        1.0  0.2763281079722049  0.4583819347818832  0.967231307728447  1.0000
  O   O8        1.0  0.7236646834511049  0.5416205667962045  0.03277947226547436  1.0000
  O   O9        1.0  0.941296921759637  0.9499458705862835  0.34106176674376326  1.0000
  O   O10       1.0  0.0587063933412111  0.05005950473525899  0.6589390407478886  1.0000
  O   O11       1.0  0.02652984287666981  0.1048159556918051  0.404844961450621  1.0000
  O   O12       1.0  0.9734762086757344  0.8951894330896624  0.5951552200119322  1.0000
  O   O13       1.0  0.7735956272564691  0.923107085819403  0.4393090812048042  1.0000
  O   O14       1.0  0.22640699110470316  0.07689688167499042  0.5606939687942256  1.0000
  O   O15       1.0  0.8587212561890141  0.07773309747367561  0.5046324501946555  1.0000
  O   O16       1.0  0.14127942392806156  0.9222687827181063  0.4953667331583914  1.0000
