data_image0
_chemical_formula_structural       MnZn2H36C72N8O12
_chemical_formula_sum              "Mn1 Zn2 H36 C72 N8 O12"
_cell_length_a       13.83717630073301
_cell_length_b       13.837782708143981
_cell_length_c       14.150037270498403
_cell_angle_alpha    112.84191521524976
_cell_angle_beta     110.09088323295853
_cell_angle_gamma    104.58722086013542

_space_group_name_H-M_alt    "P 1"
_space_group_IT_number       1

loop_
  _space_group_symop_operation_xyz
  'x, y, z'

loop_
  _atom_site_type_symbol
  _atom_site_label
  _atom_site_symmetry_multiplicity
  _atom_site_fract_x
  _atom_site_fract_y
  _atom_site_fract_z
  _atom_site_occupancy
  Mn  Mn1       1.0  0.4999981639374694  0.5000016865870406  3.6411457315624207e-06  1.0000
  Zn  Zn1       1.0  0.47935472574339144  0.09390514770915809  0.5731460829551479  1.0000
  Zn  Zn2       1.0  0.5206425185733821  0.906088684862013  0.4268474023146849  1.0000
  H   H1        1.0  0.12061941624270373  0.22960945997930074  0.9481796717356513  1.0000
  H   H2        1.0  0.2815979570927496  0.1724552766047154  0.05192282882650548  1.0000
  H   H3        1.0  0.8793784306631737  0.770390641433437  0.05182178016143255  1.0000
  H   H4        1.0  0.7184028773000788  0.8275519833729061  0.9480918029186324  1.0000
  H   H5        1.0  0.11627095396526234  0.5243570383975753  0.8003639538489152  1.0000
  H   H6        1.0  0.7241070639286349  0.3159379351115348  0.1995660240503553  1.0000
  H   H7        1.0  0.8837240584409757  0.47564068525726827  0.1996299816307925  1.0000
  H   H8        1.0  0.27589513767539126  0.6840724025880859  0.8004420653794354  1.0000
  H   H9        1.0  0.07564332231503103  0.19016404719135246  0.7228486137526956  1.0000
  H   H10       1.0  0.4675971083991826  0.35297703824600296  0.2772185356356474  1.0000
  H   H11       1.0  0.9243534418288778  0.8098407558799469  0.2771428735378906  1.0000
  H   H12       1.0  0.532428052183036  0.6470393645619766  0.7228030611641642  1.0000
  H   H13       1.0  0.8622700278911638  0.08379477900628966  0.6127406221659584  1.0000
  H   H14       1.0  0.4720736185376282  0.2502849252236885  0.3878953695781178  1.0000
  H   H15       1.0  0.13772685785609443  0.9162097028827816  0.3872447149712386  1.0000
  H   H16       1.0  0.5279401549115335  0.749721426756672  0.6121157981189143  1.0000
  H   H17       1.0  0.8446133864604947  0.38640667588713745  0.8373064050163562  1.0000
  H   H18       1.0  0.5498453415419959  0.007770887042966053  0.16325354195875963  1.0000
  H   H19       1.0  0.15538020713577788  0.6135874374459577  0.16269042190286603  1.0000
  H   H20       1.0  0.45014805124376506  0.9922259315804282  0.8367386696032708  1.0000
  H   H21       1.0  0.05982388841007231  0.4951764022515519  0.9485634722670822  1.0000
  H   H22       1.0  0.546812386234862  0.11129547228936333  0.051569581606592946  1.0000
  H   H23       1.0  0.9401713180683942  0.5048201392428098  0.051437799472559026  1.0000
  H   H24       1.0  0.4531851039104994  0.8887120954335616  0.9484290113546833  1.0000
  H   H25       1.0  0.4638380357618317  0.2953139917423826  0.7595815315177532  1.0000
  H   H26       1.0  0.5361644003440559  0.7046860250178355  0.24041756875551096  1.0000
  H   H27       1.0  0.34400794709306143  0.4053912835917686  0.7498660337846275  1.0000
  H   H28       1.0  0.6559993393269608  0.5946161544003347  0.25013566994759606  1.0000
  H   H29       1.0  0.17735625298994506  0.1947921150734615  0.3709206901406218  1.0000
  H   H30       1.0  0.8226368344764908  0.8051983177473974  0.6290781928057639  1.0000
  H   H31       1.0  0.3036004038587379  0.09329012380793243  0.3957177368188169  1.0000
  H   H32       1.0  0.6963927352064658  0.9067008416126826  0.6042847970034017  1.0000
  H   H33       1.0  0.2644140937463816  0.6512192203699811  0.5159180435901047  1.0000
  H   H34       1.0  0.13451381469344173  0.7477744628765989  0.4827463574798471  1.0000
  H   H35       1.0  0.7355977444067179  0.3487877299216466  0.4840902140826912  1.0000
  H   H36       1.0  0.8654895217697245  0.2522221711336242  0.5172446401376617  1.0000
  C   C1        1.0  0.21085979553357953  0.26565292275140007  0.973575578449285  1.0000
  C   C2        1.0  0.2921634233913153  0.23723452827892547  0.02643632466499916  1.0000
  C   C3        1.0  0.7891389449913077  0.734345319041161  0.026420491694785955  1.0000
  C   C4        1.0  0.7078309852721106  0.7627632853535077  0.9735623532363532  1.0000
  C   C5        1.0  0.26645592406514124  0.355644324418975  0.9567443624851392  1.0000
  C   C6        1.0  0.3989370698700085  0.30962479170958807  0.04318029239538394  1.0000
  C   C7        1.0  0.7335418454425805  0.6443549780941283  0.04325161309819227  1.0000
  C   C8        1.0  0.60106378473764  0.6903778988785803  0.9568261766415275  1.0000
  C   C9        1.0  0.209502434838427  0.4065509800662069  0.9048551728570187  1.0000
  C   C10       1.0  0.5017649868324696  0.30460005431861953  0.09508369677397609  1.0000
  C   C11       1.0  0.790497455490325  0.5934512481126859  0.09514848071639641  1.0000
  C   C12       1.0  0.4982357443628231  0.6954061404594895  0.9049236332194893  1.0000
  C   C13       1.0  0.26515933218513504  0.49952048794696674  0.8958730123951637  1.0000
  C   C14       1.0  0.6037194187608108  0.36929987708372636  0.10410892599809769  1.0000
  C   C15       1.0  0.7348414898848574  0.5004834594711414  0.10413435210656283  1.0000
  C   C16       1.0  0.39628176203627413  0.6307078057289672  0.8959007071919344  1.0000
  C   C17       1.0  0.20764639954762018  0.549278505151804  0.8380370248376322  1.0000
  C   C18       1.0  0.7113525859693582  0.3696775259353161  0.16195018457080582  1.0000
  C   C19       1.0  0.7923522556871418  0.45072681969009665  0.1619689989443245  1.0000
  C   C20       1.0  0.2886497065093677  0.6303305644043035  0.8380579393672462  1.0000
  C   C21       1.0  0.08190315859545892  0.3489662970537637  0.844290611686823  1.0000
  C   C22       1.0  0.5048796333286276  0.2377041304518883  0.1558002572753381  1.0000
  C   C23       1.0  0.9180951121128234  0.6510350260936735  0.15571131796890844  1.0000
  C   C24       1.0  0.495122499424511  0.7623007022105598  0.844204924134786  1.0000
  C   C25       1.0  0.02531801674348319  0.23259913808761454  0.7495639725789471  1.0000
  C   C26       1.0  0.48339454462367837  0.2759875823278293  0.2506153768534745  1.0000
  C   C27       1.0  0.9746825596555057  0.7674054588912186  0.2504324047870126  1.0000
  C   C28       1.0  0.5166159761080066  0.7240200058492761  0.7493977848136806  1.0000
  C   C29       1.0  0.9063606052519049  0.17318576266939792  0.6877902946211448  1.0000
  C   C30       1.0  0.4861480550203369  0.21908108838380974  0.3126939970545521  1.0000
  C   C31       1.0  0.09363448948175791  0.8268144197629823  0.31220110707274523  1.0000
  C   C32       1.0  0.5138596895487453  0.7809231315053395  0.6873125781683241  1.0000
  C   C33       1.0  0.8407864338331308  0.228041209425129  0.719602186865039  1.0000
  C   C34       1.0  0.5092529275327848  0.12172921635837496  0.2809904238468944  1.0000
  C   C35       1.0  0.15921173367761543  0.7719590485227954  0.28039244103902655  1.0000
  C   C36       1.0  0.49074953437249047  0.8782710667017284  0.7190105018642824  1.0000
  C   C37       1.0  0.8965080436503854  0.3443811684746194  0.8136611328853646  1.0000
  C   C38       1.0  0.5313494848469702  0.08324823318195482  0.18680707279044384  1.0000
  C   C39       1.0  0.10349009313169681  0.6556171632955242  0.1863396796803442  1.0000
  C   C40       1.0  0.46864500614388754  0.9167520392280155  0.813189071325091  1.0000
  C   C41       1.0  0.01630842308094327  0.40463082193819144  0.8752609869883584  1.0000
  C   C42       1.0  0.5296511984058085  0.14119330133596003  0.12492969389559497  1.0000
  C   C43       1.0  0.9836884355556492  0.5953653677576796  0.12474111320414492  1.0000
  C   C44       1.0  0.47034754589465433  0.858812959153653  0.875071075197802  1.0000
  C   C45       1.0  0.7124458139061856  0.15894442761793212  0.6503947738373838  1.0000
  C   C46       1.0  0.5097747100497259  0.06298773529233156  0.3506096549147486  1.0000
  C   C47       1.0  0.2875520034247288  0.8410473887978754  0.3496001536724549  1.0000
  C   C48       1.0  0.49022065056975356  0.9370072281898629  0.6493845712066815  1.0000
  C   C49       1.0  0.39918994996511964  0.27603937654036775  0.6753228647373533  1.0000
  C   C50       1.0  0.6008114327961706  0.723959242162863  0.32467867476097456  1.0000
  C   C51       1.0  0.3330238756637911  0.33668113057797194  0.6697957812173668  1.0000
  C   C52       1.0  0.6669754311369757  0.6633166181890502  0.3302044520694595  1.0000
  C   C53       1.0  0.2523050254134347  0.307238976781683  0.5592464945105249  1.0000
  C   C54       1.0  0.7476958752084074  0.6927594107169028  0.44075363725606553  1.0000
  C   C55       1.0  0.2399599595601671  0.21909082470409655  0.4582123843043745  1.0000
  C   C56       1.0  0.760031841213511  0.7809021721800136  0.5417852179747128  1.0000
  C   C57       1.0  0.3092101416346864  0.16289949025272674  0.4712864240565934  1.0000
  C   C58       1.0  0.690788600699193  0.8370955685321207  0.5287149352843057  1.0000
  C   C59       1.0  0.22187343313746058  0.4630331373061978  0.5355044784114326  1.0000
  C   C60       1.0  0.9271136640226983  0.6859917009641306  0.46403670389457813  1.0000
  C   C61       1.0  0.7781345810930206  0.5369738823298108  0.4645096201883092  1.0000
  C   C62       1.0  0.07288320250586373  0.31399660678276575  0.535949966346287  1.0000
  C   C63       1.0  0.18029048072464338  0.6174445210406531  0.5085707735324546  1.0000
  C   C64       1.0  0.10830379279210692  0.6711611392229103  0.4903821509301096  1.0000
  C   C65       1.0  0.8197145785565284  0.3825540832005315  0.4914292497544108  1.0000
  C   C66       1.0  0.8916995762087155  0.3288342379573664  0.509607951222577  1.0000
  C   C67       1.0  0.14562645554981665  0.5194192949453154  0.5182851493740372  1.0000
  C   C68       1.0  0.0007576631039186673  0.6269691431137121  0.4811390028134142  1.0000
  C   C69       1.0  0.8543803707545692  0.48058015944496907  0.48171227311503617  1.0000
  C   C70       1.0  0.9992374087930571  0.3730212311919129  0.518843153590495  1.0000
  C   C71       1.0  0.036888226498135224  0.4728121851030522  0.5096593395029174  1.0000
  C   C72       1.0  0.9631100521021239  0.5271812560954101  0.49032716020117534  1.0000
  N   N1        1.0  0.38265491774971155  0.3825780817152449  0.999931787524602  1.0000
  N   N2        1.0  0.6173442981763486  0.6174219144117785  6.841125395604152e-05  1.0000
  N   N3        1.0  0.38220503189417354  0.5506873180683558  0.932922653853673  1.0000
  N   N4        1.0  0.6177945876194856  0.44931846918282065  0.06708618539177291  1.0000
  N   N5        1.0  0.3875551610071497  0.19079705494827687  0.5780054156433038  1.0000
  N   N6        1.0  0.61244147282855  0.8091983907303019  0.4219955329509089  1.0000
  N   N7        1.0  0.18135974610262903  0.36658148692315967  0.5477614536608115  1.0000
  N   N8        1.0  0.8186407374550839  0.6334141557109092  0.4522354794443827  1.0000
  O   O1        1.0  0.6515321941174647  0.20526394504793893  0.6819982645405884  1.0000
  O   O2        1.0  0.5242397519696738  0.9703161584924376  0.3189526644957255  1.0000
  O   O3        1.0  0.34846417005683605  0.7947287008837733  0.3179951606767658  1.0000
  O   O4        1.0  0.47575901435459395  0.029682349600008633  0.6810452310862657  1.0000
  O   O5        1.0  0.6741249913143648  0.05670943469826272  0.5637344741660681  1.0000
  O   O6        1.0  0.494564830675472  0.11174293308957313  0.43744485162685715  1.0000
  O   O7        1.0  0.3258733664930417  0.9432816223921207  0.4362627910486052  1.0000
  O   O8        1.0  0.5054172198377387  0.8882458904357834  0.562543302610969  1.0000
  O   O9        1.0  0.314729213207805  0.4934882714662905  0.5377642592350682  1.0000
  O   O10       1.0  0.9551515663154646  0.7764551828042272  0.4615283240398966  1.0000
  O   O11       1.0  0.6852894370101765  0.5065289438572692  0.4622693356045673  1.0000
  O   O12       1.0  0.044843268457768135  0.22353113492459192  0.538445413522318  1.0000
