data_image0
_chemical_formula_structural       Cu4H44C60N8
_chemical_formula_sum              "Cu4 H44 C60 N8"
_cell_length_a       9.116735906672808
_cell_length_b       11.366332137860688
_cell_length_c       12.721963585159678
_cell_angle_alpha    116.56530682753422
_cell_angle_beta     94.4027550554077
_cell_angle_gamma    90.02789460625053

_space_group_name_H-M_alt    "P 1"
_space_group_IT_number       1

loop_
  _space_group_symop_operation_xyz
  'x, y, z'

loop_
  _atom_site_type_symbol
  _atom_site_label
  _atom_site_symmetry_multiplicity
  _atom_site_fract_x
  _atom_site_fract_y
  _atom_site_fract_z
  _atom_site_occupancy
  Cu  Cu1       1.0  0.7633974545751698  0.37399942343866854  0.5009389969473759  1.0000
  Cu  Cu2       1.0  0.7368334712514226  0.8730300008786357  0.49903259475490813  1.0000
  Cu  Cu3       1.0  0.2366014382750379  0.6260035876660837  0.49906031365208753  1.0000
  Cu  Cu4       1.0  0.2631720438267351  0.12697212374972375  0.5009682027575835  1.0000
  H   H1        1.0  0.034829748652256916  0.7940984303508645  0.05935931984313216  1.0000
  H   H2        1.0  0.46441380011600586  0.7347002545860165  0.9400212303420831  1.0000
  H   H3        1.0  0.9651689714968937  0.20589964593372662  0.940637277350902  1.0000
  H   H4        1.0  0.535582971723791  0.265303744691721  0.05997995438354311  1.0000
  H   H5        1.0  0.9030902132837112  0.5768871397611904  0.983673596108666  1.0000
  H   H6        1.0  0.596053780480787  0.5936116783025156  0.015998036865184424  1.0000
  H   H7        1.0  0.09690622671951839  0.42310990145092836  0.016320936409151436  1.0000
  H   H8        1.0  0.4039419956529855  0.4063933345723427  0.9840058622464055  1.0000
  H   H9        1.0  0.8237529507642591  0.49468345311814244  0.12221611649515304  1.0000
  H   H10       1.0  0.67612722233806  0.372982736323209  0.8777081644140523  1.0000
  H   H11       1.0  0.17624695376357377  0.5053166170389504  0.877782089271939  1.0000
  H   H12       1.0  0.32386636918914746  0.6270203257513671  0.12229724897609633  1.0000
  H   H13       1.0  0.07685259298192897  0.9351406618840488  0.27754034813685285  1.0000
  H   H14       1.0  0.4230588270168525  0.6572359522438235  0.7218083087244836  1.0000
  H   H15       1.0  0.923151637656332  0.06485941407471071  0.7224556703134511  1.0000
  H   H16       1.0  0.5769433871940634  0.3427661372099209  0.2781923458754605  1.0000
  H   H17       1.0  0.9980491041247104  0.8533462261903823  0.41527778617857797  1.0000
  H   H18       1.0  0.502195981716305  0.43764532452587457  0.5843456227283639  1.0000
  H   H19       1.0  0.0019529259353845026  0.14665382631863375  0.584718136996699  1.0000
  H   H20       1.0  0.4978040774251938  0.5623557983517672  0.41565693030676704  1.0000
  H   H21       1.0  0.7809789000425837  0.24452008755115168  0.2958948406749116  1.0000
  H   H22       1.0  0.7189609546503347  0.9486617177398744  0.7041866539592264  1.0000
  H   H23       1.0  0.2190221047743393  0.7554799943308126  0.704103412729694  1.0000
  H   H24       1.0  0.281037924634326  0.0513383817901669  0.2958138820371943  1.0000
  H   H25       1.0  0.1167199235609431  0.4786821272685558  0.24655130219243662  1.0000
  H   H26       1.0  0.383794537098673  0.23243146318472446  0.7534148413675652  1.0000
  H   H27       1.0  0.8832809380920777  0.5213140040174267  0.7534446219633749  1.0000
  H   H28       1.0  0.616207772651606  0.7675697105412026  0.2465893921871682  1.0000
  H   H29       1.0  0.23616235623953938  0.27653402649600173  0.1182749982745861  1.0000
  H   H30       1.0  0.264160670787099  0.15903963040869937  0.8818775414487375  1.0000
  H   H31       1.0  0.7638374846921536  0.7234631046878306  0.8817228476449017  1.0000
  H   H32       1.0  0.7358426846998044  0.8409605571186491  0.11812556296460039  1.0000
  H   H33       1.0  0.9044206040684557  0.042514622188107906  0.17138159331740613  1.0000
  H   H34       1.0  0.5953318504878453  0.871749827869948  0.8289718033801989  1.0000
  H   H35       1.0  0.09558049628783041  0.9574845439660393  0.8286202390419888  1.0000
  H   H36       1.0  0.40466815862305333  0.1282512676091372  0.17102916441037047  1.0000
  H   H37       1.0  0.13295555089595007  0.055674419230726406  0.0806027759661205  1.0000
  H   H38       1.0  0.3670221900556995  0.976006951158887  0.9197436295300179  1.0000
  H   H39       1.0  0.8670454653707296  0.9443227647757981  0.9193974954577371  1.0000
  H   H40       1.0  0.6329799605590621  0.023992199321590104  0.080256665222322  1.0000
  H   H41       1.0  0.7119740286408883  0.6692073674000838  0.5996130550428802  1.0000
  H   H42       1.0  0.7882458636759608  0.0693474349388694  0.40033305696035626  1.0000
  H   H43       1.0  0.2880336074476872  0.3307937690552905  0.4003858683434416  1.0000
  H   H44       1.0  0.2117531382791498  0.9306575720127911  0.5996686071969323  1.0000
  C   C1        1.0  0.9985194019903928  0.7597928977305347  0.12101595777168944  1.0000
  C   C2        1.0  0.5008970912947389  0.6387589454138408  0.87845996962632  1.0000
  C   C3        1.0  0.0014761013811153084  0.2402071255270713  0.8789820574453415  1.0000
  C   C4        1.0  0.49910192663197955  0.36124413418728096  0.121543304084561  1.0000
  C   C5        1.0  0.9256942594580339  0.6369030908771479  0.07830431911934  1.0000
  C   C6        1.0  0.5737265237318993  0.5588408903066623  0.9213542623777969  1.0000
  C   C7        1.0  0.07430446521296119  0.3630959559323443  0.9216918696090417  1.0000
  C   C8        1.0  0.42626693367509455  0.441160162221742  0.07864800483224603  1.0000
  C   C9        1.0  0.8808570703574926  0.5905892537494851  0.15594109354530167  1.0000
  C   C10       1.0  0.6189856263400344  0.4349361950676851  0.8438560930749689  1.0000
  C   C11       1.0  0.1191416838506569  0.4094107772841868  0.8440554793397084  1.0000
  C   C12       1.0  0.3810078560822703  0.5650648711599973  0.15614696675735487  1.0000
  C   C13       1.0  0.021821606568131806  0.8383781567092117  0.24268956152759108  1.0000
  C   C14       1.0  0.47799551214089325  0.5954750957014028  0.7567797264260109  1.0000
  C   C15       1.0  0.9781803644176605  0.1616199273514454  0.7573055933344293  1.0000
  C   C16       1.0  0.5220024305120462  0.40452798587412536  0.24322429226963047  1.0000
  C   C17       1.0  0.975965731001146  0.7930189251735201  0.3204580209162985  1.0000
  C   C18       1.0  0.5240938341529925  0.4723167210462478  0.6791692172700791  1.0000
  C   C19       1.0  0.02403629453709751  0.20698015681059453  0.679538310724631  1.0000
  C   C20       1.0  0.4759007735736914  0.5276843706055773  0.3208346828220456  1.0000
  C   C21       1.0  0.9073229133652629  0.667443556509163  0.2784329635438354  1.0000
  C   C22       1.0  0.5927426292891411  0.3890061517665089  0.7213447645288865  1.0000
  C   C23       1.0  0.09267806643635619  0.3325565116735234  0.7215644972384893  1.0000
  C   C24       1.0  0.40725512921298446  0.6109948928642908  0.27865452274208746  1.0000
  C   C25       1.0  0.8625371584125503  0.6208147888939594  0.3619023681859161  1.0000
  C   C26       1.0  0.6376312639538356  0.2588357962137452  0.6379891462112681  1.0000
  C   C27       1.0  0.13746379185191424  0.37918429506455453  0.6380947084397803  1.0000
  C   C28       1.0  0.3623666446401046  0.7411653306126953  0.3620148967934044  1.0000
  C   C29       1.0  0.871627875222984  0.4978252294759571  0.3613756162005046  1.0000
  C   C30       1.0  0.6286092440671496  0.13638196640159353  0.6385548454340793  1.0000
  C   C31       1.0  0.1283741457934156  0.5021728819832488  0.6386211239060771  1.0000
  C   C32       1.0  0.3713886395114798  0.8636191467255757  0.3614484049483052  1.0000
  C   C33       1.0  0.882403626300153  0.2524861262322631  0.2584349637375496  1.0000
  C   C34       1.0  0.6176676582612045  0.9942797932398765  0.7417109104630625  1.0000
  C   C35       1.0  0.11759841973155007  0.7475119989262212  0.7415625689913128  1.0000
  C   C36       1.0  0.38233126653221916  0.005719363163805701  0.258291619243586  1.0000
  C   C37       1.0  0.93987389235604  0.37749209509730974  0.2815601875002471  1.0000
  C   C38       1.0  0.5603943708789813  0.096045977764696  0.7184549914037105  1.0000
  C   C39       1.0  0.06012474822535549  0.6225049695645595  0.7184344402925973  1.0000
  C   C40       1.0  0.4396079388712906  0.9039551959612311  0.2815492421510229  1.0000
  C   C41       1.0  0.0683885355269069  0.3832798788166374  0.22907623283389003  1.0000
  C   C42       1.0  0.4320288578975635  0.1546031716937293  0.7710084992152844  1.0000
  C   C43       1.0  0.9316112758676242  0.6167162681430157  0.7709212289289695  1.0000
  C   C44       1.0  0.5679723265483219  0.845397976608055  0.22899489407964785  1.0000
  C   C45       1.0  0.13664245318973664  0.2686087575319292  0.15725404067391932  1.0000
  C   C46       1.0  0.3636147806244523  0.11203646065697373  0.8428883536956776  1.0000
  C   C47       1.0  0.8633562078851043  0.7313873503043028  0.8427417882068583  1.0000
  C   C48       1.0  0.6363886043995991  0.8879647110945542  0.15711513487428863  1.0000
  C   C49       1.0  0.9514051662265359  0.1378720702965452  0.18740731127754634  1.0000
  C   C50       1.0  0.5485512728153027  0.9510590587187057  0.8128990956789651  1.0000
  C   C51       1.0  0.04859580453138792  0.8621260568363313  0.8125909664360904  1.0000
  C   C52       1.0  0.4514487613108926  0.04894205045965801  0.18710266473388507  1.0000
  C   C53       1.0  0.07926078375951558  0.14531746900302522  0.1365136950727575  1.0000
  C   C54       1.0  0.4207997355027331  0.009600307583426103  0.8637989952422558  1.0000
  C   C55       1.0  0.9207413873486985  0.8546807246518213  0.8634878007675226  1.0000
  C   C56       1.0  0.5792026083065381  0.9904028208915892  0.1362052140034465  1.0000
  C   C57       1.0  0.7642391499159158  0.6313644711380421  0.5175409726079465  1.0000
  C   C58       1.0  0.7359402061478235  0.11366379330424084  0.4823749798153685  1.0000
  C   C59       1.0  0.235760754611924  0.3686355990190506  0.4824572331591455  1.0000
  C   C60       1.0  0.26405991658982947  0.8863402685466615  0.5176279330673668  1.0000
  N   N1        1.0  0.7945520329483527  0.7036717277830533  0.4614772934010674  1.0000
  N   N2        1.0  0.7056269614339925  0.24206671597856652  0.5384172538643881  1.0000
  N   N3        1.0  0.2054533685030577  0.29632743047348953  0.5385215590192587  1.0000
  N   N4        1.0  0.29436771441069  0.757938285171427  0.4615865976096885  1.0000
  N   N5        1.0  0.80764265777335  0.5068679342010611  0.46044973681865287  1.0000
  N   N6        1.0  0.6925739110056597  0.04629906725186571  0.539490050237923  1.0000
  N   N7        1.0  0.192358237938663  0.49313015183400216  0.5395461630281346  1.0000
  N   N8        1.0  0.3074283282205599  0.9537030359011495  0.4605113969843018  1.0000
