data_image0
_chemical_formula_structural       Cu8H4C4Br4N16
_chemical_formula_sum              "Cu8 H4 C4 Br4 N16"
_cell_length_a       5.9529357227259325
_cell_length_b       6.615750582345564
_cell_length_c       12.40575777865896
_cell_angle_alpha    89.99774122918795
_cell_angle_beta     89.99971994763266
_cell_angle_gamma    89.99809778434896

_space_group_name_H-M_alt    "P 1"
_space_group_IT_number       1

loop_
  _space_group_symop_operation_xyz
  'x, y, z'

loop_
  _atom_site_type_symbol
  _atom_site_label
  _atom_site_symmetry_multiplicity
  _atom_site_fract_x
  _atom_site_fract_y
  _atom_site_fract_z
  _atom_site_occupancy
  Cu  Cu1       1.0  0.714883477454812  0.4999837381468524  0.4999969154440364  1.0000
  Cu  Cu2       1.0  0.2851274509104941  0.5000002511328534  0.5000038623063928  1.0000
  Cu  Cu3       1.0  0.7148489750467207  5.177453836300002e-06  3.330117690000006e-08  1.0000
  Cu  Cu4       1.0  0.2851279322366835  1.6074487781701856e-05  0.9999987350092707  1.0000
  Cu  Cu5       1.0  0.5000083734772646  0.5501006133361557  0.8715375052837542  1.0000
  Cu  Cu6       1.0  0.4999924753974413  0.4499029768951956  0.12847136687750546  1.0000
  Cu  Cu7       1.0  0.5000077770892305  0.05014976477677641  0.6284751452677922  1.0000
  Cu  Cu8       1.0  0.4999863525260367  0.9498508663836631  0.3715232427701878  1.0000
  H   H1        1.0  1.1348616055800005e-05  0.858249633312845  0.6809295765915238  1.0000
  H   H2        1.0  0.9999760620755823  0.14173451360642284  0.31904540684400456  1.0000
  H   H3        1.0  3.0557668274900016e-05  0.3582851306347621  0.8190639805967306  1.0000
  H   H4        1.0  3.169963740400007e-06  0.6416915428928007  0.1809459388595797  1.0000
  C   C1        1.0  0.9999820691476206  0.005287775743681802  0.6425581679298416  1.0000
  C   C2        1.0  3.6614198180000007e-06  0.994708414329047  0.35742489695792284  1.0000
  C   C3        1.0  0.999979454021144  0.5053439514663581  0.8574449327072454  1.0000
  C   C4        1.0  2.64344355898e-05  0.4946550598418683  0.14257118633730664  1.0000
  Br  Br1       1.0  0.4999994202359803  0.15866154210130654  0.8489808985424073  1.0000
  Br  Br2       1.0  0.49998295100314044  0.8413149636341046  0.15100777519328545  1.0000
  Br  Br3       1.0  0.5000107660691527  0.6587024048918552  0.6509870068658399  1.0000
  Br  Br4       1.0  0.5000068805349899  0.3413421145706224  0.3490025894465275  1.0000
  N   N1        1.0  0.8890468916037834  0.2806332322826179  0.568024170429801  1.0000
  N   N2        1.0  0.8890322393543004  0.7193716484920996  0.43198224099004523  1.0000
  N   N3        1.0  0.11094891773641544  0.7193703531027326  0.43198550781025336  1.0000
  N   N4        1.0  0.11096860929006172  0.28064404386165626  0.5680250397436309  1.0000
  N   N5        1.0  0.8149403908186204  0.10838380389415647  0.6143762571752729  1.0000
  N   N6        1.0  0.8149043162019824  0.8916035751490344  0.38561577687573123  1.0000
  N   N7        1.0  0.18506885774569784  0.8915986886206683  0.38562209976770123  1.0000
  N   N8        1.0  0.18510325178498727  0.1084182664930537  0.6143745866734134  1.0000
  N   N9        1.0  0.8890418030956725  0.7806192001295003  0.9319778701932007  1.0000
  N   N10       1.0  0.8890474072256681  0.21937057005823848  0.06802770924379327  1.0000
  N   N11       1.0  0.11095064697502721  0.21936476974286728  0.0680261318705178  1.0000
  N   N12       1.0  0.11097191986252142  0.7806375840213775  0.9319763342273786  1.0000
  N   N13       1.0  0.8149257174254104  0.6083804398483038  0.885620920020038  1.0000
  N   N14       1.0  0.814887072545986  0.39160227229683653  0.11439287027246786  1.0000
  N   N15       1.0  0.1850717728279534  0.39157027123952304  0.11438383113466698  1.0000
  N   N16       1.0  0.18510369620764783  0.6084511102838661  0.8856305966817782  1.0000
