data_image0
_chemical_formula_structural       Er4H20C24N8O24
_chemical_formula_sum              "Er4 H20 C24 N8 O24"
_cell_length_a       5.992480700229243
_cell_length_b       11.819840001946215
_cell_length_c       12.400505598437872
_cell_angle_alpha    77.12538145085045
_cell_angle_beta     76.00263231449969
_cell_angle_gamma    75.28731838374642

_space_group_name_H-M_alt    "P 1"
_space_group_IT_number       1

loop_
  _space_group_symop_operation_xyz
  'x, y, z'

loop_
  _atom_site_type_symbol
  _atom_site_label
  _atom_site_symmetry_multiplicity
  _atom_site_fract_x
  _atom_site_fract_y
  _atom_site_fract_z
  _atom_site_occupancy
  Er  Er1       1.0  0.5656555808975557  0.9723143814210856  0.6392581206707246  1.0000
  Er  Er2       1.0  0.17748830530919718  0.5275393132148593  0.8607455692040844  1.0000
  Er  Er3       1.0  0.4343394706335745  0.0276873874596291  0.3607461238384174  1.0000
  Er  Er4       1.0  0.8225139543148076  0.4724571494017695  0.13925287726067367  1.0000
  H   H1        1.0  0.30518470807845716  0.1409762384174442  0.7889884307129834  1.0000
  H   H2        1.0  0.2351927051954023  0.35904200432175776  0.7108999772331615  1.0000
  H   H3        1.0  0.6948175757276046  0.8590237751035803  0.21100964911164496  1.0000
  H   H4        1.0  0.7648108674754399  0.6409571298073545  0.2890956228842611  1.0000
  H   H5        1.0  0.14522044922514987  0.1570660094933061  0.6953347063724137  1.0000
  H   H6        1.0  0.9978260094593101  0.3429099404778738  0.8047492083809614  1.0000
  H   H7        1.0  0.854781624542582  0.8429339920626475  0.3046670055317476  1.0000
  H   H8        1.0  0.002175171338237216  0.6570874134957239  0.19524808571146215  1.0000
  H   H9        1.0  0.16620359177468919  0.9367190917365634  0.5719006322460274  1.0000
  H   H10       1.0  0.6747827848390887  0.5633679672933098  0.9280742344813218  1.0000
  H   H11       1.0  0.8337968200465942  0.063282677150589  0.42810341680783626  1.0000
  H   H12       1.0  0.3252147217968045  0.4366311702470328  0.07192055127655544  1.0000
  H   H13       1.0  0.27873347845675067  0.5134024729014471  0.33401619431862867  1.0000
  H   H14       1.0  0.12684455955212576  0.9867563549583452  0.16610294572335954  1.0000
  H   H15       1.0  0.7212743352592385  0.48659932505201203  0.6659787826709972  1.0000
  H   H16       1.0  0.873150847455044  0.013243659409035  0.8338951259666627  1.0000
  H   H17       1.0  0.12209807281900721  0.4461559035576316  0.5435049507484208  1.0000
  H   H18       1.0  0.11284875354672876  0.053661844370914494  0.9566373029018465  1.0000
  H   H19       1.0  0.8778978364710501  0.5538467797573716  0.4564910808192052  1.0000
  H   H20       1.0  0.8871562952142968  0.9463390613663237  0.04335922550527723  1.0000
  C   C1        1.0  0.81280598999723  0.20753799920100138  0.6030345467204937  1.0000
  C   C2        1.0  0.6240411562144673  0.29234662163196395  0.8969045388920235  1.0000
  C   C3        1.0  0.1871879827074425  0.7924646610366822  0.39696854541632115  1.0000
  C   C4        1.0  0.3759641606090654  0.7076533901834453  0.10309394811238083  1.0000
  C   C5        1.0  0.658140066045775  0.287629144565024  0.5230657076872516  1.0000
  C   C6        1.0  0.46952752455140967  0.2123143707498443  0.9769145478521253  1.0000
  C   C7        1.0  0.34185556860534677  0.7123717483414539  0.4769350472998681  1.0000
  C   C8        1.0  0.5304735754090331  0.7876865281456131  0.02308419563993877  1.0000
  C   C9        1.0  0.7405099203244064  0.319234900463215  0.40633774833035113  1.0000
  C   C10       1.0  0.4667813098173499  0.1807602722948118  0.09365251840645775  1.0000
  C   C11       1.0  0.25949173994310826  0.6807677614929659  0.5936645457161305  1.0000
  C   C12       1.0  0.5332197255424878  0.819238848157177  0.9063473164255598  1.0000
  C   C13       1.0  0.9779518841071919  0.2642341295980302  0.3431930041383778  1.0000
  C   C14       1.0  0.5860146445336768  0.23577556282771892  0.1567277879361909  1.0000
  C   C15       1.0  0.022047448887640844  0.7357685306460982  0.6568098925431584  1.0000
  C   C16       1.0  0.4139828151072393  0.7642226628431955  0.8432744045382634  1.0000
  C   C17       1.0  0.3854280540989807  0.44740797240279306  0.38832395056431324  1.0000
  C   C18       1.0  0.22189130406165714  0.0526911803739125  0.1117732628851087  1.0000
  C   C19       1.0  0.6145717974152307  0.5525920334236433  0.6116765479351328  1.0000
  C   C20       1.0  0.7781069663432093  0.9473070478618625  0.8882281233644063  1.0000
  C   C21       1.0  0.3015328091984204  0.4118321670551809  0.502869594518394  1.0000
  C   C22       1.0  0.21714124015958425  0.08812947102955351  0.9972069394124503  1.0000
  C   C23       1.0  0.6984645115812074  0.5881705094244793  0.4971284566788937  1.0000
  C   C24       1.0  0.7828616847906534  0.911868760630341  0.0027932415669482125  1.0000
  N   N1        1.0  0.4372607477214177  0.3359303756341276  0.5704030982052826  1.0000
  N   N2        1.0  0.3443635688428307  0.16400898466358166  0.9296178091514375  1.0000
  N   N3        1.0  0.562737278802999  0.6640722974278648  0.42959596280682877  1.0000
  N   N4        1.0  0.6556387149632317  0.8359910288574357  0.07038027067319048  1.0000
  N   N5        1.0  0.6069053762984853  0.40211594584740595  0.341518083134332  1.0000
  N   N6        1.0  0.35116076972325777  0.09798408674173233  0.15855435666318124  1.0000
  N   N7        1.0  0.39309709473297283  0.5978867186736423  0.6584834046872103  1.0000
  N   N8        1.0  0.6488387491278407  0.9020150345630641  0.8414452745789446  1.0000
  O   O1        1.0  0.7657865589297119  0.10707573835333054  0.6513934696550691  1.0000
  O   O2        1.0  0.5247297856016221  0.3927387921094975  0.8484467251409098  1.0000
  O   O3        1.0  0.23420515110288426  0.892928698615755  0.34860913377685426  1.0000
  O   O4        1.0  0.4752792699841709  0.6072612145826355  0.15155317885808728  1.0000
  O   O5        1.0  0.9710694740046513  0.2507842903361279  0.6184572598844013  1.0000
  O   O6        1.0  0.8410567637968359  0.24909090066960002  0.881543913081316  1.0000
  O   O7        1.0  0.02892584558897948  0.7492165846227509  0.3815489432220147  1.0000
  O   O8        1.0  0.15894863386380118  0.7509055662239563  0.11845312452344806  1.0000
  O   O9        1.0  0.08578873577010898  0.165830603074653  0.39090490455564003  1.0000
  O   O10       1.0  0.6426414456069767  0.3342617291171734  0.10903698733349633  1.0000
  O   O11       1.0  0.9142090807159778  0.8341720580222757  0.6090977885360046  1.0000
  O   O12       1.0  0.3573683319600891  0.6657329507919698  0.890963568420645  1.0000
  O   O13       1.0  0.04990849555814947  0.31909815720689494  0.2463429336032661  1.0000
  O   O14       1.0  0.6160498747599096  0.180903172942017  0.25358159771825933  1.0000
  O   O15       1.0  0.95008983944733  0.6809018494723419  0.7536573613063026  1.0000
  O   O16       1.0  0.38392710129117796  0.819099478728923  0.7464247030491079  1.0000
  O   O17       1.0  0.26855073768254584  0.09982402631576553  0.735914470754956  1.0000
  O   O18       1.0  0.10444032974454864  0.40014885539967093  0.7641333985438691  1.0000
  O   O19       1.0  0.7314534357139241  0.9001750984131506  0.26408395521706035  1.0000
  O   O20       1.0  0.8955608510529985  0.5998484985739267  0.2358638955485545  1.0000
  O   O21       1.0  0.3115395278927905  0.9653948787517098  0.5423245386954106  1.0000
  O   O22       1.0  0.8192483535455614  0.5346585248100197  0.957652563891102  1.0000
  O   O23       1.0  0.6884587262755775  0.0346086728493873  0.4576772056137912  1.0000
  O   O24       1.0  0.1807526642086401  0.46533972906794235  0.04234095556428486  1.0000
