data_image0
_chemical_formula_structural       Zn2H24C40I2N2O10
_chemical_formula_sum              "Zn2 H24 C40 I2 N2 O10"
_cell_length_a       14.862346203233317
_cell_length_b       16.12119752377125
_cell_length_c       16.184756922683196
_cell_angle_alpha    89.913096044975
_cell_angle_beta     89.74922890572148
_cell_angle_gamma    89.89849486382909

_space_group_name_H-M_alt    "P 1"
_space_group_IT_number       1

loop_
  _space_group_symop_operation_xyz
  'x, y, z'

loop_
  _atom_site_type_symbol
  _atom_site_label
  _atom_site_symmetry_multiplicity
  _atom_site_fract_x
  _atom_site_fract_y
  _atom_site_fract_z
  _atom_site_occupancy
  Zn  Zn1       1.0  0.5942275755741946  0.4997911206562973  0.49982106374585555  1.0000
  Zn  Zn2       1.0  0.40574932312805606  0.4999099437423664  0.5002345304066083  1.0000
  H   H1        1.0  0.41769581838356373  0.9478713333888745  0.6208977392030377  1.0000
  H   H2        1.0  0.9130759133991261  0.4975627718672653  0.3684485423055648  1.0000
  H   H3        1.0  0.7577848959340585  0.6025148768926626  0.10602548186061972  1.0000
  H   H4        1.0  0.7025771629219831  0.611602024334033  0.008995216704875  1.0000
  H   H5        1.0  0.8375608999592217  0.47622671384947773  0.0594896991072531  1.0000
  H   H6        1.0  0.779971603916195  0.47697939713508214  0.9645820629541291  1.0000
  H   H7        1.0  0.8483604700831009  0.6162251382321386  0.9285531856330564  1.0000
  H   H8        1.0  0.9339588747198493  0.5418117437421087  0.948439910137047  1.0000
  H   H9        1.0  0.9059838540817539  0.6170133835919667  0.024186520887632  1.0000
  H   H10       1.0  0.2418338189701217  0.6021480390648789  0.8936918121588633  1.0000
  H   H11       1.0  0.2969337667738756  0.6112283370539372  0.9907584346374705  1.0000
  H   H12       1.0  0.5823566231835502  0.05191287089047589  0.37905960339774936  1.0000
  H   H13       1.0  0.1627618540191165  0.47569978620249026  0.9404683630198748  1.0000
  H   H14       1.0  0.22013158742196035  0.47661702924823857  0.0354726231205191  1.0000
  H   H15       1.0  0.15082307399499228  0.6157526052496889  0.0709079732489357  1.0000
  H   H16       1.0  0.0656872984124064  0.5412640800669023  0.051046480140073  1.0000
  H   H17       1.0  0.09348996618535213  0.6164511566585841  0.9751025753100464  1.0000
  H   H18       1.0  0.5719399663984888  0.05127192320232869  0.6258593688202295  1.0000
  H   H19       1.0  0.4280937434547242  0.9485004910300743  0.3741216012454132  1.0000
  H   H20       1.0  0.3442761840942339  0.05054088286920689  0.49514511200504063  1.0000
  H   H21       1.0  0.6557555077525452  0.9492247105933554  0.5048340250561623  1.0000
  H   H22       1.0  0.6431810020341331  0.5083504298107682  0.9204427397042282  1.0000
  H   H23       1.0  0.356868499632128  0.5080230943720493  0.0795663253906156  1.0000
  H   H24       1.0  0.0868798862649811  0.5034720765618841  0.6314306240034923  1.0000
  C   C1        1.0  0.501035980931114  0.5016941152777432  0.6611175207096879  1.0000
  C   C2        1.0  0.4996019381612272  0.5043367365987591  0.2497260770631797  1.0000
  C   C3        1.0  0.9542766537326061  0.5024296302389927  0.5770864436574855  1.0000
  C   C4        1.0  0.045696704298265396  0.49905245987729757  0.4227705954155211  1.0000
  C   C5        1.0  0.9064489128947386  0.5005357966589727  0.5017121325574649  1.0000
  C   C6        1.0  0.0935229325125988  0.500563557720085  0.49816006481216135  1.0000
  C   C7        1.0  0.9520356654744689  0.4989335004966901  0.4253003031125075  1.0000
  C   C8        1.0  0.0479231920747551  0.5023321048120621  0.5745693806570031  1.0000
  C   C9        1.0  0.8108290129923149  0.500270968385003  0.5011390979458241  1.0000
  C   C10       1.0  0.1891390633904422  0.5002235532720289  0.49879232782913624  1.0000
  C   C11       1.0  0.4994254013273079  0.6615345889956284  0.49981040933165116  1.0000
  C   C12       1.0  0.4989621686239332  0.5016698280551563  0.3389237489754535  1.0000
  C   C13       1.0  0.5005700453243378  0.33832093806053354  0.5002171150009218  1.0000
  C   C14       1.0  0.5401189748574283  0.027434227369092  0.5699620530060372  1.0000
  C   C15       1.0  0.45993757285025083  0.9723481019136456  0.4300119432488572  1.0000
  C   C16       1.0  0.4541113218653976  0.9719304656415699  0.5671687131894672  1.0000
  C   C17       1.0  0.5459330583822819  0.027851260833038797  0.4327911626040475  1.0000
  C   C18       1.0  0.4995145481166574  0.7511651189508511  0.49971483526631744  1.0000
  C   C19       1.0  0.500473874307481  0.2486699974722696  0.5002330528311489  1.0000
  C   C20       1.0  0.5866672247575411  0.9725285184966664  0.5026937785655434  1.0000
  C   C21       1.0  0.4133779000881929  0.027257536430987293  0.4972852420782203  1.0000
  C   C22       1.0  0.5008432251520603  0.9145659240513094  0.4999040262785357  1.0000
  C   C23       1.0  0.5009257525564195  0.5085839526039705  0.08725875298917168  1.0000
  C   C24       1.0  0.49919708619617614  0.08524309829929419  0.5000558569293362  1.0000
  C   C25       1.0  0.5001568135630734  0.82679188480742  0.49975841799351167  1.0000
  C   C26       1.0  0.49988954634248023  0.17302953848011524  0.5002032637529368  1.0000
  C   C27       1.0  0.5830404434314149  0.5114649193109386  0.042235618837452193  1.0000
  C   C28       1.0  0.4169969169562934  0.5112964816410964  0.9577731677621698  1.0000
  C   C29       1.0  0.7315406401343836  0.5669880546699416  0.0532928569202866  1.0000
  C   C30       1.0  0.807267032323395  0.517523793128859  0.013020492460654502  1.0000
  C   C31       1.0  0.8778089900280223  0.5761439986449516  0.9764919879339473  1.0000
  C   C32       1.0  0.26821636111050406  0.5666240739260145  0.9465411876617935  1.0000
  C   C33       1.0  0.1926961040120361  0.5170817960470373  0.9868480069998711  1.0000
  C   C34       1.0  0.4991214817701178  0.5086158083669188  0.9127601456808776  1.0000
  C   C35       1.0  0.12173917617282369  0.5756290696723668  0.0230109168376345  1.0000
  C   C36       1.0  0.4190033567028308  0.5089813325080713  0.0437598782107642  1.0000
  C   C37       1.0  0.5810461020601707  0.5091743170630636  0.9562520305136459  1.0000
  C   C38       1.0  0.500841627339618  0.5066915774524003  0.17446460032142133  1.0000
  C   C39       1.0  0.4991790488894807  0.5067423454332315  0.8255576260428654  1.0000
  C   C40       1.0  0.500381177144  0.5044002776770639  0.7503058933962095  1.0000
  I   I1        1.0  0.8862812298827905  0.5050159784014879  0.6901200604802894  1.0000
  I   I2        1.0  0.11377986041916441  0.4969876962862613  0.3097853252650893  1.0000
  N   N1        1.0  0.2671379154743931  0.4999093667065323  0.5016884414723748  1.0000
  N   N2        1.0  0.7328264391076332  0.5000311686851616  0.4983287384764807  1.0000
  O   O1        1.0  0.5781521183726069  0.5000486733525165  0.6262286581484345  1.0000
  O   O2        1.0  0.3394551265432  0.516066363213106  0.9129240320887817  1.0000
  O   O3        1.0  0.4218552021672722  0.5001504655400807  0.3738392720129228  1.0000
  O   O4        1.0  0.42439874460667687  0.50127157173646  0.62606109625181  1.0000
  O   O5        1.0  0.5755937828106354  0.5011588173056438  0.3739853163428605  1.0000
  O   O6        1.0  0.5762481601988868  0.6261979803057113  0.5004520496029485  1.0000
  O   O7        1.0  0.42374277359634505  0.37367666824437856  0.5006369922900121  1.0000
  O   O8        1.0  0.4226601394173598  0.6263514576633181  0.4992603432625841  1.0000
  O   O9        1.0  0.5773285199334668  0.3735364061015573  0.4997551339175033  1.0000
  O   O10       1.0  0.6605379777930837  0.5163965877225178  0.08708442993972199  1.0000
