data_image0
_chemical_formula_structural       Y4Ag4H32C56N8O32
_chemical_formula_sum              "Y4 Ag4 H32 C56 N8 O32"
_cell_length_a       9.493222471
_cell_length_b       12.020790467232482
_cell_length_c       16.685
_cell_angle_alpha    96.26708499128752
_cell_angle_beta     90.0
_cell_angle_gamma    113.25725596094449

_space_group_name_H-M_alt    "P 1"
_space_group_IT_number       1

loop_
  _space_group_symop_operation_xyz
  'x, y, z'

loop_
  _atom_site_type_symbol
  _atom_site_label
  _atom_site_symmetry_multiplicity
  _atom_site_fract_x
  _atom_site_fract_y
  _atom_site_fract_z
  _atom_site_occupancy
  Y   Y1        1.0  0.3025541010446132  0.0101196815588835  0.9329565082176998  1.0000
  Y   Y2        1.0  0.2925073527185518  0.9898885190582547  0.5670770405439214  1.0000
  Y   Y3        1.0  0.697449586688066  0.9898793997633462  0.06703976355241542  1.0000
  Y   Y4        1.0  0.7074925774388988  0.0101114741934651  0.4329211009690965  1.0000
  Ag  Ag1       1.0  0.719815281867298  0.6791330422828992  0.9161203519893206  1.0000
  Ag  Ag2       1.0  0.04036425283419478  0.3208104113403962  0.5837924318407417  1.0000
  Ag  Ag3       1.0  0.28018780843940766  0.3208669509688207  0.0838807862273185  1.0000
  Ag  Ag4       1.0  0.9596356773232558  0.6791895819113307  0.41620870637590457  1.0000
  H   H1        1.0  0.028102920033774053  0.9108771241204535  0.1655354736414409  1.0000
  H   H2        1.0  0.11684201082044861  0.0889970228615482  0.3344509723891278  1.0000
  H   H3        1.0  0.9718976075496357  0.0891219572017761  0.8344649935137484  1.0000
  H   H4        1.0  0.8831579193369947  0.9110029703901786  0.6655495664867956  1.0000
  H   H5        1.0  0.4023050209653931  0.8083525391930806  0.21880273563996158  1.0000
  H   H6        1.0  0.5935409138502621  0.19148421867979687  0.2812484953427585  1.0000
  H   H7        1.0  0.5976938558089628  0.19164745405863928  0.7811996012581304  1.0000
  H   H8        1.0  0.4064594722643021  0.808516686501413  0.7187533139353377  1.0000
  H   H9        1.0  0.890418073387906  0.798763600597816  0.2785754126969664  1.0000
  H   H10       1.0  0.09143969225230109  0.20128746070538736  0.2214393313319718  1.0000
  H   H11       1.0  0.10958291015263198  0.20123639265390383  0.7214263248604027  1.0000
  H   H12       1.0  0.9085617472453507  0.7987134444758225  0.7785618786054016  1.0000
  H   H13       1.0  0.24651897039161239  0.6931986427482713  0.3258319066092241  1.0000
  H   H14       1.0  0.5530636309125825  0.3066672968683051  0.1741568906384288  1.0000
  H   H15       1.0  0.7534839784462404  0.3068031743624289  0.6741711730710448  1.0000
  H   H16       1.0  0.44693478990465957  0.6933317844539246  0.8258441758574904  1.0000
  H   H17       1.0  0.4283449076683752  0.5886705487297164  0.0479083347611038  1.0000
  H   H18       1.0  0.8398013919511556  0.4113659217016377  0.45208068876647195  1.0000
  H   H19       1.0  0.5716566732981221  0.4113285325925133  0.9520927317348153  1.0000
  H   H20       1.0  0.16019702886608664  0.5886331596205991  0.5479203777294472  1.0000
  H   H21       1.0  0.12805677371337507  0.6426695415951542  0.8779394432063441  1.0000
  H   H22       1.0  0.48556112435962007  0.3573787839195788  0.622122433577708  1.0000
  H   H23       1.0  0.8719448072531223  0.3573295397270755  0.1220610239488451  1.0000
  H   H24       1.0  0.5144392617549443  0.6426221212616312  0.3778787763596654  1.0000
  H   H25       1.0  0.049378407321008  0.2864470842698452  0.9481374990077499  1.0000
  H   H26       1.0  0.7629465631089404  0.7135802668666003  0.5518657908306892  1.0000
  H   H27       1.0  0.9506246829856977  0.7135529089818746  0.051864837890342096  1.0000
  H   H28       1.0  0.23705382300562405  0.2864206383146168  0.44813541910667704  1.0000
  H   H29       1.0  0.9706384148752463  0.41351169179337427  0.8631190910284872  1.0000
  H   H30       1.0  0.5572166078382706  0.586521130920012  0.6369115994669484  1.0000
  H   H31       1.0  0.029363166091251024  0.5864873895288554  0.1368825748081548  1.0000
  H   H32       1.0  0.4427852876165019  0.4134806861906881  0.3630890828504221  1.0000
  C   C1        1.0  0.2287306275373453  0.8714006083952553  0.18475140239460333  1.0000
  C   C2        1.0  0.3569629306380833  0.128453476137949  0.3152148862175039  1.0000
  C   C3        1.0  0.7712671958539232  0.1285993848564644  0.8152491364813201  1.0000
  C   C4        1.0  0.6430385088595687  0.8715474290432682  0.6847857243791466  1.0000
  C   C5        1.0  0.0811546491880932  0.8650946159666972  0.20049638854152366  1.0000
  C   C6        1.0  0.21568746240473763  0.1347676759319185  0.29950051259337584  1.0000
  C   C7        1.0  0.9188473877355252  0.1349053772850226  0.7995053490158455  1.0000
  C   C8        1.0  0.7843129237098196  0.8652332292492915  0.7005006973439976  1.0000
  C   C9        1.0  0.9648583176209228  0.9302465065040408  0.9887561548087052  1.0000
  C   C10       1.0  0.0346624962509736  0.0697580463951368  0.5111991927757273  1.0000
  C   C11       1.0  0.0351330440029685  0.0697553106066593  0.0112469248715641  1.0000
  C   C12       1.0  0.9653383142701415  0.9302373872091323  0.4888039842001817  1.0000
  C   C13       1.0  0.2886317579502986  0.8070767498355167  0.22964576064488537  1.0000
  C   C14       1.0  0.4812052387002126  0.1927846301336089  0.2703366845918822  1.0000
  C   C15       1.0  0.7113711908875615  0.1929250672751834  0.770356120353938  1.0000
  C   C16       1.0  0.5187957448403182  0.8072153631181108  0.729664453624757  1.0000
  C   C17       1.0  0.22078568625936162  0.9292442959937047  0.7449302555161809  1.0000
  C   C18       1.0  0.2915993145129007  0.0708195323223677  0.7551214530464421  1.0000
  C   C19       1.0  0.779199496534858  0.070755697258015  0.25505470050087814  1.0000
  C   C20       1.0  0.7083953487291054  0.929180460929352  0.24486470165207658  1.0000
  C   C21       1.0  0.0031554027191233384  0.8017063970644713  0.2627595075644891  1.0000
  C   C22       1.0  0.201179330745731  0.19824161620627478  0.23725312542958926  1.0000
  C   C23       1.0  0.9968460367785283  0.1982945081167387  0.7372423017136072  1.0000
  C   C24       1.0  0.7988200019857388  0.8017592889749352  0.7627480845077771  1.0000
  C   C25       1.0  0.323804219440845  0.9458833614819824  0.121707856011632  1.0000
  C   C26       1.0  0.37783737083061913  0.054071947224692  0.37824241997211067  1.0000
  C   C27       1.0  0.676212250357736  0.054113895981267  0.8782954644057313  1.0000
  C   C28       1.0  0.6221557830711787  0.9459271340975376  0.6217592458645314  1.0000
  C   C29       1.0  0.2026061567585842  0.7436830593563499  0.289713064267076  1.0000
  C   C30       1.0  0.4586435994613325  0.256209326215469  0.21026702474860312  1.0000
  C   C31       1.0  0.7973957386961885  0.2563187577543573  0.7102900154132001  1.0000
  C   C32       1.0  0.5413573840791983  0.743790667036258  0.7897341134680431  1.0000
  C   C33       1.0  0.387616989417495  0.7647002983297283  0.9754649030732311  1.0000
  C   C34       1.0  0.6231695682927876  0.2353270528067171  0.5245449795131876  1.0000
  C   C35       1.0  0.6123996218499386  0.23529513527454068  0.024538273902678008  1.0000
  C   C36       1.0  0.3768204254597478  0.7646720285155126  0.47545728566418444  1.0000
  C   C37       1.0  0.29024565995934637  0.6301140963664693  0.9629963434558491  1.0000
  C   C38       1.0  0.6602565540795666  0.3699169024879367  0.5370132266727481  1.0000
  C   C39       1.0  0.7097538142409832  0.3698849849557604  0.0370041236993401  1.0000
  C   C40       1.0  0.3397448854180851  0.6300840026932732  0.46298798326461815  1.0000
  C   C41       1.0  0.3273014658603088  0.5520884972081674  0.006672252718189504  1.0000
  C   C42       1.0  0.7753134643276454  0.44796985953096413  0.49334546243946414  1.0000
  C   C43       1.0  0.6727037312125717  0.44791149604355235  0.9933294848391796  1.0000
  C   C44       1.0  0.2246858684038315  0.5520310456502528  0.5066557474979092  1.0000
  C   C45       1.0  0.15914273899614528  0.5813860559575801  0.9109422620811003  1.0000
  C   C46       1.0  0.5778776667624328  0.41863855939038785  0.5890811901798187  1.0000
  C   C47       1.0  0.8408604927794131  0.4186121134351595  0.0890593320348145  1.0000
  C   C48       1.0  0.4221227193521245  0.5813623457908221  0.4109206190982775  1.0000
  C   C49       1.0  0.11547795428812441  0.3842843516147525  0.950261856184305  1.0000
  C   C50       1.0  0.7312197551109563  0.6157320563678041  0.5497291855316462  1.0000
  C   C51       1.0  0.8845246800614603  0.6157147297074843  0.0497404089930669  1.0000
  C   C52       1.0  0.2687816843866955  0.3842688488134058  0.4502726237464501  1.0000
  C   C53       1.0  0.07260238599018005  0.45607417691527974  0.9035357363559696  1.0000
  C   C54       1.0  0.6165703412385568  0.5439486145737078  0.5964791816933471  1.0000
  C   C55       1.0  0.9273991949763245  0.5439249044069498  0.0964659294806722  1.0000
  C   C56       1.0  0.3834300448760075  0.4560522906075022  0.4035226275847492  1.0000
  N   N1        1.0  0.06359787430147171  0.742843172295366  0.3077638809192678  1.0000
  N   N2        1.0  0.3204908655780514  0.2570847785265897  0.1922501709224562  1.0000
  N   N3        1.0  0.9364031092390591  0.2571568209563608  0.6922384559788315  1.0000
  N   N4        1.0  0.6795101179624793  0.74291521472513  0.80775096729419  1.0000
  N   N5        1.0  0.24019167530092742  0.4316463216464825  0.0017050537014000901  1.0000
  N   N6        1.0  0.8086256910876841  0.5683947084323222  0.4983322756878295  1.0000
  N   N7        1.0  0.7598109590486573  0.5683527596757472  0.9982960127945191  1.0000
  N   N8        1.0  0.1913742390697593  0.4316052848194047  0.5016688625288168  1.0000
  O   O1        1.0  0.2111557906817865  0.8786686864365549  0.8084743501189066  1.0000
  O   O2        1.0  0.33259553062579533  0.12137143171275969  0.691592275245128  1.0000
  O   O3        1.0  0.7888277097528089  0.121325835238224  0.1915215630475799  1.0000
  O   O4        1.0  0.6673992740850565  0.8786267376799798  0.30840871953006394  1.0000
  O   O5        1.0  0.03591128568170623  0.8843454475164875  0.94085488416237  1.0000
  O   O6        1.0  0.1516780539737894  0.11568099169046059  0.5590368565804624  1.0000
  O   O7        1.0  0.9641056400739956  0.11565272187625199  0.0591389185241198  1.0000
  O   O8        1.0  0.8483122227164442  0.8843144419138085  0.4409609263289269  1.0000
  O   O9        1.0  0.25698556416134716  0.9862845737107975  0.0738760095820155  1.0000
  O   O10       1.0  0.2707225546121208  0.013445488411662198  0.42609011446286615  1.0000
  O   O11       1.0  0.7430086431235381  0.0137145076114322  0.9261184641659241  1.0000
  O   O12       1.0  0.7292773755453226  0.9865545048400648  0.5739074277094289  1.0000
  O   O13       1.0  0.1791924563919096  0.8760341221377672  0.6737571099825459  1.0000
  O   O14       1.0  0.3031707966222186  0.1240543282745534  0.826298333061878  1.0000
  O   O15       1.0  0.8207986222942765  0.12397134269089348  0.3262390644919364  1.0000
  O   O16       1.0  0.6968268853002043  0.8759474888361467  0.1737029485962225  1.0000
  O   O17       1.0  0.46357704216808315  0.9611417657212583  0.12193455787178209  1.0000
  O   O18       1.0  0.5026363073451421  0.0392093203844084  0.377994102923509  1.0000
  O   O19       1.0  0.5364115837130967  0.0388545798125008  0.8780644954397799  1.0000
  O   O20       1.0  0.49736723891868445  0.9607915847968086  0.6220077063545872  1.0000
  O   O21       1.0  0.8392719395219999  0.8715574602676667  0.020159602908577788  1.0000
  O   O22       1.0  0.9677205759595395  0.1284151750993345  0.4797752542286773  1.0000
  O   O23       1.0  0.1607474390387083  0.1284498284199813  0.9798325196222777  1.0000
  O   O24       1.0  0.03227121007090255  0.8715811704344247  0.5202255971050675  1.0000
  O   O25       1.0  0.3248090193411883  0.8334178331759148  0.955818702415975  1.0000
  O   O26       1.0  0.4917625922381461  0.1664882313382634  0.5442241945052899  1.0000
  O   O27       1.0  0.6751849050059918  0.1665848958642826  0.0441754588741432  1.0000
  O   O28       1.0  0.5082421804281907  0.8335172334904044  0.45577437733209075  1.0000
  O   O29       1.0  0.5229214993955722  0.7977066743180359  0.0053151831905111835  1.0000
  O   O30       1.0  0.7255667400930079  0.2024565543125334  0.49465683918543857  1.0000
  O   O31       1.0  0.4770721104633466  0.20229331893369107  0.9946817596410539  1.0000
  O   O32       1.0  0.2744354382994629  0.7975416150802062  0.5053405595454022  1.0000
