data_image0
_chemical_formula_structural       ZnH22C22N4O4
_chemical_formula_sum              "Zn1 H22 C22 N4 O4"
_cell_length_a       5.57748377676739
_cell_length_b       5.5778634517573416
_cell_length_c       20.552970489628994
_cell_angle_alpha    79.81535201933028
_cell_angle_beta     79.81636063954417
_cell_angle_gamma    57.922084074885845

_space_group_name_H-M_alt    "P 1"
_space_group_IT_number       1

loop_
  _space_group_symop_operation_xyz
  'x, y, z'

loop_
  _atom_site_type_symbol
  _atom_site_label
  _atom_site_symmetry_multiplicity
  _atom_site_fract_x
  _atom_site_fract_y
  _atom_site_fract_z
  _atom_site_occupancy
  Zn  Zn1       1.0  0.3983956916879664  0.601696951579882  0.49998519820709225  1.0000
  H   H1        1.0  0.6482911006578504  0.31773360381900767  0.6015151556095262  1.0000
  H   H2        1.0  0.6823199941280578  0.35163291809708147  0.39848012199440325  1.0000
  H   H3        1.0  0.8731196883712047  0.39318527748189774  0.5516454371167471  1.0000
  H   H4        1.0  0.6067708291205706  0.126927057872976  0.4483708332546001  1.0000
  H   H5        1.0  0.18642148495067795  0.14828175292931428  0.8020100569560071  1.0000
  H   H6        1.0  0.8516190827905562  0.8136632265566064  0.19799460218647624  1.0000
  H   H7        1.0  0.7590803663700285  0.7282532448907162  0.6168475359200728  1.0000
  H   H8        1.0  0.271706150829189  0.2409733654279691  0.3831526389652923  1.0000
  H   H9        1.0  0.2638090415603784  0.9107352797126678  0.6921696782879678  1.0000
  H   H10       1.0  0.08925791336287149  0.7362490219716804  0.3078329893443624  1.0000
  H   H11       1.0  0.28161844216084114  0.6115085611100994  0.6708786309155315  1.0000
  H   H12       1.0  0.38852099810731705  0.7183824002338994  0.3291220512749221  1.0000
  H   H13       1.0  0.04967930565553055  0.36160770417417615  0.6862443152499225  1.0000
  H   H14       1.0  0.6383240237015996  0.9503945488421337  0.3137573745385609  1.0000
  H   H15       1.0  0.923218656761783  0.1026235548127019  0.9305101534728593  1.0000
  H   H16       1.0  0.8972894164075311  0.07682269346310018  0.06948968412128662  1.0000
  H   H17       1.0  0.43874288810496853  0.2764349236174795  0.9910764863637952  1.0000
  H   H18       1.0  0.7234719248388687  0.5613002399626693  0.008918763236600596  1.0000
  H   H19       1.0  0.0073822163081089754  0.5662396584229229  0.9311132199221462  1.0000
  H   H20       1.0  0.4336971454186622  0.9926168694788587  0.06888635699444733  1.0000
  H   H21       1.0  0.04212226024630892  0.7011103446808633  0.810136373731318  1.0000
  H   H22       1.0  0.29888630823318635  0.9578692725820015  0.18986037323490024  1.0000
  C   C1        1.0  0.3779746099628269  0.0045393956990125005  0.5707361511576821  1.0000
  C   C2        1.0  0.9954521278034677  0.6220466097115606  0.42926573207999047  1.0000
  C   C3        1.0  0.5733705555640896  0.7196288466143627  0.6095789978021742  1.0000
  C   C4        1.0  0.280353845464674  0.42666348761402173  0.39042187714556326  1.0000
  C   C5        1.0  0.4148832038901488  0.6956970433810029  0.6773921711641792  1.0000
  C   C6        1.0  0.30430628397466825  0.585141453966429  0.32260828875792674  1.0000
  C   C7        1.0  0.8949259635496462  0.38099719559821216  0.7285273690242349  1.0000
  C   C8        1.0  0.6189561598549246  0.10513143611053273  0.2714765455204571  1.0000
  C   C9        1.0  0.6020057882000885  0.520388959527658  0.7319180253952453  1.0000
  C   C10       1.0  0.479570481153786  0.3980494493700348  0.2680812953591172  1.0000
  C   C11       1.0  0.5046029558272805  0.4771790371831914  0.8003501176318296  1.0000
  C   C12       1.0  0.5227586010165266  0.4954299588498827  0.19964874374878863  1.0000
  C   C13       1.0  0.7509207896535341  0.3081425271329792  0.8358890064721649  1.0000
  C   C14       1.0  0.6917774646730095  0.2491305301471058  0.1641049579141836  1.0000
  C   C15       1.0  0.7327199052246199  0.23171254224414647  0.9043891244536297  1.0000
  C   C16       1.0  0.76823071700602  0.2673182703342007  0.0956080687075342  1.0000
  C   C17       1.0  0.46186011457930204  0.3271721301951729  0.9375459156053979  1.0000
  C   C18       1.0  0.6727778862483264  0.5381663013029296  0.06245066484957819  1.0000
  C   C19       1.0  0.2160450684359105  0.4937124485496297  0.9035706582736439  1.0000
  C   C20       1.0  0.5062510350744416  0.7839587047478249  0.0964277411545922  1.0000
  C   C21       1.0  0.2344935341786467  0.5698727521367672  0.8354750973884748  1.0000
  C   C22       1.0  0.43009987366744434  0.765522796811041  0.16452081189034123  1.0000
  N   N1        1.0  0.6659769715777913  0.47703027165613326  0.5719823014110262  1.0000
  N   N2        1.0  0.5229799514425223  0.3340341570931429  0.428019091473999  1.0000
  N   N3        1.0  0.9833244698939014  0.25096995287559315  0.7905574252441098  1.0000
  N   N4        1.0  0.7489556364669527  0.016747219089694485  0.20944631045883005  1.0000
  O   O1        1.0  0.3348289983589651  0.22771639392224333  0.590060251425399  1.0000
  O   O2        1.0  0.7722415891579147  0.665202755116411  0.40995228322139343  1.0000
  O   O3        1.0  0.2608681942467612  0.0030969808539466847  0.5224290320653538  1.0000
  O   O4        1.0  0.9969396653480588  0.7391568760987823  0.47756424905097106  1.0000
