data_image0
_chemical_formula_structural       Na2H20Au2C32S12N12
_chemical_formula_sum              "Na2 H20 Au2 C32 S12 N12"
_cell_length_a       8.362129324642943
_cell_length_b       10.077423900137255
_cell_length_c       13.095131374996143
_cell_angle_alpha    90.00005094730025
_cell_angle_beta     103.56916242185291
_cell_angle_gamma    89.99940735159055

_space_group_name_H-M_alt    "P 1"
_space_group_IT_number       1

loop_
  _space_group_symop_operation_xyz
  'x, y, z'

loop_
  _atom_site_type_symbol
  _atom_site_label
  _atom_site_symmetry_multiplicity
  _atom_site_fract_x
  _atom_site_fract_y
  _atom_site_fract_z
  _atom_site_occupancy
  Na  Na1       1.0  3.4037296928000017e-06  0.9999986206664528  3.1137997141e-06  1.0000
  Na  Na2       1.0  0.4999987382038211  0.4999992444037459  0.9999969273862488  1.0000
  H   H1        1.0  0.23075491793198924  0.6206240016554573  0.19187309022320417  1.0000
  H   H2        1.0  0.2692398112125148  0.1206283669896919  0.8081248479070168  1.0000
  H   H3        1.0  0.7692459444060163  0.3793738896685426  0.8081294772847369  1.0000
  H   H4        1.0  0.7307487455766264  0.8793715090199117  0.19187513424235184  1.0000
  H   H5        1.0  0.9288936111903395  0.18808684696354308  0.19496941285227357  1.0000
  H   H6        1.0  0.5711145963722758  0.6880964962969855  0.8050324959153625  1.0000
  H   H7        1.0  0.07110971154290979  0.8119120366671809  0.8050335188929052  1.0000
  H   H8        1.0  0.4288911726128291  0.3119083412241608  0.19496774339193473  1.0000
  H   H9        1.0  0.06171426380424801  0.08332596058779979  0.615068472220919  1.0000
  H   H10       1.0  0.4382870727335018  0.5833220242611076  0.3849250747508107  1.0000
  H   H11       1.0  0.9382853718223885  0.9166778846443933  0.3849346773323034  1.0000
  H   H12       1.0  0.5617174237485755  0.41667785167446436  0.6150658124248308  1.0000
  H   H13       1.0  0.8438693036537188  0.0917453507506707  0.5630002139918061  1.0000
  H   H14       1.0  0.6561315033728049  0.5917379514083405  0.43699366492244696  1.0000
  H   H15       1.0  0.1561291017913007  0.9082555175354231  0.43700275344437495  1.0000
  H   H16       1.0  0.3438742445027927  0.40825795525631736  0.5630019893825917  1.0000
  H   H17       1.0  0.9402618125118777  0.9344543719691101  0.5981790499977035  1.0000
  H   H18       1.0  0.5597394848231829  0.43444913961135256  0.40181282919643013  1.0000
  H   H19       1.0  0.0597402764799  0.0655464963005414  0.4018229354592861  1.0000
  H   H20       1.0  0.4402600838127029  0.5655487517098904  0.5981758011687646  1.0000
  Au  Au1       1.0  1.2602643905999162e-06  0.5000001052309812  0.5000019676586902  1.0000
  Au  Au2       1.0  0.4999999559739265  1.3148169129999978e-07  0.4999991448047466  1.0000
  C   C1        1.0  0.0960048299092051  0.4943870124905843  0.2755933723274282  1.0000
  C   C2        1.0  0.4039949169580197  0.994384769303757  0.7244047834206171  1.0000
  C   C3        1.0  0.903994805749427  0.505611871156134  0.7244097772289421  1.0000
  C   C4        1.0  0.5960071720465621  0.0056141143317062995  0.2755972020376375  1.0000
  C   C5        1.0  0.16660213367475046  0.5266955113172074  0.19257131605686334  1.0000
  C   C6        1.0  0.33339133937396787  0.026704285208168702  0.8074248489092424  1.0000
  C   C7        1.0  0.8333950415758408  0.4733043646569756  0.8074314692610116  1.0000
  C   C8        1.0  0.6666082786454196  0.9732945984363397  0.1925744798071847  1.0000
  C   C9        1.0  0.010485886756796998  0.37043804552877185  0.27707429985213844  1.0000
  C   C10       1.0  0.4895105378037385  0.8704459799651332  0.7229232849916654  1.0000
  C   C11       1.0  0.9895162057628399  0.6295628227413204  0.7229284497728442  1.0000
  C   C12       1.0  0.5104915476409957  0.1295578652553573  0.2770779362954414  1.0000
  C   C13       1.0  0.06373968202936452  0.3133288753410568  0.10984484465068788  1.0000
  C   C14       1.0  0.43626243163351563  0.8133344910218551  0.8901604187858749  1.0000
  C   C15       1.0  0.9362599465607673  0.6866719929389687  0.890156776568446  1.0000
  C   C16       1.0  0.5637384236423912  0.18666439261835419  0.10984062038546227  1.0000
  C   C17       1.0  0.9934030246783436  0.28177916431321387  0.19429572744339654  1.0000
  C   C18       1.0  0.5066027479020362  0.7817834158283148  0.8057066442644469  1.0000
  C   C19       1.0  0.006597848249604999  0.7182177346950169  0.8057091325691487  1.0000
  C   C20       1.0  0.49339932695275496  0.21822142170794484  0.19429228451806319  1.0000
  C   C21       1.0  0.15270825330085103  0.43612574763314865  0.10890438189529308  1.0000
  C   C22       1.0  0.3472922660890063  0.9361291532939049  0.8910984329254173  1.0000
  C   C23       1.0  0.8472926090499512  0.5638701590566625  0.891098185613913  1.0000
  C   C24       1.0  0.6527061252446131  0.0638717149904195  0.10890147783879908  1.0000
  C   C25       1.0  0.918455405010377  0.0532670386005947  0.7244984640166905  1.0000
  C   C26       1.0  0.5815483445239238  0.5532650498515536  0.275492771378012  1.0000
  C   C27       1.0  0.0815454679047747  0.9467318450418177  0.27550639599459  1.0000
  C   C28       1.0  0.4184573715754283  0.4467348260775024  0.7244960054125966  1.0000
  C   C29       1.0  0.9423356572967235  0.0402903423213914  0.619280613558736  1.0000
  C   C30       1.0  0.5576670399970212  0.5402857079073797  0.3807127487201356  1.0000
  C   C31       1.0  0.05766520501568101  0.9597115182709784  0.38072195394669  1.0000
  C   C32       1.0  0.4423386866858792  0.4597141680229981  0.6192783205744448  1.0000
  S   S1        1.0  0.9261556532142947  0.32559235041153295  0.3823270498168156  1.0000
  S   S2        1.0  0.5738335511466629  0.8255918292034679  0.6176706061436972  1.0000
  S   S3        1.0  0.07383782437173643  0.6744085178944204  0.6176736608076537  1.0000
  S   S4        1.0  0.426163606413489  0.17441598530525937  0.3823283583291824  1.0000
  S   S5        1.0  0.1597827139279246  0.3173051792626751  0.9511761435218485  1.0000
  S   S6        1.0  0.34021684925237144  0.8173096239806196  0.048820344774576106  1.0000
  S   S7        1.0  0.8402119973931762  0.6826946967214411  0.0488255133901774  1.0000
  S   S8        1.0  0.6597815315168915  0.1826882673510966  0.9511772734875661  1.0000
  S   S9        1.0  0.1129114135556435  0.6093856362101063  0.37730300336586703  1.0000
  S   S10       1.0  0.38707606872966954  0.10939174260097673  0.6226915638331717  1.0000
  S   S11       1.0  0.8870931464405273  0.39061225509921377  0.6227016388348545  1.0000
  S   S12       1.0  0.612916178636347  0.8906121026614429  0.3773089646704761  1.0000
  N   N1        1.0  0.06028285382129182  0.2374800895401988  0.024021625569076797  1.0000
  N   N2        1.0  0.4397202204062154  0.7374877626482857  0.9759799134537843  1.0000
  N   N3        1.0  0.9397167783222926  0.7625168094718903  0.9759807598205652  1.0000
  N   N4        1.0  0.560278170933806  0.262512113318948  0.02401999731106489  1.0000
  N   N5        1.0  0.21496256561904659  0.4489283032511152  0.022539560726329483  1.0000
  N   N6        1.0  0.2850365302228965  0.9489333402903598  0.9774569423544361  1.0000
  N   N7        1.0  0.7850309013962332  0.5510705804193208  0.9774588573954331  1.0000
  N   N8        1.0  0.7149618646513716  0.05106554336022381  0.022543732579031018  1.0000
  N   N9        1.0  0.903924916678328  0.0609824180102621  0.8106400919079418  1.0000
  N   N10       1.0  0.5960775278339979  0.5609821858973162  0.1893563007339765  1.0000
  N   N11       1.0  0.09608085942646478  0.9390124963408227  0.18936167574164384  1.0000
  N   N12       1.0  0.40392452589848193  0.4390157054166437  0.8106380430450101  1.0000
