data_image0
_chemical_formula_structural       Zn2H20C40N6O16
_chemical_formula_sum              "Zn2 H20 C40 N6 O16"
_cell_length_a       14.777467049839947
_cell_length_b       16.12179776759517
_cell_length_c       19.20446836578058
_cell_angle_alpha    89.99512044470332
_cell_angle_beta     90.016336113314
_cell_angle_gamma    89.56014305843439

_space_group_name_H-M_alt    "P 1"
_space_group_IT_number       1

loop_
  _space_group_symop_operation_xyz
  'x, y, z'

loop_
  _atom_site_type_symbol
  _atom_site_label
  _atom_site_symmetry_multiplicity
  _atom_site_fract_x
  _atom_site_fract_y
  _atom_site_fract_z
  _atom_site_occupancy
  Zn  Zn1       1.0  0.5952107118180335  0.49690356460816076  0.4999943143042243  1.0000
  Zn  Zn2       1.0  0.40479959746327415  0.5000729306012985  0.500025547848132  1.0000
  H   H1        1.0  0.6445525328878504  0.5144241365293778  0.27955396747145755  1.0000
  H   H2        1.0  0.5696715846921734  0.05486770698726669  0.39342492185703987  1.0000
  H   H3        1.0  0.9380861611682079  0.634611100285056  0.5402954775476159  1.0000
  H   H4        1.0  0.06189530729659509  0.36551280628825805  0.4597123240470537  1.0000
  H   H5        1.0  0.9800354257703033  0.34339924660540777  0.6045074480981183  1.0000
  H   H6        1.0  0.019959576813469902  0.6567246176425596  0.3954993129193624  1.0000
  H   H7        1.0  0.611591466513097  0.016761803081457995  0.6432745658276386  1.0000
  H   H8        1.0  0.38849992138568723  0.980969324387608  0.35673330526275027  1.0000
  H   H9        1.0  0.2831045982172569  0.011728871054934599  0.5077466345945536  1.0000
  H   H10       1.0  0.7169705243850616  0.9860116068904429  0.49233361422474065  1.0000
  H   H11       1.0  0.0212908082655261  0.5418461709094374  0.6641810257337182  1.0000
  H   H12       1.0  0.3554764978843891  0.5152170699762024  0.7204306739363984  1.0000
  H   H13       1.0  0.9787412130320802  0.4587533400284656  0.335750221885668  1.0000
  H   H14       1.0  0.6454380599639576  0.5390011111786847  0.15033032544626923  1.0000
  H   H15       1.0  0.3544183721152549  0.540011509064854  0.8496446816120763  1.0000
  H   H16       1.0  0.35418906512919074  0.5403916680588949  0.14987468483631963  1.0000
  H   H17       1.0  0.6456561964008642  0.5389869535897206  0.8501164540216306  1.0000
  H   H18       1.0  0.35464903122966257  0.5160672728821393  0.2791520377103892  1.0000
  H   H19       1.0  0.6453345112815327  0.5139003417707925  0.7208883085123501  1.0000
  H   H20       1.0  0.43040767777701205  0.9427034280543081  0.6065397335534042  1.0000
  C   C1        1.0  0.5030502503272701  0.660424288683309  0.49982858068829455  1.0000
  C   C2        1.0  0.4125105808738283  0.025195165550705695  0.5042390435307238  1.0000
  C   C3        1.0  0.5028681065550771  0.9133326291665964  0.49894819509148636  1.0000
  C   C4        1.0  0.4972476998879358  0.08423839113478948  0.5010206283036212  1.0000
  C   C5        1.0  0.5036700468263859  0.8256523877874283  0.498756314382504  1.0000
  C   C6        1.0  0.49644445970294976  0.17190685149886778  0.5012078228302315  1.0000
  C   C7        1.0  0.9664593445573786  0.5754822833454013  0.5226221829688666  1.0000
  C   C8        1.0  0.033470772950785495  0.42462441636678244  0.47738197088106904  1.0000
  C   C9        1.0  0.029683341292240997  0.5158618371575868  0.5659983074842713  1.0000
  C   C10       1.0  0.9702778139105347  0.48426461421308886  0.43400897206184635  1.0000
  C   C11       1.0  0.0290288978755626  0.5620926835828468  0.4572697538311914  1.0000
  C   C12       1.0  0.4971002654453613  0.33711001961662385  0.5002402225722378  1.0000
  C   C13       1.0  0.9709526329220495  0.43801819639207185  0.5427448173664116  1.0000
  C   C14       1.0  0.0923032704863047  0.501357555412923  0.5002866439080477  1.0000
  C   C15       1.0  0.9076532794500097  0.4987403775301615  0.4997175118236326  1.0000
  C   C16       1.0  0.49938186809819735  0.5037075958926848  0.3642353613160266  1.0000
  C   C17       1.0  0.5006865915604806  0.5031808530190602  0.6357847657643843  1.0000
  C   C18       1.0  0.1878414977516627  0.5027628170281626  0.5006086515138576  1.0000
  C   C19       1.0  0.8121336144305146  0.49669058220770523  0.4994054157781631  1.0000
  C   C20       1.0  0.5816512943248995  0.5199693037374828  0.25027597340110214  1.0000
  C   C21       1.0  0.4183330616010537  0.5203049478397828  0.7497172390291096  1.0000
  C   C22       1.0  0.5820344901444797  0.5334726305997533  0.17881883480144714  1.0000
  C   C23       1.0  0.5456781500164212  0.0266211941275003  0.5567512584288605  1.0000
  C   C24       1.0  0.41785549822672147  0.5339505014681335  0.8211512705570028  1.0000
  C   C25       1.0  0.4998144142541818  0.5415468893047263  0.14236259120176695  1.0000
  C   C26       1.0  0.5000280643295767  0.5414864558382533  0.8575925226904172  1.0000
  C   C27       1.0  0.4174746797593157  0.534230013049509  0.17857472857029674  1.0000
  C   C28       1.0  0.5824151504717747  0.5333730015572794  0.8213995377676111  1.0000
  C   C29       1.0  0.4176419513912535  0.520806839882958  0.2500246095116623  1.0000
  C   C30       1.0  0.5823368422728806  0.5196460696402738  0.7499873435327584  1.0000
  C   C31       1.0  0.49957273580601214  0.5142631050239146  0.28651568268508487  1.0000
  C   C32       1.0  0.5004460900237859  0.5137895847101247  0.7134965974045995  1.0000
  C   C33       1.0  0.4998685564761586  0.5575238301381302  0.9326709759151438  1.0000
  C   C34       1.0  0.454419366196788  0.9709542251116755  0.44322277082939354  1.0000
  C   C35       1.0  0.49982382602161113  0.5575160117086284  0.06727860449993267  1.0000
  C   C36       1.0  0.4610820620220721  0.9686083699091977  0.5596008545548158  1.0000
  C   C37       1.0  0.5390398577042745  0.028958288609892698  0.4403778628676489  1.0000
  C   C38       1.0  0.5034960446131862  0.750121560447752  0.49919515782769946  1.0000
  C   C39       1.0  0.4965866710945336  0.24743591600125814  0.5007929302033245  1.0000
  C   C40       1.0  0.5876085308044736  0.9723932117668496  0.4957386317234549  1.0000
  N   N1        1.0  0.41962863146922297  0.5689499887042114  0.034182034406711595  1.0000
  N   N2        1.0  0.5798703328811852  0.5689249689169099  0.9657570427381469  1.0000
  N   N3        1.0  0.41964966106311147  0.5689479787389402  0.96568402055599  1.0000
  N   N4        1.0  0.5798547853025865  0.568913314275086  0.034273282214812184  1.0000
  N   N5        1.0  0.26636953212829434  0.5032239593233073  0.5006926964875686  1.0000
  N   N6        1.0  0.7336380466906931  0.4950687860486695  0.49933806600013486  1.0000
  O   O1        1.0  0.5800421739497353  0.6243462027381027  0.5001733213252846  1.0000
  O   O2        1.0  0.06704890124201059  0.6208983555730397  0.41503250373224876  1.0000
  O   O3        1.0  0.5921684997167204  0.06114830578231078  0.6120456024153283  1.0000
  O   O4        1.0  0.4078900212004584  0.936517177815922  0.38791227997114663  1.0000
  O   O5        1.0  0.3256046690571495  0.057702117353798585  0.5069508777315404  1.0000
  O   O6        1.0  0.6745519570787764  0.9399692594026019  0.49304346048452874  1.0000
  O   O7        1.0  0.0682374214828627  0.5295803922687768  0.6298974684428342  1.0000
  O   O8        1.0  0.9317430918487872  0.47060244538474183  0.37009314804845406  1.0000
  O   O9        1.0  0.42008253704032933  0.3732012194635174  0.49978665113732734  1.0000
  O   O10       1.0  0.42555914216055146  0.6263007935022953  0.5000849858846833  1.0000
  O   O11       1.0  0.5745855748479584  0.37117955819456216  0.5001379492251914  1.0000
  O   O12       1.0  0.5761840631424704  0.49951076452956733  0.3941057180621711  1.0000
  O   O13       1.0  0.423845248884035  0.50036549899459  0.6059010515802823  1.0000
  O   O14       1.0  0.42241040379447975  0.5009855195027909  0.3939445398203956  1.0000
  O   O15       1.0  0.5776167235384052  0.49921701812670705  0.606093463875794  1.0000
  O   O16       1.0  0.9329366777906499  0.37921499299294226  0.5849799848051516  1.0000
