data_image0
_chemical_formula_structural       Zn4H29C43NO13
_chemical_formula_sum              "Zn4 H29 C43 N1 O13"
_cell_length_a       15.063847640937203
_cell_length_b       15.246075288109777
_cell_length_c       19.5148070790489
_cell_angle_alpha    91.19699307363351
_cell_angle_beta     91.08410010971389
_cell_angle_gamma    90.98113306900723

_space_group_name_H-M_alt    "P 1"
_space_group_IT_number       1

loop_
  _space_group_symop_operation_xyz
  'x, y, z'

loop_
  _atom_site_type_symbol
  _atom_site_label
  _atom_site_symmetry_multiplicity
  _atom_site_fract_x
  _atom_site_fract_y
  _atom_site_fract_z
  _atom_site_occupancy
  Zn  Zn1       1.0  0.5678438878274007  0.5725745070442587  0.5631618243559233  1.0000
  Zn  Zn2       1.0  0.5778662302871423  0.4280558544721629  0.4401730827876024  1.0000
  Zn  Zn3       1.0  0.42612873689625985  0.5777017911860085  0.4426991474522241  1.0000
  Zn  Zn4       1.0  0.4264752868899818  0.41701053926160375  0.5493667831533032  1.0000
  H   H1        1.0  0.5928919990798392  0.5805507934029208  0.7723391920344729  1.0000
  H   H2        1.0  0.00015025703620350042  0.327412984929083  0.4586305502400594  1.0000
  H   H3        1.0  0.4397851818652754  0.6366937900394873  0.2362326793841306  1.0000
  H   H4        1.0  0.9986888937807308  0.6818505383072236  0.535566749249931  1.0000
  H   H5        1.0  0.16517188106467273  0.3419180760641965  0.46344736482742405  1.0000
  H   H6        1.0  0.14717367771653037  0.6178158004988817  0.511023268784115  1.0000
  H   H7        1.0  0.5826179377702018  0.3953125498163814  0.2271677196422105  1.0000
  H   H8        1.0  0.5231015743244285  0.5917764147923917  0.9975198360333625  1.0000
  H   H9        1.0  0.41949234074555614  0.34720469109407054  0.8867094983764336  1.0000
  H   H10       1.0  0.41432782050938494  0.3580429616130374  0.7593427470276313  1.0000
  H   H11       1.0  0.48619824063376177  0.3932717736987783  0.9984702125741342  1.0000
  H   H12       1.0  0.5836379489280644  0.40286503142457525  0.09940445368106776  1.0000
  H   H13       1.0  0.5967756487940575  0.5723405625672413  0.8994701160842317  1.0000
  H   H14       1.0  0.6536193203995992  0.2503692179622448  0.7100222013862737  1.0000
  H   H15       1.0  0.6316932077101639  0.1459553211080049  0.7450179197174979  1.0000
  H   H16       1.0  0.7403956676917434  0.1735903909968286  0.718143474138181  1.0000
  H   H17       1.0  0.6650244886531739  0.0738164694493548  0.630200943909877  1.0000
  H   H18       1.0  0.6853266538599811  0.17754665467359132  0.5953595165853545  1.0000
  H   H19       1.0  0.5296400603798972  0.2214651853397811  0.6176379775517165  1.0000
  H   H20       1.0  0.5073176317516825  0.1208755405389823  0.6561009935160488  1.0000
  H   H21       1.0  0.4414318314983632  0.6708724253127442  0.051973352332510124  1.0000
  H   H22       1.0  0.42156314466667066  0.7161431313278896  0.13077079514143017  1.0000
  H   H23       1.0  0.4963518737291821  0.16273754487151143  0.3777764921362278  1.0000
  H   H24       1.0  0.534328169812916  0.99046537514711  0.6479373170703797  1.0000
  H   H25       1.0  0.47708353148527033  0.0005790943050598997  0.3649929942301072  1.0000
  H   H26       1.0  0.5195219410158458  0.8298787131333542  0.633690636037308  1.0000
  H   H27       1.0  0.46908466522727815  0.8548362855969528  0.41782136980140205  1.0000
  H   H28       1.0  0.8519514563390373  0.39512900122397804  0.4713321045933656  1.0000
  H   H29       1.0  0.8341515512804635  0.664012081569311  0.5393017582499342  1.0000
  C   C1        1.0  0.5133940934532147  0.25951857405021167  0.4903310394411166  1.0000
  C   C2        1.0  0.5031541798599547  0.4570285230711733  0.9770072398617277  1.0000
  C   C3        1.0  0.5142116271693524  0.5271024162807693  0.020268704592609814  1.0000
  C   C4        1.0  0.4883975151077633  0.7357665520801929  0.5166663082964364  1.0000
  C   C5        1.0  0.5105312093995947  0.5158146130436165  0.23870847776770185  1.0000
  C   C6        1.0  0.5136097022298072  0.16116719190787177  0.4880076161944943  1.0000
  C   C7        1.0  0.49341928654496314  0.8331061868549481  0.5243935892683427  1.0000
  C   C8        1.0  0.5210411670567154  0.96187454510914  0.5970960135293598  1.0000
  C   C9        1.0  0.5123358484906078  0.8722258722674071  0.5897304517895068  1.0000
  C   C10       1.0  0.48381891389475834  0.8855308630548818  0.46782108323428434  1.0000
  C   C11       1.0  0.49490555084002347  0.9777834699678181  0.47369837311247676  1.0000
  C   C12       1.0  0.5059634667690389  0.4608260981610854  0.9024893891668389  1.0000
  C   C13       1.0  0.5133792421133663  0.0179074012667115  0.5398682975134153  1.0000
  C   C14       1.0  0.5223339674627283  0.1114059953223361  0.5469074293605305  1.0000
  C   C15       1.0  0.49980835094581266  0.12084046437366418  0.422296571774986  1.0000
  C   C16       1.0  0.7354130003584485  0.518880487445216  0.5043234078678938  1.0000
  C   C17       1.0  0.48946448067786713  0.0314344498014165  0.415294302387757  1.0000
  C   C18       1.0  0.8341090379468382  0.5283343692644067  0.5042772174984125  1.0000
  C   C19       1.0  0.1648885199193799  0.4815205167969268  0.4866555394166029  1.0000
  C   C20       1.0  0.0324578687530632  0.39052150387408363  0.47105545784538105  1.0000
  C   C21       1.0  0.12351644980792288  0.3984091551214276  0.4730083060492377  1.0000
  C   C22       1.0  0.11435634955025617  0.5544838362018039  0.500513877647123  1.0000
  C   C23       1.0  0.45703486834126755  0.39894404647500187  0.8616879651472478  1.0000
  C   C24       1.0  0.020627695811732797  0.5470933041570802  0.5030135286330977  1.0000
  C   C25       1.0  0.9786590808575396  0.4638532274739973  0.48623022061229915  1.0000
  C   C26       1.0  0.884950752884805  0.4571760685027969  0.4857445203934675  1.0000
  C   C27       1.0  0.8757193101909309  0.6096333382282071  0.5237388246805781  1.0000
  C   C28       1.0  0.263834263242586  0.4884271955400763  0.48874093121823164  1.0000
  C   C29       1.0  0.9666575815692723  0.6189663275330021  0.5219274494196429  1.0000
  C   C30       1.0  0.5069372723317329  0.5108617415421933  0.31489051445462496  1.0000
  C   C31       1.0  0.4995634229323541  0.4783002204495403  0.6823908978652188  1.0000
  C   C32       1.0  0.5022045924557332  0.47083079416596274  0.7582875110684529  1.0000
  C   C33       1.0  0.5539543480490677  0.5307810132432067  0.7982101537697733  1.0000
  C   C34       1.0  0.45392631023854335  0.4045787900530158  0.7906857826204574  1.0000
  C   C35       1.0  0.555386158113933  0.5261497086590978  0.8691123598387311  1.0000
  C   C36       1.0  0.5468566207536014  0.1519431418274948  0.6160496383688285  1.0000
  C   C37       1.0  0.646312029779203  0.14322472292886348  0.6340838705690148  1.0000
  C   C38       1.0  0.6694484432749163  0.18031702855145676  0.705642565032598  1.0000
  C   C39       1.0  0.47349632243905393  0.5923941956690867  0.13385866844254934  1.0000
  C   C40       1.0  0.4722026935762642  0.5864075117246657  0.20552172565747648  1.0000
  C   C41       1.0  0.5513127899346485  0.44902260002961464  0.20057840097012308  1.0000
  C   C42       1.0  0.551100727306128  0.45349438626153216  0.12968105028151916  1.0000
  C   C43       1.0  0.5129350577318874  0.5239185467507  0.09475992642084216  1.0000
  N   N1        1.0  0.431170456001631  0.66099003225623  0.10231757043368364  1.0000
  O   O1        1.0  0.49919785794219956  0.4986053773115984  0.49736589231491035  1.0000
  O   O2        1.0  0.5592853278767438  0.4569921449212729  0.34361345106729163  1.0000
  O   O3        1.0  0.43933848924668684  0.4339948575534507  0.6491143998594568  1.0000
  O   O4        1.0  0.4514407937326154  0.5603273602134353  0.34509416506981705  1.0000
  O   O5        1.0  0.5578597691734473  0.5289711872214083  0.6564339530740855  1.0000
  O   O6        1.0  0.693124219032704  0.5777398604012519  0.5373544430170656  1.0000
  O   O7        1.0  0.30382716685868877  0.42310029357840045  0.5143180513093456  1.0000
  O   O8        1.0  0.560328916812999  0.29958437617513317  0.44661674335553425  1.0000
  O   O9        1.0  0.4532069381364466  0.7030768251473488  0.46156085391456275  1.0000
  O   O10       1.0  0.4630724526765704  0.29516014655159484  0.5343040507288352  1.0000
  O   O11       1.0  0.5211995769809761  0.6921313340977094  0.5661060249758025  1.0000
  O   O12       1.0  0.7011027260244235  0.452784720963635  0.47164887016863605  1.0000
  O   O13       1.0  0.29993916052826813  0.5578207150522304  0.4655227857175392  1.0000
