data_image0
_chemical_formula_structural       Zn8P8H48C32N16O28
_chemical_formula_sum              "Zn8 P8 H48 C32 N16 O28"
_cell_length_a       9.676534566001308
_cell_length_b       10.47765174200113
_cell_length_c       14.656241371000373
_cell_angle_alpha    89.99999983512818
_cell_angle_beta     90.00002588949926
_cell_angle_gamma    90.00005343129033

_space_group_name_H-M_alt    "P 1"
_space_group_IT_number       1

loop_
  _space_group_symop_operation_xyz
  'x, y, z'

loop_
  _atom_site_type_symbol
  _atom_site_label
  _atom_site_symmetry_multiplicity
  _atom_site_fract_x
  _atom_site_fract_y
  _atom_site_fract_z
  _atom_site_occupancy
  Zn  Zn1       1.0  0.24934194502116472  0.587292006972028  0.9356539774197824  1.0000
  Zn  Zn2       1.0  0.7493410585464559  0.9127076971635261  0.06434607597824987  1.0000
  Zn  Zn3       1.0  0.250658273527634  0.41270708717499377  0.43565334235924513  1.0000
  Zn  Zn4       1.0  0.750658434578213  0.087292784357615  0.5643467130018038  1.0000
  Zn  Zn5       1.0  0.357683571837903  0.9757187835136348  0.8165122597477177  1.0000
  Zn  Zn6       1.0  0.8576834094176746  0.5242800598719555  0.1834878260429775  1.0000
  Zn  Zn7       1.0  0.1423165653505478  0.0242812652730962  0.316510911210564  1.0000
  Zn  Zn8       1.0  0.6423161650666245  0.4757185125971334  0.6834884294546625  1.0000
  P   P1        1.0  0.44786446439626093  0.6960674204627322  0.7817352809112277  1.0000
  P   P2        1.0  0.947864607037971  0.803933409709636  0.2182648318422622  1.0000
  P   P3        1.0  0.052137715898531695  0.3039326283912657  0.2817325399275673  1.0000
  P   P4        1.0  0.5521360246239199  0.1960661171058575  0.7182667737753192  1.0000
  P   P5        1.0  0.4676340582114165  0.8003684713544812  0.9785497279374553  1.0000
  P   P6        1.0  0.9676360283863377  0.6996323759096227  0.021451755333472995  1.0000
  P   P7        1.0  0.03236515620353941  0.1996325315348813  0.47854902827940987  1.0000
  P   P8        1.0  0.5323665357280376  0.30036619687006544  0.52145027951223  1.0000
  H   H1        1.0  0.6832617070191205  0.5484542937051771  0.8644877744359574  1.0000
  H   H2        1.0  0.1832644803581971  0.9515463077174787  0.13551157690243795  1.0000
  H   H3        1.0  0.8167359242134467  0.45154618724224355  0.3644885236165009  1.0000
  H   H4        1.0  0.31673656665442  0.048452787002816  0.6355108691976951  1.0000
  H   H5        1.0  0.528051189496665  0.5194105049767686  0.9260929048200877  1.0000
  H   H6        1.0  0.028052916555118698  0.9805909166772366  0.0739064001124916  1.0000
  H   H7        1.0  0.9719485506612598  0.4805899758539667  0.4260943826186221  1.0000
  H   H8        1.0  0.4719470549606796  0.0194100869848484  0.5739043742983654  1.0000
  H   H9        1.0  0.6696298244123895  0.5966912412149981  0.9801013158706551  1.0000
  H   H10       1.0  0.1696314368490093  0.9033093484222973  0.0198980313918256  1.0000
  H   H11       1.0  0.8303678857709186  0.4033082850994348  0.48010206927834526  1.0000
  H   H12       1.0  0.33036849778574856  0.09669165534285899  0.519898009914776  1.0000
  H   H13       1.0  0.1569873375257131  0.1988747817688932  0.7354928229221471  1.0000
  H   H14       1.0  0.6569864754944277  0.30112596319644774  0.2645085690388669  1.0000
  H   H15       1.0  0.3430127443364128  0.801126221584795  0.23549289655834116  1.0000
  H   H16       1.0  0.843013154318328  0.6988745179426772  0.7645071848460674  1.0000
  H   H17       1.0  0.8910972354676261  0.1611271370757876  0.7313752330729242  1.0000
  H   H18       1.0  0.3910958526552335  0.3388738102788977  0.2686255465802461  1.0000
  H   H19       1.0  0.6089023717199282  0.8388742985388974  0.2313759188983369  1.0000
  H   H20       1.0  0.1089032184047625  0.6611271930111117  0.7686247748137659  1.0000
  H   H21       1.0  0.8225266244007088  0.9556171519837663  0.8055327066008287  1.0000
  H   H22       1.0  0.32252696156338356  0.5443835698332862  0.19446736867853076  1.0000
  H   H23       1.0  0.6774730334281855  0.044384283489392794  0.30553341542143636  1.0000
  H   H24       1.0  0.1774741257099492  0.4556155247744869  0.6944679826647897  1.0000
  H   H25       1.0  0.0705332017929976  0.8451722321821863  0.8631196645089217  1.0000
  H   H26       1.0  0.570534172295524  0.6548282717851422  0.1368803354282093  1.0000
  H   H27       1.0  0.42946490036896273  0.15482972533936126  0.3631197660217964  1.0000
  H   H28       1.0  0.9294664037886449  0.34517030077334704  0.6368803427999976  1.0000
  H   H29       1.0  0.11519024650389302  0.43013364365769746  0.09337184124140659  1.0000
  H   H30       1.0  0.6151895903373229  0.0698670651738666  0.9066281736165748  1.0000
  H   H31       1.0  0.384810771732674  0.5698664055553451  0.593371834556521  1.0000
  H   H32       1.0  0.8848091031000679  0.9301343701058968  0.406626894738224  1.0000
  H   H33       1.0  0.1781413998853694  0.20299976157712502  0.12882159469443613  1.0000
  H   H34       1.0  0.678140947993562  0.2970010016762146  0.8711791212882146  1.0000
  H   H35       1.0  0.3218586091318727  0.7970012419801479  0.62882088617188  1.0000
  H   H36       1.0  0.8218587546638573  0.7029994792593186  0.3711791889077176  1.0000
  H   H37       1.0  0.348965896245538  0.1092937242606737  0.0077005256131954984  1.0000
  H   H38       1.0  0.8489666547561825  0.39070718667210974  0.992299559140477  1.0000
  H   H39       1.0  0.15103403005917931  0.8907063251154312  0.5077004480256874  1.0000
  H   H40       1.0  0.6510351974686728  0.6092932940331581  0.49229957598003427  1.0000
  H   H41       1.0  0.393417128185824  0.3098319979370743  0.8873469347048155  1.0000
  H   H42       1.0  0.893418117693692  0.1901679970118764  0.11265316333914649  1.0000
  H   H43       1.0  0.1065830573745998  0.6901670963021401  0.3873462556970891  1.0000
  H   H44       1.0  0.6065834752747392  0.8098324844179601  0.6126530727151616  1.0000
  H   H45       1.0  0.7473157642658279  0.7899998567803694  0.9018479762043511  1.0000
  H   H46       1.0  0.24731516882810922  0.7099988911913258  0.09815275889110349  1.0000
  H   H47       1.0  0.7526849927621129  0.2099996696847484  0.4018473423859134  1.0000
  H   H48       1.0  0.25268378581645123  0.28999924918704784  0.5981520312777204  1.0000
  C   C1        1.0  0.5602942230678138  0.7186402749534864  0.8834817115319138  1.0000
  C   C2        1.0  0.0602957788118346  0.7813602201624336  0.1165182853440001  1.0000
  C   C3        1.0  0.9397044545626373  0.2813602059581299  0.38348045110270584  1.0000
  C   C4        1.0  0.4397052552309475  0.21863887459411302  0.6165189784772876  1.0000
  C   C5        1.0  0.6124450696725603  0.5877579171599835  0.9158126554129566  1.0000
  C   C6        1.0  0.11244673499754747  0.9122426230407327  0.0841866747521394  1.0000
  C   C7        1.0  0.8875536300370328  0.41224256368992224  0.4158134258901497  1.0000
  C   C8        1.0  0.3875532435380364  0.0877564717770696  0.5841859880973387  1.0000
  C   C9        1.0  0.1007481643074684  0.1178298801161475  0.7629855387177071  1.0000
  C   C10       1.0  0.6007463315988701  0.38216890740497433  0.23701515412530935  1.0000
  C   C11       1.0  0.3992519363289091  0.8821711231850742  0.2629849466110485  1.0000
  C   C12       1.0  0.8992543128657926  0.6178287105500785  0.7370151516083465  1.0000
  C   C13       1.0  0.9287299488190897  0.9876310506418805  0.8006740415282323  1.0000
  C   C14       1.0  0.4287281902403349  0.5123697629877455  0.19932674780721268  1.0000
  C   C15       1.0  0.5712717725475116  0.0123713392537681  0.3006733540900512  1.0000
  C   C16       1.0  0.07126980006795239  0.4876293316094121  0.6993273299399332  1.0000
  C   C17       1.0  0.0518271570289173  0.9337855912158514  0.8267897467936861  1.0000
  C   C18       1.0  0.5518270297728307  0.5662139421671669  0.17321024755045034  1.0000
  C   C19       1.0  0.4481719537518102  0.0662173207877998  0.3267891718744949  1.0000
  C   C20       1.0  0.9481746045489177  0.43378463032243536  0.6732116248437805  1.0000
  C   C21       1.0  0.18583946329003004  0.3727276814783878  0.0533254317268543  1.0000
  C   C22       1.0  0.6858378587890855  0.1272711796048256  0.9466752865572374  1.0000
  C   C23       1.0  0.31416152759902616  0.6272714133987592  0.5533260860418918  1.0000
  C   C24       1.0  0.8141608619962711  0.8727302555985048  0.4466746690394458  1.0000
  C   C25       1.0  0.30927404939700404  0.20625436441662262  0.007723035532123398  1.0000
  C   C26       1.0  0.8092747103548489  0.29374460337759695  0.992277037354256  1.0000
  C   C27       1.0  0.19072691035042766  0.7937447305475586  0.5077229701163687  1.0000
  C   C28       1.0  0.6907271418546372  0.7062558773277132  0.4922770657568022  1.0000
  C   C29       1.0  0.3308317252661865  0.3062815569624604  0.948666876169163  1.0000
  C   C30       1.0  0.8308306096149638  0.19371838388007487  0.0513325208591979  1.0000
  C   C31       1.0  0.16916953559724848  0.6937175371601683  0.44866758046891414  1.0000
  C   C32       1.0  0.6691699080504635  0.8062820976663475  0.5513324489589378  1.0000
  N   N1        1.0  0.962270423636802  0.10288033779443849  0.7613324469428375  1.0000
  N   N2        1.0  0.4622690789594728  0.39712067108996507  0.23866767168689754  1.0000
  N   N3        1.0  0.5377302374360299  0.8971220521758526  0.2613317466995184  1.0000
  N   N4        1.0  0.037731005069453295  0.6028774690206758  0.738668243429984  1.0000
  N   N5        1.0  0.21765555064150985  0.25049610825625024  0.07266941394874489  1.0000
  N   N6        1.0  0.7176550893167928  0.24950468915734084  0.9273306315448834  1.0000
  N   N7        1.0  0.2823454534580705  0.7495048954086413  0.5726693760644324  1.0000
  N   N8        1.0  0.7823446516856407  0.7504957916710284  0.4273300048980032  1.0000
  N   N9        1.0  0.2531696868275759  0.40964724181645806  0.9781771589570025  1.0000
  N   N10       1.0  0.7531684470449989  0.0903535862990026  0.021822214851539498  1.0000
  N   N11       1.0  0.2468315941893096  0.5903537610745034  0.47817856910415196  1.0000
  N   N12       1.0  0.7468299836132459  0.9096478497151779  0.5218228481495542  1.0000
  N   N13       1.0  0.15819017830254006  0.015738326915034396  0.8025871059620895  1.0000
  N   N14       1.0  0.6581884212488092  0.4842614646774593  0.1974136040552565  1.0000
  N   N15       1.0  0.34180994937779013  0.9842636307229358  0.3025864963606963  1.0000
  N   N16       1.0  0.8418111627445554  0.5157361533527336  0.69741358468422  1.0000
  O   O1        1.0  0.5309209973785514  0.6243653214033601  0.7094923511196213  1.0000
  O   O2        1.0  0.030921733345707005  0.8756361027311782  0.2905083192771798  1.0000
  O   O3        1.0  0.9690775614362154  0.3756342054279926  0.20949178147984066  1.0000
  O   O4        1.0  0.4690773526575853  0.12436394610472953  0.7905083391853011  1.0000
  O   O5        1.0  0.40750295945603193  0.8272781012018554  0.7404845894040475  1.0000
  O   O6        1.0  0.9075040317064803  0.6727246029027825  0.2595161935852558  1.0000
  O   O7        1.0  0.0924960923868383  0.17272290214186367  0.24048390780874476  1.0000
  O   O8        1.0  0.5924945612696604  0.32727587824542337  0.7595161002638946  1.0000
  O   O9        1.0  0.3178375163836478  0.6222655220753522  0.8126790751165982  1.0000
  O   O10       1.0  0.8178377121335741  0.8777342412755472  0.187320316457587  1.0000
  O   O11       1.0  0.1821626181876326  0.3777345267186972  0.312679101989822  1.0000
  O   O12       1.0  0.6821618649686202  0.12226624001088739  0.6873202505887192  1.0000
  O   O13       1.0  0.570237638088372  0.8282058609814201  0.0559680486679923  1.0000
  O   O14       1.0  0.07024068214377618  0.6717936883189566  0.9440326334842621  1.0000
  O   O15       1.0  0.9297608158869934  0.1717946205552607  0.5559680566722774  1.0000
  O   O16       1.0  0.4297636758375205  0.3282044514015254  0.44403205223819947  1.0000
  O   O17       1.0  0.4026945371911026  0.9239934722756828  0.9417653893421158  1.0000
  O   O18       1.0  0.9026974415530872  0.5760063644358482  0.058234027603468484  1.0000
  O   O19       1.0  0.09730465210471809  0.07600848509621022  0.4417647094880336  1.0000
  O   O20       1.0  0.5973051476797266  0.4239912538613027  0.5582346177194208  1.0000
  O   O21       1.0  0.3601530534694746  0.703214022799756  0.014650466479508899  1.0000
  O   O22       1.0  0.8601547461830564  0.7967857771338558  0.9853489377466216  1.0000
  O   O23       1.0  0.13984584415369739  0.2967860265626427  0.5146510697143043  1.0000
  O   O24       1.0  0.639848134722392  0.20321279476046777  0.48534963481895926  1.0000
  O   O25       1.0  0.6729017155940156  0.798605760629002  0.854616210179479  1.0000
  O   O26       1.0  0.1729021771825572  0.7013957862486961  0.14538450266742586  1.0000
  O   O27       1.0  0.8270990091813105  0.20139662916324844  0.3546155986367481  1.0000
  O   O28       1.0  0.3270988765719238  0.2986023540404262  0.645384479578915  1.0000
