data_image0
_chemical_formula_structural       Mn8H32C48N8Cl8O24
_chemical_formula_sum              "Mn8 H32 C48 N8 Cl8 O24"
_cell_length_a       6.412085139249501
_cell_length_b       12.995694685364818
_cell_length_c       16.561893358771073
_cell_angle_alpha    90.01148198373362
_cell_angle_beta     89.99875848807332
_cell_angle_gamma    90.04448867388355

_space_group_name_H-M_alt    "P 1"
_space_group_IT_number       1

loop_
  _space_group_symop_operation_xyz
  'x, y, z'

loop_
  _atom_site_type_symbol
  _atom_site_label
  _atom_site_symmetry_multiplicity
  _atom_site_fract_x
  _atom_site_fract_y
  _atom_site_fract_z
  _atom_site_occupancy
  Mn  Mn1       1.0  0.4520991042181564  0.8218287823184838  0.018867680250970402  1.0000
  Mn  Mn2       1.0  0.5476577295113146  0.6783521685760691  0.518538341453329  1.0000
  Mn  Mn3       1.0  0.9531179783623073  0.17859172662458184  0.4807288355050829  1.0000
  Mn  Mn4       1.0  0.04740321222671181  0.32159729742568294  0.981353684786221  1.0000
  Mn  Mn5       1.0  0.5472655717094597  0.1783430468750993  0.9814248412920533  1.0000
  Mn  Mn6       1.0  0.4530025022816345  0.3212588315979303  0.48081462122866725  1.0000
  Mn  Mn7       1.0  0.0480604777879563  0.8215872468449205  0.5185819028780116  1.0000
  Mn  Mn8       1.0  0.9517851295264279  0.6784382582605489  0.018615796463763  1.0000
  H   H1        1.0  0.7880054220937537  0.7797850272773204  0.3542090841511296  1.0000
  H   H2        1.0  0.21271938324500891  0.7201252471223896  0.8542898709447828  1.0000
  H   H3        1.0  0.28620815342795686  0.22015034564152808  0.1458883020483341  1.0000
  H   H4        1.0  0.712751946391826  0.27970372823843803  0.6456591482025473  1.0000
  H   H5        1.0  0.21262394340964622  0.2202430999030156  0.6457066492331125  1.0000
  H   H6        1.0  0.7864286582364244  0.28022504208258425  0.14584869819373134  1.0000
  H   H7        1.0  0.7124530455187922  0.7798736092438788  0.8544066276320452  1.0000
  H   H8        1.0  0.28783972856175677  0.7199965975838581  0.3543090897975958  1.0000
  H   H9        1.0  0.7297791839515639  0.6969598471734814  0.21683880671007225  1.0000
  H   H10       1.0  0.2710161035180434  0.8030863068212356  0.7169777944826023  1.0000
  H   H11       1.0  0.22804793854793104  0.3030150065308277  0.283153682581478  1.0000
  H   H12       1.0  0.7708887288224915  0.19703329972774244  0.7830266360560715  1.0000
  H   H13       1.0  0.27068007868908955  0.3029289772294206  0.7831270318459502  1.0000
  H   H14       1.0  0.7280631426736903  0.1970415673859662  0.2829989403144921  1.0000
  H   H15       1.0  0.7706037824302995  0.6968565832450011  0.7171007808300659  1.0000
  H   H16       1.0  0.2298077532800704  0.8030679668290193  0.2170895628304024  1.0000
  H   H17       1.0  0.9341837440244661  0.061382537960653814  0.22797385162336786  1.0000
  H   H18       1.0  0.06559025706220471  0.43876652551860945  0.7277752542930642  1.0000
  H   H19       1.0  0.43518691625894956  0.9389889270241625  0.272200728129704  1.0000
  H   H20       1.0  0.5655462635325891  0.5611135684343792  0.771863539192239  1.0000
  H   H21       1.0  0.066102447308765  0.9385523946459744  0.7717710024787723  1.0000
  H   H22       1.0  0.9345089083679383  0.5613292696783319  0.27256314490281147  1.0000
  H   H23       1.0  0.5661755227527153  0.0611455490584447  0.7278792412613555  1.0000
  H   H24       1.0  0.4338586726009126  0.4386834259693657  0.2276204700716988  1.0000
  H   H25       1.0  0.8729786755049247  0.9672912776482291  0.0969109477847923  1.0000
  H   H26       1.0  0.12645201180669122  0.5330487823340989  0.5968051165090742  1.0000
  H   H27       1.0  0.3746360292616658  0.03317790294759251  0.4031774925785286  1.0000
  H   H28       1.0  0.6264252303086407  0.4671891347882067  0.9029681560563034  1.0000
  H   H29       1.0  0.12695340324093252  0.0325274075532462  0.9029286953981028  1.0000
  H   H30       1.0  0.8738840164512566  0.46680696486496487  0.40342820174352323  1.0000
  H   H31       1.0  0.6270834620956265  0.9668489150590392  0.5969199760510904  1.0000
  H   H32       1.0  0.3727617366452378  0.5330749251466784  0.0967441262580451  1.0000
  C   C1        1.0  0.888742882234837  0.9797532019695652  0.3825893112175863  1.0000
  C   C2        1.0  0.111458787613536  0.520154944039561  0.8825173057251163  1.0000
  C   C3        1.0  0.38820987704564663  0.0203421927221541  0.11756653213753052  1.0000
  C   C4        1.0  0.6112905630143005  0.479574788192437  0.6172633701299476  1.0000
  C   C5        1.0  0.11155117846586649  0.020272537740233097  0.617205061243652  1.0000
  C   C6        1.0  0.8883441918920384  0.4801023747797474  0.11772510464014371  1.0000
  C   C7        1.0  0.6116289308210129  0.979862029924675  0.8826094562767395  1.0000
  C   C8        1.0  0.38847134250118387  0.5200129996022297  0.3824234956436357  1.0000
  C   C9        1.0  0.8075216103936711  0.8239586241249768  0.29885705423390624  1.0000
  C   C10       1.0  0.19293325068321113  0.6760552336381666  0.7988816269761686  1.0000
  C   C11       1.0  0.3062766794670679  0.1760827483789029  0.2012473259512575  1.0000
  C   C12       1.0  0.6929379193711611  0.32385625851267724  0.7010235816196088  1.0000
  C   C13       1.0  0.19309678409670994  0.17600101336897475  0.701032106808789  1.0000
  C   C14       1.0  0.8061804154694839  0.3242134864115017  0.20127927639470763  1.0000
  C   C15       1.0  0.6929319167044525  0.8239320699991808  0.7989968805749612  1.0000
  C   C16       1.0  0.30737623059105357  0.6759386546719811  0.2988915316422265  1.0000
  C   C17       1.0  0.7739281442866356  0.7769096380967896  0.2254338173331334  1.0000
  C   C18       1.0  0.2264802029847033  0.7231817119607413  0.7254973791779733  1.0000
  C   C19       1.0  0.2727531500901392  0.2231590178913621  0.27462632483103994  1.0000
  C   C20       1.0  0.7264005022993415  0.2768902328365783  0.7744677816417891  1.0000
  C   C21       1.0  0.226568556732424  0.22298996105445212  0.7744915675148649  1.0000
  C   C22       1.0  0.7727175716534447  0.27695081692372275  0.27459951055297444  1.0000
  C   C23       1.0  0.7264179538163447  0.7767765355857322  0.7256118377317193  1.0000
  C   C24       1.0  0.27393254285226487  0.7231332334717208  0.22554395683734904  1.0000
  C   C25       1.0  0.8649225203588244  0.9278827995082536  0.30207465307809406  1.0000
  C   C26       1.0  0.1352858672328665  0.5721472095159966  0.8020147542326655  1.0000
  C   C27       1.0  0.3646229240495131  0.07226669304978371  0.19798369093006582  1.0000
  C   C28       1.0  0.6351859522365616  0.4276831425341286  0.6977952021899939  1.0000
  C   C29       1.0  0.1356912079884367  0.07209222374076062  0.6977903573807682  1.0000
  C   C30       1.0  0.8640960216618866  0.4280961748113086  0.1981968642175289  1.0000
  C   C31       1.0  0.6354278936821487  0.9278236767650869  0.8021204354223953  1.0000
  C   C32       1.0  0.364674306050837  0.5720324066744168  0.3019556753604746  1.0000
  C   C33       1.0  0.8907572009260037  0.9805558276735413  0.22884969171634145  1.0000
  C   C34       1.0  0.10917076531028869  0.5195886028829265  0.7287329256047033  1.0000
  C   C35       1.0  0.39131261299314707  0.019732905150711105  0.2712795662788068  1.0000
  C   C36       1.0  0.6091761203207257  0.48034112679984986  0.7710188127406994  1.0000
  C   C37       1.0  0.1097270492881393  0.019374536095163798  0.770977880736254  1.0000
  C   C38       1.0  0.8907054086613257  0.48053714814614784  0.2715124928800564  1.0000
  C   C39       1.0  0.609577233243158  0.980342234936366  0.7288317989114361  1.0000
  C   C40       1.0  0.3905080124921412  0.5195044224153945  0.2286559979623561  1.0000
  C   C41       1.0  0.8583938889574865  0.9311317395080964  0.15595216544177504  1.0000
  C   C42       1.0  0.1414626102182908  0.5691057024232292  0.6558765920707472  1.0000
  C   C43       1.0  0.35926787362478757  0.0691801732192516  0.34413102503388876  1.0000
  C   C44       1.0  0.6414609383430658  0.431027110646859  0.8439411557934023  1.0000
  C   C45       1.0  0.14188602047953222  0.06875011299580082  0.843915255042319  1.0000
  C   C46       1.0  0.8586770246472141  0.4308885098165264  0.3443162840817564  1.0000
  C   C47       1.0  0.6418995080619752  0.9308126841315313  0.655977312864792  1.0000
  C   C48       1.0  0.35815633477844944  0.5690731393308185  0.15584115107529334  1.0000
  N   N1        1.0  0.7963298299117553  0.8310760256188561  0.1556542545967758  1.0000
  N   N2        1.0  0.20375278095987429  0.6691236891378196  0.655661875902844  1.0000
  N   N3        1.0  0.2963802874696952  0.1691329470477854  0.3444720139252341  1.0000
  N   N4        1.0  0.7036419981357653  0.33102427129811224  0.8442679656399648  1.0000
  N   N5        1.0  0.2039438493114503  0.16881660442058427  0.8442596590475375  1.0000
  N   N6        1.0  0.7960546862670412  0.33089199996482693  0.3444857194471638  1.0000
  N   N7        1.0  0.7038809396140948  0.8307951177777325  0.6557625181145283  1.0000
  N   N8        1.0  0.29625290317225966  0.6691129883726179  0.1556852165092195  1.0000
  Cl  Cl1       1.0  0.6086287250540607  0.6596805656297562  0.9534553437538591  1.0000
  Cl  Cl2       1.0  0.3910067854350885  0.8403632285311249  0.4532697584489257  1.0000
  Cl  Cl3       1.0  0.10973577444796231  0.3408355938616624  0.5469123123523688  1.0000
  Cl  Cl4       1.0  0.8901427603009965  0.15975832730634212  0.04666990055076071  1.0000
  Cl  Cl5       1.0  0.39100402193739114  0.340270439105275  0.0465787340487083  1.0000
  Cl  Cl6       1.0  0.6097000317537394  0.15900703573878167  0.5469025357068348  1.0000
  Cl  Cl7       1.0  0.8907987926611227  0.6596180812705372  0.45332044796689536  1.0000
  Cl  Cl8       1.0  0.1092484178828528  0.8403965434150891  0.9533491000268841  1.0000
  O   O1        1.0  0.8992032639132007  0.07788482804230769  0.3820785376574847  1.0000
  O   O2        1.0  0.1013778095436138  0.42203968343341086  0.881894968319763  1.0000
  O   O3        1.0  0.39885182948852815  0.9222022631576791  0.11813754604916943  1.0000
  O   O4        1.0  0.6010489484339699  0.5776523261322738  0.6177874193037882  1.0000
  O   O5        1.0  0.1015945567395562  0.9221686924403371  0.617588432793923  1.0000
  O   O6        1.0  0.8984142491652704  0.5782130189374045  0.1183673670112526  1.0000
  O   O7        1.0  0.6012879420012212  0.077962766167694  0.8819865108667316  1.0000
  O   O8        1.0  0.3988142934608376  0.4218892906771927  0.38173400213958797  1.0000
  O   O9        1.0  0.890969824468165  0.9236799172428717  0.44503485920142793  1.0000
  O   O10       1.0  0.1089371519625573  0.5762402220664812  0.9449735436206766  1.0000
  O   O11       1.0  0.3899971461476426  0.0763084968690606  0.05501407751686571  1.0000
  O   O12       1.0  0.6087139604605909  0.42342390784030925  0.5548150098801088  1.0000
  O   O13       1.0  0.10828726222248972  0.07651107766955081  0.5548567442128487  1.0000
  O   O14       1.0  0.891768908456676  0.42414038098013424  0.0552320390017584  1.0000
  O   O15       1.0  0.6092240328040717  0.9238378875019818  0.9450852283361684  1.0000
  O   O16       1.0  0.39068595224589586  0.5759437490288093  0.44495516471301505  1.0000
  O   O17       1.0  0.7468317456641457  0.7857035421712483  0.0861601530187528  1.0000
  O   O18       1.0  0.2530607845769737  0.7145823310658417  0.5861942157780149  1.0000
  O   O19       1.0  0.2472192428776268  0.21437208533180296  0.4140615487333861  1.0000
  O   O20       1.0  0.7526110202952694  0.2856858376672662  0.9137724252664372  1.0000
  O   O21       1.0  0.2530146317265007  0.21420978466392876  0.9137670485694329  1.0000
  O   O22       1.0  0.746843377151194  0.28543645838379217  0.41398538035391413  1.0000
  O   O23       1.0  0.7530277470617718  0.7853051428303744  0.5863172707863525  1.0000
  O   O24       1.0  0.24686604685573596  0.7146121775152706  0.08627677582399683  1.0000
