data_image0
_chemical_formula_structural       Zn4H50C72Br8N16
_chemical_formula_sum              "Zn4 H50 C72 Br8 N16"
_cell_length_a       20.22711489091266
_cell_length_b       20.662590785229185
_cell_length_c       20.221905280174965
_cell_angle_alpha    71.01128668838189
_cell_angle_beta     72.65724491725774
_cell_angle_gamma    113.08153550661488

_space_group_name_H-M_alt    "P 1"
_space_group_IT_number       1

loop_
  _space_group_symop_operation_xyz
  'x, y, z'

loop_
  _atom_site_type_symbol
  _atom_site_label
  _atom_site_symmetry_multiplicity
  _atom_site_fract_x
  _atom_site_fract_y
  _atom_site_fract_z
  _atom_site_occupancy
  Zn  Zn1       1.0  0.09797859515970932  0.612422932580955  0.9745760273529952  1.0000
  Zn  Zn2       1.0  0.8857242949185461  0.3893403776018473  0.006290536784000302  1.0000
  Zn  Zn3       1.0  0.968458748843183  0.59336723728957  0.901089679668999  1.0000
  Zn  Zn4       1.0  0.02373603713652269  0.4000361204029446  0.07859996650962829  1.0000
  H   H1        1.0  0.13111659683833218  0.7761335705604894  0.9816595989018421  1.0000
  H   H2        1.0  0.11198419061788203  0.4297237837435546  0.5387284589987615  1.0000
  H   H3        1.0  0.9838818032350359  0.36545068495076544  0.5031247373147422  1.0000
  H   H4        1.0  0.37534477270725114  0.9283174609446192  0.5280910963766913  1.0000
  H   H5        1.0  0.4981674188050531  0.0461836556714345  0.4182287770936455  1.0000
  H   H6        1.0  0.6097234631142567  0.9758015787957601  0.5114409983454349  1.0000
  H   H7        1.0  0.5553688078320886  0.024929074641633433  0.5136481115426719  1.0000
  H   H8        1.0  0.43659189640105484  0.8997878102786531  0.6187545371644843  1.0000
  H   H9        1.0  0.48818576041310285  0.8488614191751653  0.6088785290014723  1.0000
  H   H10       1.0  0.851885250476805  0.6055956426141762  0.03143978667024772  1.0000
  H   H11       1.0  0.6116686087980341  0.9079232095025276  0.42688305349500383  1.0000
  H   H12       1.0  0.9649853114790118  0.39671264234147696  0.8378671442391475  1.0000
  H   H13       1.0  0.4425051442930086  0.8095442190572514  0.45458361573307104  1.0000
  H   H14       1.0  0.4992979475129995  0.998301239478067  0.36023733359431975  1.0000
  H   H15       1.0  0.37078914916242667  0.8845225782930726  0.46654683875829034  1.0000
  H   H16       1.0  0.4829146584554779  0.7862203220379913  0.5186606019616987  1.0000
  H   H17       1.0  0.5077069077795286  0.6085704342269196  0.0183242869789097  1.0000
  H   H18       1.0  0.3591892270694003  0.38208105079124977  0.16067760303942435  1.0000
  H   H19       1.0  0.43668168136505153  0.45667968155354527  0.0602948232341305  1.0000
  H   H20       1.0  0.5230299857145653  0.4198113205945333  0.0899544479503688  1.0000
  H   H21       1.0  0.9587470169765239  0.3829952061931081  0.24518430248772183  1.0000
  H   H22       1.0  0.3995222592406406  0.5266738129197464  0.24036245902781414  1.0000
  H   H23       1.0  0.14445923276899472  0.39647662468105  0.945734168350121  1.0000
  H   H24       1.0  0.3555339499458866  0.4229282530778278  0.2679282295879304  1.0000
  H   H25       1.0  0.5275360635301851  0.5454530926107496  0.22320365655186672  1.0000
  H   H26       1.0  0.5064403753798459  0.6333843007760507  0.09414786978501154  1.0000
  H   H27       1.0  0.6203661348656339  0.6230247345877372  0.0786732711034189  1.0000
  H   H28       1.0  0.47324670512744405  0.43815362407670483  0.2770887943694689  1.0000
  H   H29       1.0  0.03143110562625399  0.08971918235376108  0.017477356859750184  1.0000
  H   H30       1.0  0.009060119440015184  0.9683284594450257  0.023720589724994762  1.0000
  H   H31       1.0  0.9678986798966986  0.9726900246004107  0.9178408783280856  1.0000
  H   H32       1.0  0.9679777541865348  0.0782532532738004  0.9367046291509097  1.0000
  H   H33       1.0  0.22204372413033716  0.10136826826787634  0.8590252931386287  1.0000
  H   H34       1.0  0.920711753114624  0.26367901300551483  0.9400295235496258  1.0000
  H   H35       1.0  0.20465649924067  0.09926761400848245  0.7785234299281996  1.0000
  H   H36       1.0  0.11279114843340202  0.004679227424602976  0.9992510285723952  1.0000
  H   H37       1.0  0.1672602172066533  0.19525308477165754  0.7643911957470024  1.0000
  H   H38       1.0  0.8908549902187203  0.21224682522416305  0.25066657031100453  1.0000
  H   H39       1.0  0.10858283686803108  0.667424486958808  0.7212208583967051  1.0000
  H   H40       1.0  0.013940838799151084  0.5843200705404785  0.40434746635680313  1.0000
  H   H41       1.0  0.9164681807499517  0.4456996665203831  0.5618532596866642  1.0000
  H   H42       1.0  0.5748108929427218  0.9245870137899035  0.358132115024773  1.0000
  H   H43       1.0  0.6906676735948736  0.35077171710186406  0.11347873871563512  1.0000
  H   H44       1.0  0.024478494046327588  0.14016605890421374  0.8311961720399736  1.0000
  H   H45       1.0  0.25329456738187855  0.6408560811508578  0.8366406245211236  1.0000
  H   H46       1.0  0.14709156979500895  0.6409723826089859  0.10830201737699226  1.0000
  H   H47       1.0  0.9578294844141054  0.6106218222985192  0.731294698965165  1.0000
  H   H48       1.0  0.142415105399877  0.6481541014515598  0.44042244200689123  1.0000
  H   H49       1.0  0.7259273439509996  0.2582089047435475  0.17726816868808717  1.0000
  H   H50       1.0  0.20877990257144305  0.5674124266552026  0.38230064549249926  1.0000
  C   C1        1.0  0.09165668229419309  0.7621710370043431  0.9552588337818051  1.0000
  C   C2        1.0  0.20671464236475148  0.6411257989172724  0.8206433583576781  1.0000
  C   C3        1.0  0.17005267155004594  0.4317084648138093  0.10633049486106921  1.0000
  C   C4        1.0  0.7782923483058893  0.25974580026827  0.18258507797512633  1.0000
  C   C5        1.0  0.9532710683224862  0.556708481548668  0.7705399714554916  1.0000
  C   C6        1.0  0.24801290962242478  0.5004876905487593  0.07611948237495612  1.0000
  C   C7        1.0  0.9746999448832271  0.5054600561135701  0.7514459983958446  1.0000
  C   C8        1.0  0.21222526858193902  0.6736139597787982  0.7450052259843217  1.0000
  C   C9        1.0  0.047875259018077466  0.31400812738860395  0.9273031841423387  1.0000
  C   C10       1.0  0.9812768408091512  0.4727839874454886  0.5207184007457499  1.0000
  C   C11       1.0  0.03516927385803115  0.5499930932559209  0.4355501706599226  1.0000
  C   C12       1.0  0.7778901945278776  0.20171316972609782  0.2436333113208277  1.0000
  C   C13       1.0  0.06595698826564701  0.5059179110670087  0.2740861772122186  1.0000
  C   C14       1.0  0.006772491404675003  0.5093652042477502  0.6771723760556155  1.0000
  C   C15       1.0  0.018470176662972924  0.42825394804712147  0.48993439455294646  1.0000
  C   C16       1.0  0.8245775308533253  0.5428133451662162  0.04526647531494615  1.0000
  C   C17       1.0  0.0719225112373393  0.505120809634377  0.40236031214634216  1.0000
  C   C18       1.0  0.08993787862417683  0.463941225785767  0.5086773351906189  1.0000
  C   C19       1.0  0.052244167713631384  0.5085819781148118  0.5414788304909876  1.0000
  C   C20       1.0  0.1437033991244122  0.5406441107952135  0.42247034128801164  1.0000
  C   C21       1.0  0.10689414361884522  0.5854127311465049  0.4537502019174936  1.0000
  C   C22       1.0  0.07439472494627351  0.504386082642256  0.3318176495548854  1.0000
  C   C23       1.0  0.7413928986523929  0.47831811253395534  0.09259758126735534  1.0000
  C   C24       1.0  0.03407314636338991  0.509966104560817  0.6141714535482307  1.0000
  C   C25       1.0  0.49320617936506744  0.9912136882241215  0.418441649954971  1.0000
  C   C26       1.0  0.5557313403577239  0.9738247750168652  0.508234674875247  1.0000
  C   C27       1.0  0.4754223523573487  0.8917409781848635  0.575151944029315  1.0000
  C   C28       1.0  0.002713833778472043  0.44692347714521224  0.20018525038403806  1.0000
  C   C29       1.0  0.284132511399612  0.7256621534313936  0.6692525133303063  1.0000
  C   C30       1.0  0.5661385994894702  0.9871641116729605  0.4249810707551515  1.0000
  C   C31       1.0  0.4100425617325668  0.9136495194530311  0.48875738728173684  1.0000
  C   C32       1.0  0.4250222441590311  0.8519247910590836  0.5392964478866914  1.0000
  C   C33       1.0  0.4765884969773852  0.8340755028327609  0.482868306483425  1.0000
  C   C34       1.0  0.05643313177228045  0.509888677165172  0.20698416389665636  1.0000
  C   C35       1.0  0.5620614938612646  0.9128995682712145  0.4189794704578772  1.0000
  C   C36       1.0  0.3473036678407411  0.7791580732454974  0.6062589659158703  1.0000
  C   C37       1.0  0.6436992196256809  0.06248697855318835  0.3617885906385964  1.0000
  C   C38       1.0  0.7076633030563144  0.12672666565003243  0.3090533375135323  1.0000
  C   C39       1.0  0.5030714376302398  0.5868426052058168  0.07769023598817866  1.0000
  C   C40       1.0  0.7423572927249253  0.41246439245107064  0.08652160697241135  1.0000
  C   C41       1.0  0.4210070511527064  0.4377533651915897  0.12317346311697722  1.0000
  C   C42       1.0  0.48495756076211904  0.42322151822728676  0.13834483398594694  1.0000
  C   C43       1.0  0.6717122043568934  0.4815784904166379  0.12635625622164764  1.0000
  C   C44       1.0  0.4193323175810306  0.505575405635625  0.13960355129466234  1.0000
  C   C45       1.0  0.2574717891646472  0.5556603276347261  0.004645160856860249  1.0000
  C   C46       1.0  0.5737909160464199  0.5750223584219826  0.07631520627183616  1.0000
  C   C47       1.0  0.5412454916613356  0.4915974016359355  0.1483319145919494  1.0000
  C   C48       1.0  0.4888717484271652  0.4901817518159959  0.22348010322762227  1.0000
  C   C49       1.0  0.4100947382110363  0.4845731137096224  0.2238363990331321  1.0000
  C   C50       1.0  0.6106200713711727  0.48487192534487633  0.1472094439529314  1.0000
  C   C51       1.0  0.3534626481741653  0.5109003116679034  0.12840123786965296  1.0000
  C   C52       1.0  0.09942711123478895  0.5788641425886354  0.1302334003465686  1.0000
  C   C53       1.0  0.30389350535565995  0.5080139874921414  0.10505120906436342  1.0000
  C   C54       1.0  0.07305758009695018  0.018762627798359563  0.9789704453800354  1.0000
  C   C55       1.0  0.027647654427433044  0.030420495839734853  0.8772094483704007  1.0000
  C   C56       1.0  0.9565719125195072  0.447165789102378  0.8255452520629802  1.0000
  C   C57       1.0  0.024755118780042537  0.1015769720002808  0.8831047302162672  1.0000
  C   C58       1.0  0.07592239259620454  0.26878755460499787  0.9030681539660249  1.0000
  C   C59       1.0  0.09344675173964835  0.022866718044511448  0.8967053700396691  1.0000
  C   C60       1.0  0.0857150601760281  0.09972925768943243  0.9716551706386767  1.0000
  C   C61       1.0  0.10038917165203287  0.1559563598582017  0.8888920361158625  1.0000
  C   C62       1.0  0.17561892288782113  0.17592426724914378  0.816903523247298  1.0000
  C   C63       1.0  0.180630591502421  0.10061196599390596  0.8339931360208013  1.0000
  C   C64       1.0  0.8620428575360393  0.23553398740282447  0.2206839757748043  1.0000
  C   C65       1.0  0.09570967332069101  0.22450572748300612  0.8882362919994548  1.0000
  C   C66       1.0  0.08767411808644715  0.948477000771149  0.903698883709893  1.0000
  C   C67       1.0  0.13175304241224234  0.6543927719434991  0.7625246126164739  1.0000
  C   C68       1.0  0.07571106869929155  0.882727738710571  0.9137722705766008  1.0000
  C   C69       1.0  0.013932615030867764  0.7594225922404051  0.8981415617612991  1.0000
  C   C70       1.0  0.06150926902731876  0.807501938082723  0.9223535819693109  1.0000
  C   C71       1.0  0.08480078469813897  0.3714092745546084  0.9485554778131016  1.0000
  C   C72       1.0  0.9698203369319384  0.3031579332642874  0.9464486846281871  1.0000
  Br  Br1       1.0  0.1108785803232095  0.33153933948285186  0.2015642718695502  1.0000
  Br  Br2       1.0  0.6385617689223224  0.5883625830987999  0.9714266850367035  1.0000
  Br  Br3       1.0  0.43235418339057213  0.31472753158255523  0.23321993069517788  1.0000
  Br  Br4       1.0  0.04806876901172784  0.042444010633481306  0.7703629034438322  1.0000
  Br  Br5       1.0  0.28209065892069407  0.2717176265120429  0.7814133478401857  1.0000
  Br  Br6       1.0  0.17194028503217135  0.1514262848167647  0.9975947320635684  1.0000
  Br  Br7       1.0  0.9515981350311973  0.7784036457816085  0.85145249023374  1.0000
  Br  Br8       1.0  0.34734863033649777  0.663900103894477  0.9310858545724654  1.0000
  N   N1        1.0  0.06493819247780426  0.6942662951724119  0.9499007075709754  1.0000
  N   N2        1.0  0.8708493830180118  0.5173010626182873  0.01297879773267128  1.0000
  N   N3        1.0  0.01377373926850122  0.47550537416373123  0.1249743936114384  1.0000
  N   N4        1.0  0.8195426800220528  0.43689732369703177  0.038404033270054816  1.0000
  N   N5        1.0  0.07336670210255403  0.5569323338100958  0.0826393043945613  1.0000
  N   N6        1.0  0.9075551443273184  0.3068015379650646  0.1510727721472874  1.0000
  N   N7        1.0  0.016679977491385386  0.6926267100521173  0.9142002702931934  1.0000
  N   N8        1.0  0.19367723039082543  0.5242067377804176  0.992779314819998  1.0000
  N   N9        1.0  0.9266364402929738  0.462168014653038  0.8836191948257052  1.0000
  N   N10       1.0  0.08293894102901328  0.6155090007826018  0.8420823723343175  1.0000
  N   N11       1.0  0.03223031379274494  0.39200885945756886  0.9788192740200401  1.0000
  N   N12       1.0  0.9615867528907245  0.34980433012507445  0.9770915011418422  1.0000
  N   N13       1.0  0.12884520353014753  0.6070389626422354  0.878073445831724  1.0000
  N   N14       1.0  0.1390176973843538  0.4458031884607365  0.056831963357815485  1.0000
  N   N15       1.0  0.9244538877076703  0.5305208392535333  0.8496205013658551  1.0000
  N   N16       1.0  0.8560670175868949  0.32210709581985936  0.12746171300187834  1.0000
