data_image0
_chemical_formula_structural       Cu2H22C22N10O6
_chemical_formula_sum              "Cu2 H22 C22 N10 O6"
_cell_length_a       7.614357936479862
_cell_length_b       9.03680013596724
_cell_length_c       9.61811114897437
_cell_angle_alpha    71.8070780817439
_cell_angle_beta     70.92925206890952
_cell_angle_gamma    81.75890138395202

_space_group_name_H-M_alt    "P 1"
_space_group_IT_number       1

loop_
  _space_group_symop_operation_xyz
  'x, y, z'

loop_
  _atom_site_type_symbol
  _atom_site_label
  _atom_site_symmetry_multiplicity
  _atom_site_fract_x
  _atom_site_fract_y
  _atom_site_fract_z
  _atom_site_occupancy
  Cu  Cu1       1.0  0.44997205730255974  0.14775457071384326  0.5482486508368183  1.0000
  Cu  Cu2       1.0  0.5500282666201527  0.852246766764367  0.45175370525861075  1.0000
  H   H1        1.0  0.3672975769264183  0.4854184615441497  0.46961143790029786  1.0000
  H   H2        1.0  0.6327010872035713  0.5145875410079698  0.5303889531147092  1.0000
  H   H3        1.0  0.11722373125439839  0.6628693865096057  0.5776603907950387  1.0000
  H   H4        1.0  0.8827721428760283  0.33713661623917807  0.4223396985191171  1.0000
  H   H5        1.0  0.8247702284927881  0.5490980344791012  0.7755272330797638  1.0000
  H   H6        1.0  0.1752243637620694  0.4509056386046454  0.2244717972586585  1.0000
  H   H7        1.0  0.063554575115937  0.09484470171201313  0.7380501573904111  1.0000
  H   H8        1.0  0.9364456729724112  0.9051578033723048  0.2619508375273653  1.0000
  H   H9        1.0  0.9738958065739638  0.35003915502878163  0.057925020388779606  1.0000
  H   H10       1.0  0.0261047546098823  0.6499575213658845  0.942076556736211  1.0000
  H   H11       1.0  0.9825812805510951  0.14728640392211642  0.07845229664734887  1.0000
  H   H12       1.0  0.01741641479882359  0.8527114402753215  0.9215476175991383  1.0000
  H   H13       1.0  0.8369186451613757  0.22263859820657939  0.2314067360886227  1.0000
  H   H14       1.0  0.16308050450361114  0.7773580806216458  0.7685931342656785  1.0000
  H   H15       1.0  0.31930771561229676  0.3676893746007721  0.04036160775761035  1.0000
  H   H16       1.0  0.680691833995276  0.6323003063748802  0.9596412432617356  1.0000
  H   H17       1.0  0.36971612930898345  0.16352218443055486  0.0855753182075532  1.0000
  H   H18       1.0  0.6302888155908232  0.8364698360344466  0.9144223020176483  1.0000
  H   H19       1.0  0.572625503494656  0.4147774689096053  0.8069378184257091  1.0000
  H   H20       1.0  0.42737488524970496  0.5852227025193102  0.19306486156719416  1.0000
  H   H21       1.0  0.7742742980339442  0.10580238424244473  0.9195797362578944  1.0000
  H   H22       1.0  0.22573152879885333  0.8941989637401663  0.08041596227798918  1.0000
  C   C1        1.0  0.2398188487682518  0.439250712227434  0.5562056718773575  1.0000
  C   C2        1.0  0.7601827239918677  0.5607529595862604  0.44379463135327046  1.0000
  C   C3        1.0  0.09907491522819359  0.5377659101579583  0.6181120006546905  1.0000
  C   C4        1.0  0.9009225318478684  0.4622365966798372  0.381887655282064  1.0000
  C   C5        1.0  0.9381809194123465  0.47337906582821204  0.7282230245581686  1.0000
  C   C6        1.0  0.061819230816197994  0.5266246099758548  0.2717745346215921  1.0000
  C   C7        1.0  0.9212090664407669  0.3114773413227212  0.775005536245281  1.0000
  C   C8        1.0  0.07878970530708072  0.6885263322444432  0.22499342800432492  1.0000
  C   C9        1.0  0.06836682538011017  0.22132014806330608  0.7068079336664964  1.0000
  C   C10       1.0  0.9316345736858479  0.7786858620762447  0.29318757264847045  1.0000
  C   C11       1.0  0.7556576398007308  0.2332113841205512  0.9009179537216171  1.0000
  C   C12       1.0  0.2443440723607324  0.7667887973293475  0.099078134800564  1.0000
  C   C13       1.0  0.8904992163081077  0.24575988946809002  0.10669527515176458  1.0000
  C   C14       1.0  0.1095012580286578  0.7542379560895045  0.8933039035153881  1.0000
  C   C15       1.0  0.5557440886018769  0.28719169146237533  0.12856409553685202  1.0000
  C   C16       1.0  0.44425930537774144  0.7128038217999805  0.8714360326261142  1.0000
  C   C17       1.0  0.43243822578534  0.27777979708362477  0.036374068873975346  1.0000
  C   C18       1.0  0.5675625188507208  0.7222133827199857  0.9636274426632737  1.0000
  C   C19       1.0  0.5633756732863802  0.29173474927324616  0.8750766754415551  1.0000
  C   C20       1.0  0.43662342256968145  0.7082630940474532  0.12492390829544303  1.0000
  C   C21       1.0  0.5044374865828871  0.20200383863577542  0.7881583305666595  1.0000
  C   C22       1.0  0.49556835126263366  0.7979975077900223  0.21183840524940212  1.0000
  N   N1        1.0  0.32628899534164185  0.9949056163893035  0.5015528979976055  1.0000
  N   N2        1.0  0.6737115560841572  0.005092218270576201  0.49845354163079497  1.0000
  N   N3        1.0  0.2280650786694594  0.0384917785401484  0.41750429986638693  1.0000
  N   N4        1.0  0.7719268862672876  0.9615095579712194  0.5824981884066815  1.0000
  N   N5        1.0  0.1309823075363283  0.07852171679545711  0.3403995793841331  1.0000
  N   N6        1.0  0.8690139237404891  0.921478451036407  0.6596052412579497  1.0000
  N   N7        1.0  0.22392652549973488  0.284040197739536  0.6001632954733367  1.0000
  N   N8        1.0  0.7760722034519033  0.7159646387632892  0.39983741943915146  1.0000
  N   N9        1.0  0.7352354818613024  0.2660710266499678  0.04601368634855159  1.0000
  N   N10       1.0  0.2647649166410986  0.7339279865137415  0.953984131140949  1.0000
  O   O1        1.0  0.5750342423674226  0.2519040738570413  0.6396529350003347  1.0000
  O   O2        1.0  0.4249685572046785  0.748101935405771  0.360343240805143  1.0000
  O   O3        1.0  0.3954453258565493  0.09357508221872733  0.8555843751544856  1.0000
  O   O4        1.0  0.6045606085940918  0.9064239367789355  0.14440989661600412  1.0000
  O   O5        1.0  0.5039882510278914  0.30877692357329783  0.25806636120035614  1.0000
  O   O6        1.0  0.4960138182799483  0.6912174229596816  0.7419344586497516  1.0000
