data_image0
_chemical_formula_structural       Ag4H22C48N6O8F12
_chemical_formula_sum              "Ag4 H22 C48 N6 O8 F12"
_cell_length_a       7.0232788160036
_cell_length_b       11.121888930519543
_cell_length_c       15.293620389035786
_cell_angle_alpha    89.99979322345384
_cell_angle_beta     90.00015904791046
_cell_angle_gamma    94.90262191433311

_space_group_name_H-M_alt    "P 1"
_space_group_IT_number       1

loop_
  _space_group_symop_operation_xyz
  'x, y, z'

loop_
  _atom_site_type_symbol
  _atom_site_label
  _atom_site_symmetry_multiplicity
  _atom_site_fract_x
  _atom_site_fract_y
  _atom_site_fract_z
  _atom_site_occupancy
  Ag  Ag1       1.0  0.2500027089231693  5.127193958300028e-06  0.741994520037679  1.0000
  Ag  Ag2       1.0  0.7500064685814106  2.858432878799884e-06  0.2580074214210271  1.0000
  Ag  Ag3       1.0  0.2499934155408851  0.9999977810392977  0.5523108495816658  1.0000
  Ag  Ag4       1.0  0.7499954314686048  0.9999955200154245  0.4476897776093836  1.0000
  H   H1        1.0  0.8279381735825451  0.6197721248274276  0.8651840168290477  1.0000
  H   H2        1.0  0.6720705346869733  0.38023378499004673  0.8651829203876888  1.0000
  H   H3        1.0  0.1720778574791098  0.3802389279829868  0.13481661362599345  1.0000
  H   H4        1.0  0.3279362454573087  0.6197718360491606  0.1348157484661314  1.0000
  H   H5        1.0  0.9174674233311176  0.7370627032417331  0.1818571665923088  1.0000
  H   H6        1.0  0.582535951904951  0.2629436988300354  0.1818549519199664  1.0000
  H   H7        1.0  0.08253496657255967  0.2629420067471386  0.8181467331991144  1.0000
  H   H8        1.0  0.41746655558948476  0.7370619135929531  0.8181450246658742  1.0000
  H   H9        1.0  0.013049598355337389  0.8816206626975925  0.0642602882810905  1.0000
  H   H10       1.0  0.48696177237663096  0.11838320973058099  0.0642570242023979  1.0000
  H   H11       1.0  0.9869613368582291  0.11838406451452241  0.935744919250773  1.0000
  H   H12       1.0  0.5130490452206615  0.8816206150704103  0.9357422985238486  1.0000
  H   H13       1.0  0.9073869503536187  0.3415961586126172  0.24517754481874482  1.0000
  H   H14       1.0  0.5926149773881659  0.6584072365553553  0.24517888359406476  1.0000
  H   H15       1.0  0.09261034366794256  0.6584022258086079  0.7548178547012513  1.0000
  H   H16       1.0  0.4073913323641561  0.3415947747734619  0.7548243623360662  1.0000
  H   H17       1.0  0.905770505079573  0.3413164493961673  0.40748509046033393  1.0000
  H   H18       1.0  0.5942183909367953  0.6586780374570651  0.4074864306363537  1.0000
  H   H19       1.0  0.09421683242562294  0.6586710886982272  0.5925109629347247  1.0000
  H   H20       1.0  0.40577653807800823  0.3413131246769295  0.5925161614330889  1.0000
  H   H21       1.0  0.7499923470669639  0.49999569475606614  0.48888015692718784  1.0000
  H   H22       1.0  0.24999617946255623  0.4999900413518857  0.5111191658080827  1.0000
  C   C1        1.0  0.9805285455521114  0.844464608222836  0.8925050188253963  1.0000
  C   C2        1.0  0.5194893206114414  0.15554480047577363  0.8925062719692037  1.0000
  C   C3        1.0  0.019492947180310694  0.15554465122040986  0.10749626550300921  1.0000
  C   C4        1.0  0.4805250510339433  0.8444644446106863  0.1074956662219364  1.0000
  C   C5        1.0  0.9257251935330896  0.7589808430140578  0.9582913490654548  1.0000
  C   C6        1.0  0.574284116867126  0.241025532880613  0.9582911425823968  1.0000
  C   C7        1.0  0.07429036712810697  0.241026600093626  0.04171058912882591  1.0000
  C   C8        1.0  0.42572432269852806  0.7589818958779444  0.0417081801375616  1.0000
  C   C9        1.0  0.84654631915798  0.6433484582058709  0.9339564649564807  1.0000
  C   C10       1.0  0.6534627470028409  0.35665712930929055  0.9339560596689083  1.0000
  C   C11       1.0  0.15346508644924478  0.35665987871510646  0.0660448193664749  1.0000
  C   C12       1.0  0.34654711678226835  0.6433503023187797  0.0660439169193978  1.0000
  C   C13       1.0  0.7916515118510998  0.561675349951038  0.9998062152795413  1.0000
  C   C14       1.0  0.7083540947449478  0.43833353004284686  0.999807629809368  1.0000
  C   C15       1.0  0.20835882233616582  0.43833569137823497  0.00019310743692810002  1.0000
  C   C16       1.0  0.29165173158884267  0.5616756978219043  0.0001923467739218  1.0000
  C   C17       1.0  0.8159193516640142  0.5965048488104259  0.0892140795087428  1.0000
  C   C18       1.0  0.684083423865786  0.40350108500080484  0.0892142456360148  1.0000
  C   C19       1.0  0.18408565146302175  0.40349806207991173  0.9107858970822849  1.0000
  C   C20       1.0  0.31592074304663237  0.5965063351445962  0.9107850770811368  1.0000
  C   C21       1.0  0.8969156637334733  0.7106450695269189  0.1137091642881316  1.0000
  C   C22       1.0  0.6030934065415747  0.2893643706735459  0.1137088690444941  1.0000
  C   C23       1.0  0.10308992740689857  0.28936235348034234  0.886294081634432  1.0000
  C   C24       1.0  0.39691669244716365  0.7106448658028269  0.8862917614090124  1.0000
  C   C25       1.0  0.9506575812053196  0.791611246122954  0.0473755522462653  1.0000
  C   C26       1.0  0.549350908675379  0.2083967000938856  0.04737736005098011  1.0000
  C   C27       1.0  0.049353706800935995  0.20839618837310772  0.952625732077806  1.0000
  C   C28       1.0  0.45065741329611336  0.7916098262336246  0.9526245781397338  1.0000
  C   C29       1.0  0.7499966661014381  0.5000017115894692  0.2355254965183278  1.0000
  C   C30       1.0  0.24999694328361238  0.5000011763324677  0.7644744800652177  1.0000
  C   C31       1.0  0.8387229375967564  0.4108728916387958  0.2808406451786709  1.0000
  C   C32       1.0  0.661277045911767  0.5891249189735887  0.2808422561258653  1.0000
  C   C33       1.0  0.16127423882723949  0.5891245903544515  0.7191560620772465  1.0000
  C   C34       1.0  0.3387232141649719  0.41087437359780665  0.7191603359364366  1.0000
  C   C35       1.0  0.8376473159821173  0.41095351047217576  0.37201657030776414  1.0000
  C   C36       1.0  0.662347445131864  0.5890438613618726  0.3720181828814972  1.0000
  C   C37       1.0  0.16234464698432297  0.5890367435055238  0.62798144468902  1.0000
  C   C38       1.0  0.3376508027171922  0.4109509162184821  0.6279824475831576  1.0000
  C   C39       1.0  0.7499947750930499  0.49999406243863836  0.417700804213176  1.0000
  C   C40       1.0  0.24999410423936294  0.49999438094406656  0.5822985185187763  1.0000
  C   C41       1.0  0.9706322657532097  0.15647560554641868  0.6348631913599405  1.0000
  C   C42       1.0  0.5293540112734545  0.8435214167979126  0.6348613458979813  1.0000
  C   C43       1.0  0.029357436753635092  0.8435191548398039  0.365123707883427  1.0000
  C   C44       1.0  0.47063426701053146  0.15647334072185967  0.3651235917422113  1.0000
  C   C45       1.0  0.7956152835046236  0.2332562400141142  0.6368239237071123  1.0000
  C   C46       1.0  0.7043663782774201  0.7667380572462363  0.6368251257644957  1.0000
  C   C47       1.0  0.20437584325229347  0.7667385232140517  0.3631753990180401  1.0000
  C   C48       1.0  0.2956112249105657  0.23325126559603146  0.363172889224046  1.0000
  N   N1        1.0  0.02471934514941403  0.9155718502509411  0.8382895328826977  1.0000
  N   N2        1.0  0.4752892853053864  0.08443108763639628  0.8382811114998674  1.0000
  N   N3        1.0  0.9753019124014911  0.0844356043240921  0.1617195978568731  1.0000
  N   N4        1.0  0.5247171420189785  0.9155718261433775  0.1617110186831354  1.0000
  N   N5        1.0  0.7500022374365896  0.5000028444576826  0.14208261225565622  1.0000
  N   N6        1.0  0.25000169427389807  0.500002770837888  0.8579167104637051  1.0000
  O   O1        1.0  0.06123259293201499  0.15180301577739638  0.705006224777904  1.0000
  O   O2        1.0  0.4387576653369435  0.8481960001318426  0.7050107915939493  1.0000
  O   O3        1.0  0.9387855809661616  0.8482026282194896  0.2949970211552825  1.0000
  O   O4        1.0  0.5612221853061783  0.1517996425283172  0.2949989930012293  1.0000
  O   O5        1.0  0.9970286618407512  0.10514487902575809  0.562323225249969  1.0000
  O   O6        1.0  0.5029583091166997  0.8948497788616265  0.5623257874747694  1.0000
  O   O7        1.0  0.0029625825324401836  0.8948507866135315  0.43768198228079314  1.0000
  O   O8        1.0  0.49702629757778266  0.1051386558941303  0.4376794200610945  1.0000
  F   F1        1.0  0.7988678472792399  0.30947856009090197  0.7065816708850721  1.0000
  F   F2        1.0  0.7011120476882338  0.6905099928378319  0.706579799179373  1.0000
  F   F3        1.0  0.20112162006310536  0.6905143954117818  0.29341961344358947  1.0000
  F   F4        1.0  0.2988597540203556  0.3094675898796381  0.29341298488142803  1.0000
  F   F5        1.0  0.7835608789363203  0.30139150143653376  0.5635880607038645  1.0000
  F   F6        1.0  0.7164284636189249  0.6986103728024701  0.5635868418296042  1.0000
  F   F7        1.0  0.21643629749788565  0.6986059805475193  0.43641256975653425  1.0000
  F   F8        1.0  0.28355790706110884  0.30139159835307794  0.436407249943656  1.0000
  F   F9        1.0  0.6306108205324746  0.15878811534691548  0.6426367938722352  1.0000
  F   F10       1.0  0.869373249546555  0.8412025507001386  0.6426439030165554  1.0000
  F   F11       1.0  0.3693866040979187  0.8412003452697548  0.3573592595282662  1.0000
  F   F12       1.0  0.13060518987477107  0.1587822628702185  0.35736195838740065  1.0000
