data_image0
_chemical_formula_structural       Cd4H104C100S8N16O16
_chemical_formula_sum              "Cd4 H104 C100 S8 N16 O16"
_cell_length_a       12.327667075037425
_cell_length_b       12.327720561046554
_cell_length_c       25.812310324032268
_cell_angle_alpha    90.00016187542796
_cell_angle_beta     89.99991461483152
_cell_angle_gamma    89.99973098021376

_space_group_name_H-M_alt    "P 1"
_space_group_IT_number       1

loop_
  _space_group_symop_operation_xyz
  'x, y, z'

loop_
  _atom_site_type_symbol
  _atom_site_label
  _atom_site_symmetry_multiplicity
  _atom_site_fract_x
  _atom_site_fract_y
  _atom_site_fract_z
  _atom_site_occupancy
  Cd  Cd1       1.0  0.25000036878451937  0.24999962281715685  0.07566552844260603  1.0000
  Cd  Cd2       1.0  0.7499997529746096  0.7499998875865048  0.5756651038393985  1.0000
  Cd  Cd3       1.0  0.7500000219627482  0.7500000955411537  0.9243347845860017  1.0000
  Cd  Cd4       1.0  0.25000063776754183  0.2500022643105879  0.42433482177881393  1.0000
  H   H1        1.0  0.07379866578924779  0.42115753728021593  0.12676651952479295  1.0000
  H   H2        1.0  0.42620191285740816  0.07883876236564191  0.12676732226560014  1.0000
  H   H3        1.0  0.5788395595873721  0.5737934921039384  0.6267674056519255  1.0000
  H   H4        1.0  0.921162220996443  0.9261992811807078  0.6267675239886545  1.0000
  H   H5        1.0  0.9262025361534398  0.5788381251718137  0.8732322438525628  1.0000
  H   H6        1.0  0.5738009114353061  0.9211625783491614  0.8732337655873368  1.0000
  H   H7        1.0  0.42116326472368826  0.42620054798886997  0.37323290737192855  1.0000
  H   H8        1.0  0.07883816974209168  0.07380287072317773  0.37323472610184893  1.0000
  H   H9        1.0  0.0526733652682054  0.5747222542913735  0.19081591610142823  1.0000
  H   H10       1.0  0.4473279115120618  0.9252735630890214  0.19081678931182475  1.0000
  H   H11       1.0  0.4252776078307078  0.5526733469693071  0.6908163428581704  1.0000
  H   H12       1.0  0.0747269810056039  0.9473245821503583  0.6908171248272837  1.0000
  H   H13       1.0  0.9473245919336009  0.42527584171044464  0.8091836221028432  1.0000
  H   H14       1.0  0.5526716680486956  0.0747261552768563  0.8091854607773075  1.0000
  H   H15       1.0  0.5747235941076596  0.44732312666722146  0.3091839701679221  1.0000
  H   H16       1.0  0.9252725985544571  0.05267594739322591  0.3091843504383079  1.0000
  H   H17       1.0  0.37344462284182356  0.49326946363  0.24749219149912705  1.0000
  H   H18       1.0  0.12655233559833326  0.0067299753064631014  0.24749233493973585  1.0000
  H   H19       1.0  0.5067309456848932  0.8734390282674198  0.7474918160279318  1.0000
  H   H20       1.0  0.9932664035151502  0.6265552619452707  0.7474922486121188  1.0000
  H   H21       1.0  0.6265557679034329  0.5067318770848602  0.7525069592944436  1.0000
  H   H22       1.0  0.8734439992395051  0.9932681206935075  0.752505266204871  1.0000
  H   H23       1.0  0.49326538915243373  0.12655825655711084  0.25250733476431725  1.0000
  H   H24       1.0  0.006737231970980398  0.37344364521979406  0.2525061273545362  1.0000
  H   H25       1.0  0.3819819569236598  0.3515220333954617  0.17913633516072033  1.0000
  H   H26       1.0  0.11801683646539368  0.1484810618413377  0.17913745304285564  1.0000
  H   H27       1.0  0.648476423777275  0.8819769760359011  0.6791360147168393  1.0000
  H   H28       1.0  0.8515170820897424  0.6180201593093527  0.6791369242773444  1.0000
  H   H29       1.0  0.618020867370866  0.6484793073159383  0.820863590456078  1.0000
  H   H30       1.0  0.8819835542836784  0.8515186565135837  0.8208616977496066  1.0000
  H   H31       1.0  0.3515182886886662  0.11802193115350693  0.3208635234891446  1.0000
  H   H32       1.0  0.14848736457166464  0.3819819925748219  0.32086183910328  1.0000
  H   H33       1.0  0.35858328123600086  0.6734066821475936  0.27142508643281366  1.0000
  H   H34       1.0  0.14141450009497447  0.8265952847301322  0.2714260433642296  1.0000
  H   H35       1.0  0.3265922369263023  0.8585827600092486  0.7714254116897055  1.0000
  H   H36       1.0  0.1734056117412947  0.6414156403533086  0.771425705552723  1.0000
  H   H37       1.0  0.6414162983315777  0.3265914138526825  0.728575226594977  1.0000
  H   H38       1.0  0.8585842682866057  0.17340362245315083  0.7285746570764503  1.0000
  H   H39       1.0  0.6734065314564857  0.1414161471717676  0.22857451392687275  1.0000
  H   H40       1.0  0.826593156635077  0.3585865115453332  0.22857344524197748  1.0000
  H   H41       1.0  0.29974747297271875  0.5821451545274812  0.3182317813406784  1.0000
  H   H42       1.0  0.2002517851533199  0.9178562747930812  0.3182332082637913  1.0000
  H   H43       1.0  0.41785612314691173  0.7997469881117213  0.8182324625526577  1.0000
  H   H44       1.0  0.08214320231263629  0.7002516858758981  0.8182332893218531  1.0000
  H   H45       1.0  0.7002529177751454  0.41785456382969954  0.6817681442758783  1.0000
  H   H46       1.0  0.7997469832282675  0.08214263239020171  0.6817674921768813  1.0000
  H   H47       1.0  0.5821426452358762  0.20025191906929507  0.1817674630639203  1.0000
  H   H48       1.0  0.9178547548847575  0.2997480324869884  0.1817666362955705  1.0000
  H   H49       1.0  0.4077121471006037  0.8270466776051962  0.3367257988916208  1.0000
  H   H50       1.0  0.09228705350324158  0.6729572933656343  0.33672619373820833  1.0000
  H   H51       1.0  0.17295062233976916  0.9077099929833067  0.8367276748511615  1.0000
  H   H52       1.0  0.32704864560029273  0.5922887891203389  0.8367270171072863  1.0000
  H   H53       1.0  0.5922914883886391  0.17295141837762879  0.6632718022503854  1.0000
  H   H54       1.0  0.9077141484161756  0.32704648089401905  0.6632752815290175  1.0000
  H   H55       1.0  0.827048146039914  0.09228972537994198  0.1632730255900654  1.0000
  H   H56       1.0  0.6729525563347705  0.4077101180515685  0.1632717462722795  1.0000
  H   H57       1.0  0.31571002210971233  0.8465202330008238  0.3890760602225144  1.0000
  H   H58       1.0  0.18429063805599097  0.6534807992759183  0.38907558795972363  1.0000
  H   H59       1.0  0.15347991959375656  0.8157069706488472  0.8890778341893723  1.0000
  H   H60       1.0  0.34651999671584827  0.6842921174847659  0.8890772881480873  1.0000
  H   H61       1.0  0.6842944245548067  0.1534811077011113  0.6109219283334613  1.0000
  H   H62       1.0  0.8157121862392315  0.346519730257782  0.610925112480608  1.0000
  H   H63       1.0  0.8465180376087459  0.18429031417527142  0.1109224788384395  1.0000
  H   H64       1.0  0.6534787716688439  0.3157059785162843  0.1109226374679366  1.0000
  H   H65       1.0  0.5835787430424944  0.8935383684030143  0.5052953494735135  1.0000
  H   H66       1.0  0.9164234153089265  0.6064634289306314  0.5052946472598522  1.0000
  H   H67       1.0  0.10646762861058078  0.08358293847505394  0.005294779499017502  1.0000
  H   H68       1.0  0.39353738372312813  0.4164207628537256  0.005295291617741802  1.0000
  H   H69       1.0  0.416416780580377  0.1064710841275058  0.4947053509755223  1.0000
  H   H70       1.0  0.0835777866204239  0.39353791178118763  0.49470411612137616  1.0000
  H   H71       1.0  0.8935311397716034  0.9164159687070923  0.9947055335296116  1.0000
  H   H72       1.0  0.6064605734742655  0.583578955509168  0.9947046339996819  1.0000
  H   H73       1.0  0.45081003459549135  0.887831004525545  0.4323100624798215  1.0000
  H   H74       1.0  0.0491913022869355  0.6121719028514079  0.4323104051149755  1.0000
  H   H75       1.0  0.11216920480627829  0.9508157075177056  0.9323096389882581  1.0000
  H   H76       1.0  0.3878313882165542  0.5491893116046427  0.9323104286440442  1.0000
  H   H77       1.0  0.5491846778642254  0.11216952502833524  0.5676910253754528  1.0000
  H   H78       1.0  0.9508107108177836  0.3878318714029519  0.5676899079158204  1.0000
  H   H79       1.0  0.8878303747600992  0.04918238848483722  0.06769144886362001  1.0000
  H   H80       1.0  0.6121665689814434  0.450810406757121  0.0676891095613286  1.0000
  H   H81       1.0  0.4959248280991132  0.5386365709309616  0.42972886894280293  1.0000
  H   H82       1.0  0.004078139176740999  0.9613655101789432  0.4297312701747061  1.0000
  H   H83       1.0  0.4613649381233599  0.9959172976370781  0.9297278312127732  1.0000
  H   H84       1.0  0.038635662952991395  0.5040771610544538  0.9297291960518452  1.0000
  H   H85       1.0  0.5040844856577138  0.4613663921285466  0.5702722189089258  1.0000
  H   H86       1.0  0.9959246851140687  0.03863664171583281  0.5702698176787849  1.0000
  H   H87       1.0  0.5386330190740408  0.0040824207258154  0.07027209440465043  1.0000
  H   H88       1.0  0.9613622942449992  0.49592255730730983  0.07027034215352762  1.0000
  H   H89       1.0  0.6282830377589262  0.5616780391525894  0.5022326147403008  1.0000
  H   H90       1.0  0.8717158853857683  0.9383221179281022  0.5022331723421303  1.0000
  H   H91       1.0  0.43832918362798506  0.12828222261560282  0.0022298748143257004  1.0000
  H   H92       1.0  0.061677460608464685  0.37171902725637546  0.002231725116686801  1.0000
  H   H93       1.0  0.37172222006531536  0.43833060217963293  0.4977696353528956  1.0000
  H   H94       1.0  0.12828207181282636  0.061677600432524606  0.49776597845119863  1.0000
  H   H95       1.0  0.5616687735687121  0.8717183069249902  0.9977692759795576  1.0000
  H   H96       1.0  0.9383204965826124  0.6282831246475596  0.9977685879144433  1.0000
  H   H97       1.0  0.503823828725352  0.2277215203978855  0.051393670406142206  1.0000
  H   H98       1.0  0.9961788439670369  0.2722784801835374  0.05139391244374992  1.0000
  H   H99       1.0  0.7722782632955186  0.0038220784887740998  0.5513943839732607  1.0000
  H   H100      1.0  0.7277220431761079  0.4961767891253715  0.5513939611486549  1.0000
  H   H101      1.0  0.49617656202371296  0.7722781979570286  0.9486054803863129  1.0000
  H   H102      1.0  0.0038223579643172985  0.7277212381717392  0.9486060131725154  1.0000
  H   H103      1.0  0.22772212744793305  0.9961792622294825  0.4486059290564556  1.0000
  H   H104      1.0  0.2722783475698519  0.5038237404117824  0.44860596446845596  1.0000
  C   C1        1.0  0.13898365508743638  0.4433351226717122  0.15346811195773574  1.0000
  C   C2        1.0  0.3610176517058221  0.05665889952266672  0.1534677687300174  1.0000
  C   C3        1.0  0.5566591748911519  0.6389767999284148  0.6534682838101844  1.0000
  C   C4        1.0  0.9433400890926719  0.8610185629944599  0.6534694595563407  1.0000
  C   C5        1.0  0.8610191692198156  0.556660539781028  0.8465322010672268  1.0000
  C   C6        1.0  0.6389827390496591  0.9433375741146295  0.8465321568843224  1.0000
  C   C7        1.0  0.44333959349423663  0.3610204848949292  0.3465324166293797  1.0000
  C   C8        1.0  0.056661924007734385  0.13898602244439223  0.3465324031231987  1.0000
  C   C9        1.0  0.1265536401006528  0.5262597514142014  0.18929603917845841  1.0000
  C   C10       1.0  0.3734492637658419  0.9737384906210595  0.18929819354529803  1.0000
  C   C11       1.0  0.47373834963899947  0.6265514445575135  0.6892981081713077  1.0000
  C   C12       1.0  0.026261376816421492  0.8734472868779694  0.6892988238861051  1.0000
  C   C13       1.0  0.8734443171048623  0.47373753340424696  0.8107023367891132  1.0000
  C   C14       1.0  0.626548693425427  0.026262038929729704  0.8107044439570147  1.0000
  C   C15       1.0  0.5262620411190824  0.3734434067221032  0.3107025922660256  1.0000
  C   C16       1.0  0.9737382027418345  0.1265532426690115  0.310703813615632  1.0000
  C   C17       1.0  0.21208715754187318  0.547379533249547  0.22383264487798024  1.0000
  C   C18       1.0  0.2879107718147509  0.9526180995110567  0.2238340566660996  1.0000
  C   C19       1.0  0.45261649944162485  0.7120848447191863  0.7238351833330157  1.0000
  C   C20       1.0  0.04738230843028649  0.7879092215333968  0.7238346049525505  1.0000
  C   C21       1.0  0.7879124220268138  0.45261937392503887  0.7761657310901173  1.0000
  C   C22       1.0  0.7120879965724427  0.0473791853088912  0.7761654815373263  1.0000
  C   C23       1.0  0.5473814577583695  0.28791325128602824  0.2761655171073941  1.0000
  C   C24       1.0  0.9526188935011602  0.21208968564530284  0.2761664828993062  1.0000
  C   C25       1.0  0.30552105004034047  0.4828158697592216  0.22112533205625343  1.0000
  C   C26       1.0  0.19447842394044554  0.017188282117764707  0.22112660350427404  1.0000
  C   C27       1.0  0.517184056559337  0.8055236948174381  0.7211264390251912  1.0000
  C   C28       1.0  0.9828125634392604  0.6944777418878233  0.7211265843875339  1.0000
  C   C29       1.0  0.6944769071512409  0.5171870933201604  0.7788734313272415  1.0000
  C   C30       1.0  0.8055187220721578  0.9828122474258764  0.7788729347019441  1.0000
  C   C31       1.0  0.48281146708628586  0.1944768347300041  0.27887309918160963  1.0000
  C   C32       1.0  0.017190260859678095  0.3055219764625079  0.278872953816105  1.0000
  C   C33       1.0  0.30996252708733607  0.402539756200305  0.18318446418720674  1.0000
  C   C34       1.0  0.1900386872667283  0.09746174033413982  0.18318507357641783  1.0000
  C   C35       1.0  0.5974604456812428  0.8099573051503342  0.6831828900203407  1.0000
  C   C36       1.0  0.9025371035144685  0.6900406650241351  0.6831842488867894  1.0000
  C   C37       1.0  0.690039486024396  0.5974607733352997  0.8168162362534164  1.0000
  C   C38       1.0  0.809963325844812  0.9025404115546108  0.8168133023930298  1.0000
  C   C39       1.0  0.40253832271096707  0.19003835730740087  0.3168158733578821  1.0000
  C   C40       1.0  0.09746328722428639  0.3099647315849127  0.31681296484931215  1.0000
  C   C41       1.0  0.2847518068471259  0.653187447747911  0.29338787539094824  1.0000
  C   C42       1.0  0.21524590617891445  0.8468138363422285  0.2933891946166583  1.0000
  C   C43       1.0  0.3468119357518588  0.784751609367028  0.7933892927074881  1.0000
  C   C44       1.0  0.15318746697347047  0.7152469193886333  0.7933893143936716  1.0000
  C   C45       1.0  0.7152485839051508  0.3468106482481944  0.7066116628124492  1.0000
  C   C46       1.0  0.7847520510160705  0.15318588202519834  0.7066122806489618  1.0000
  C   C47       1.0  0.6531868326303252  0.21524729781512525  0.20661102032114095  1.0000
  C   C48       1.0  0.8468121125877984  0.2847536101526913  0.20661138604782545  1.0000
  C   C49       1.0  0.24999961579666058  0.7500003340080852  0.32676427662374163  1.0000
  C   C50       1.0  0.24999964946156436  0.7499993619332982  0.8267652388771085  1.0000
  C   C51       1.0  0.7500023973194841  0.24999857316645094  0.6732360364037292  1.0000
  C   C52       1.0  0.7499991189219272  0.24999873407001164  0.17323546156301015  1.0000
  C   C53       1.0  0.34524458556104776  0.7871230493413678  0.3605628698288399  1.0000
  C   C54       1.0  0.15475616328251357  0.712877816252778  0.36056288715933965  1.0000
  C   C55       1.0  0.2128771832815488  0.8452426217501172  0.8605639190167838  1.0000
  C   C56       1.0  0.28712282170642567  0.6547571108763321  0.8605637624789753  1.0000
  C   C57       1.0  0.6547598611054681  0.21287666900402516  0.6394362809621729  1.0000
  C   C58       1.0  0.8452466610127088  0.2871227132809224  0.6394378132809919  1.0000
  C   C59       1.0  0.7871223962835217  0.15475628543126166  0.1394367814235977  1.0000
  C   C60       1.0  0.7128751354953804  0.3452409851254857  0.1394357757252891  1.0000
  C   C61       1.0  0.5619422552002148  0.8165833437501959  0.4868142003412643  1.0000
  C   C62       1.0  0.9380583382628414  0.683417534371657  0.4868143625635781  1.0000
  C   C63       1.0  0.1834239419724639  0.06194415626927001  0.9868147826092655  1.0000
  C   C64       1.0  0.3165836960508556  0.43805717106652514  0.9868134421601342  1.0000
  C   C65       1.0  0.4380557019743278  0.18342610877233775  0.5131857252828027  1.0000
  C   C66       1.0  0.06194124130333728  0.31658218398403193  0.5131844008171245  1.0000
  C   C67       1.0  0.8165756375913132  0.9380555620909447  0.013185530419626406  1.0000
  C   C68       1.0  0.6834150723274275  0.5619441696521437  0.0131857086340119  1.0000
  C   C69       1.0  0.48828930045296187  0.8127749070897748  0.44588685307716963  1.0000
  C   C70       1.0  0.011711994210429599  0.6872264572910609  0.4458857752957997  1.0000
  C   C71       1.0  0.18722060339456448  0.9882904632601993  0.9458853307505638  1.0000
  C   C72       1.0  0.3127758915063126  0.5117073346134904  0.945886122833386  1.0000
  C   C73       1.0  0.5117119014791881  0.18722318891122566  0.5541150095982275  1.0000
  C   C74       1.0  0.9882908300846011  0.3127756945957856  0.5541126006733563  1.0000
  C   C75       1.0  0.8127773538035327  0.011708443924987901  0.054115369690400414  1.0000
  C   C76       1.0  0.6872212545056868  0.4882931949312736  0.054113802784876  1.0000
  C   C77       1.0  0.4630723110255345  0.7110399572677154  0.4247236347013939  1.0000
  C   C78       1.0  0.0369322941818382  0.7889637169354135  0.42472500227843574  1.0000
  C   C79       1.0  0.28896257355076216  0.9630640878128388  0.9247252185681635  1.0000
  C   C80       1.0  0.21104047664088196  0.5369295304402968  0.9247237932652583  1.0000
  C   C81       1.0  0.536936191552023  0.28896300578577433  0.5752747412662843  1.0000
  C   C82       1.0  0.9630721524714472  0.21104086849319975  0.5752753107520406  1.0000
  C   C83       1.0  0.7110361948397426  0.03693076347172311  0.0752758692817892  1.0000
  C   C84       1.0  0.7889566693736255  0.46307018792337123  0.0752757449404058  1.0000
  C   C85       1.0  0.5138095895455237  0.6186562339772764  0.44535556953866273  1.0000
  C   C86       1.0  0.9861911328560848  0.8813444017863079  0.4453567424324022  1.0000
  C   C87       1.0  0.381352079776775  0.013812206829293  0.9453550039704057  1.0000
  C   C88       1.0  0.11865649836467179  0.4861913116828448  0.9453558076304421  1.0000
  C   C89       1.0  0.48618998999539537  0.3813532185425856  0.5546447434968798  1.0000
  C   C90       1.0  0.0138100690727612  0.11865612775006443  0.5546435705964683  1.0000
  C   C91       1.0  0.6186466886079173  0.9861858891717578  0.054644921645625316  1.0000
  C   C92       1.0  0.8813422700200203  0.5138067843182058  0.054644117985581914  1.0000
  C   C93       1.0  0.5866383609458906  0.631746192165977  0.48572582490810134  1.0000
  C   C94       1.0  0.9133614247214155  0.8682530572372754  0.4857266445236591  1.0000
  C   C95       1.0  0.3682560997866344  0.08663928213617572  0.9857237811478896  1.0000
  C   C96       1.0  0.1317458633371871  0.4133636612032632  0.9857252508559998  1.0000
  C   C97       1.0  0.413361218604649  0.3682583932774648  0.5142756503602612  1.0000
  C   C98       1.0  0.0866381548454669  0.13174584994069966  0.5142728936805839  1.0000
  C   C99       1.0  0.631742668592949  0.9133612474036499  0.014275757057753002  1.0000
  C   C100      1.0  0.8682520938589063  0.5866368683384664  0.014274287349927304  1.0000
  S   S1        1.0  0.45545599226897326  0.29434718981914193  0.0856638154880329  1.0000
  S   S2        1.0  0.0445463365688141  0.20565292544127092  0.0856642890663508  1.0000
  S   S3        1.0  0.7056518537473264  0.9554548726658753  0.585664752285709  1.0000
  S   S4        1.0  0.7943468099215777  0.5445441497835334  0.5856640527102216  1.0000
  S   S5        1.0  0.5445443984800988  0.7056525285357723  0.914335335304422  1.0000
  S   S6        1.0  0.9554548653594351  0.7943476040962383  0.9143364113745633  1.0000
  S   S7        1.0  0.29434772581264207  0.04454646805427841  0.4143355607442914  1.0000
  S   S8        1.0  0.20565195845549766  0.4554571909373949  0.4143358729080192  1.0000
  N   N1        1.0  0.2293845246645816  0.3828573765455305  0.14964273183822036  1.0000
  N   N2        1.0  0.27061679402141436  0.11713743447115381  0.1496440853791299  1.0000
  N   N3        1.0  0.6171408096262283  0.729382654447015  0.649643017369165  1.0000
  N   N4        1.0  0.8828592774305264  0.7706159308316459  0.6496441128801324  1.0000
  N   N5        1.0  0.770615866088299  0.6171407194494449  0.8503564189531334  1.0000
  N   N6        1.0  0.7293852190966417  0.8828606615234094  0.8503562276477867  1.0000
  N   N7        1.0  0.3828563363914839  0.2706154415578368  0.35035690824744153  1.0000
  N   N8        1.0  0.11714111331032477  0.22938703224428286  0.35035542532659053  1.0000
  N   N9        1.0  0.6110222765495619  0.7286278537529259  0.5067425985143076  1.0000
  N   N10       1.0  0.88897825494044  0.7713707073268952  0.5067425284503315  1.0000
  N   N11       1.0  0.27137548715123927  0.11102639627415561  0.0067397862920799  1.0000
  N   N12       1.0  0.22862789831764724  0.38897731351276826  0.006742703173834702  1.0000
  N   N13       1.0  0.3889756806314962  0.2713775428754205  0.49325926416722876  1.0000
  N   N14       1.0  0.11102294699652758  0.2286273886650392  0.49325623492868703  1.0000
  N   N15       1.0  0.7286240924118345  0.8889741332637657  0.9932597519132716  1.0000
  N   N16       1.0  0.7713724924283125  0.6110232160243783  0.9932572224432762  1.0000
  O   O1        1.0  0.19754239115260924  0.6298499007429044  0.2578025443626118  1.0000
  O   O2        1.0  0.30245462136110746  0.8701519865033945  0.2578042205880706  1.0000
  O   O3        1.0  0.3701499448053198  0.6975431143000818  0.7578042660218786  1.0000
  O   O4        1.0  0.1298503797747657  0.8024552064313543  0.7578051982573727  1.0000
  O   O5        1.0  0.8024555660485928  0.3701481952600503  0.7421973812537035  1.0000
  O   O6        1.0  0.6975417134617883  0.1298501654066158  0.7421968672677366  1.0000
  O   O7        1.0  0.6298488235774683  0.30245579288093444  0.24219565959469955  1.0000
  O   O8        1.0  0.8701524445192559  0.19754532310461315  0.24219627700706078  1.0000
  O   O9        1.0  0.3922755627208828  0.693629652958528  0.38543890421510707  1.0000
  O   O10       1.0  0.10772754230245599  0.8063721692354804  0.3854402450062793  1.0000
  O   O11       1.0  0.3063691761352558  0.8922763119957581  0.8854392579171703  1.0000
  O   O12       1.0  0.19363075148372388  0.6077251884094468  0.8854394913409324  1.0000
  O   O13       1.0  0.6077248280288856  0.30636925421868005  0.6145610214008954  1.0000
  O   O14       1.0  0.8922785267223147  0.19362998265167866  0.6145608428460535  1.0000
  O   O15       1.0  0.6936304034311148  0.10772178400678463  0.11456182993470782  1.0000
  O   O16       1.0  0.8063680169090901  0.3922704740471588  0.11455888462524653  1.0000
