data_image0
_chemical_formula_structural       Mg2H26Pt2C38N14O2
_chemical_formula_sum              "Mg2 H26 Pt2 C38 N14 O2"
_cell_length_a       9.754475249155266
_cell_length_b       9.754487481475639
_cell_length_c       11.552886327642982
_cell_angle_alpha    82.54308191264278
_cell_angle_beta     82.54310872949738
_cell_angle_gamma    72.55212537979759

_space_group_name_H-M_alt    "P 1"
_space_group_IT_number       1

loop_
  _space_group_symop_operation_xyz
  'x, y, z'

loop_
  _atom_site_type_symbol
  _atom_site_label
  _atom_site_symmetry_multiplicity
  _atom_site_fract_x
  _atom_site_fract_y
  _atom_site_fract_z
  _atom_site_occupancy
  Mg  Mg1       1.0  0.7311891202917237  0.26881097067562365  0.2500000837653573  1.0000
  Mg  Mg2       1.0  0.2688106440304237  0.7311901423197041  0.7499999648333997  1.0000
  H   H1        1.0  0.45722672021278027  0.4392684306780765  0.272229700838416  1.0000
  H   H2        1.0  0.560732513905471  0.5427733419451497  0.2277693939026406  1.0000
  H   H3        1.0  0.5427743883097091  0.5607316020093762  0.7277703190544785  1.0000
  H   H4        1.0  0.43926756126575117  0.45722669221141393  0.7722298726529075  1.0000
  H   H5        1.0  0.6632757223262898  0.8676145806753014  0.6891199736230291  1.0000
  H   H6        1.0  0.13238431475262047  0.33672415724689125  0.8108803285898318  1.0000
  H   H7        1.0  0.33672466216386704  0.13238437311144927  0.3108802423926562  1.0000
  H   H8        1.0  0.8676150363862618  0.6632747980089704  0.1891191340885143  1.0000
  H   H9        1.0  0.8753033754124644  0.8057983712631936  0.540758388463054  1.0000
  H   H10       1.0  0.19420111941168725  0.1246987007182554  0.9592416824481305  1.0000
  H   H11       1.0  0.124696698993688  0.19420166212784548  0.4592417438441601  1.0000
  H   H12       1.0  0.8057983348264482  0.8753034918813611  0.0407582824421553  1.0000
  H   H13       1.0  0.25025518854696555  0.7497434566502008  0.25000011390142873  1.0000
  H   H14       1.0  0.7497428176265046  0.2502565781480115  0.7500002432344318  1.0000
  H   H15       1.0  0.058082655268073206  0.7734585624722712  0.4163399188205048  1.0000
  H   H16       1.0  0.2265410080715354  0.9419157354427907  0.08366017893660427  1.0000
  H   H17       1.0  0.9419150400563153  0.22654255116470512  0.5836612203585573  1.0000
  H   H18       1.0  0.7734583423022838  0.05808321904753909  0.9163401494934078  1.0000
  H   H19       1.0  0.4798684880049675  0.11169202284256843  0.6636064600434254  1.0000
  H   H20       1.0  0.8883071636922892  0.5201312401827565  0.8363931127297021  1.0000
  H   H21       1.0  0.5201318964851892  0.8883069309441826  0.3363937559722601  1.0000
  H   H22       1.0  0.11169322156293757  0.47986771436951864  0.16360623753431014  1.0000
  H   H23       1.0  0.5139022512480834  0.27799953711107855  0.4851588838743552  1.0000
  H   H24       1.0  0.7219987130999852  0.4860972061520882  0.014843224114294186  1.0000
  H   H25       1.0  0.4860970983606662  0.721999416613727  0.5148423103073156  1.0000
  H   H26       1.0  0.2780003271898225  0.5139028279425373  0.985157020607254  1.0000
  Pt  Pt1       1.0  4.270355446896733e-07  0.5000002959301708  0.5000007963326993  1.0000
  Pt  Pt2       1.0  0.4999999714186316  2.5945017509997377e-07  3.7511178217885635e-08  1.0000
  C   C1        1.0  0.9050185765925391  0.42885515914068145  0.3894029479655289  1.0000
  C   C2        1.0  0.571145817186057  0.0949800254155804  0.11059815445428002  1.0000
  C   C3        1.0  0.09498253116488799  0.5711448727812467  0.6105979376790316  1.0000
  C   C4        1.0  0.42885425645502534  0.9050200072099345  0.8894028436046  1.0000
  C   C5        1.0  0.18175729725709283  0.4596041336788302  0.3947481932603694  1.0000
  C   C6        1.0  0.5403953986816886  0.8182437096337694  0.1052517397230375  1.0000
  C   C7        1.0  0.8182445352977297  0.5403969779093315  0.6052516305097342  1.0000
  C   C8        1.0  0.45960467572445646  0.18175632375726994  0.8947483925841837  1.0000
  C   C9        1.0  0.6757413565419907  0.945115342898816  0.6145019725408503  1.0000
  C   C10       1.0  0.054883607054925676  0.3242589949278809  0.8854973896306149  1.0000
  C   C11       1.0  0.32425799383182863  0.05488361159151368  0.3854983558891547  1.0000
  C   C12       1.0  0.9451154339999517  0.6757410399322693  0.11450198933925997  1.0000
  C   C13       1.0  0.8062336950204027  0.0091857612988804  0.43415217717198124  1.0000
  C   C14       1.0  0.990813537345943  0.1937649380543007  0.06584745802152263  1.0000
  C   C15       1.0  0.19376534526940487  0.9908142727957454  0.5658480675495597  1.0000
  C   C16       1.0  0.009185503708934659  0.8062350968058493  0.9341519209483522  1.0000
  C   C17       1.0  0.7942686654535648  0.9101022299802466  0.53109126588118  1.0000
  C   C18       1.0  0.08989729775723279  0.20573080247654468  0.9689090357241029  1.0000
  C   C19       1.0  0.2057303748362429  0.08989780411437208  0.46890897884036065  1.0000
  C   C20       1.0  0.9101020526165865  0.794268152013785  0.031091292705902215  1.0000
  C   C21       1.0  0.9283018032272422  0.9800722633563267  0.34062835696603605  1.0000
  C   C22       1.0  0.019927915594976805  0.07169718541525329  0.1593726505747881  1.0000
  C   C23       1.0  0.0716969269785608  0.019928850342580504  0.6593718040470407  1.0000
  C   C24       1.0  0.9800721588111757  0.9283028479757857  0.8406274817324331  1.0000
  C   C25       1.0  0.15583949275983133  0.8441596231957931  0.25000003773358503  1.0000
  C   C26       1.0  0.8441585134136317  0.15584041160241205  0.7500003194022825  1.0000
  C   C27       1.0  0.04821876576441742  0.8573063310043735  0.3433557536087051  1.0000
  C   C28       1.0  0.14269395710184077  0.9517798895168852  0.15664421253957528  1.0000
  C   C29       1.0  0.9517796551224507  0.142695863064354  0.6566434579442415  1.0000
  C   C30       1.0  0.8573047731039624  0.0482212241820292  0.8433559484734944  1.0000
  C   C31       1.0  0.5731408564430182  0.0791968345573508  0.5999842440502121  1.0000
  C   C32       1.0  0.9208010350347774  0.42685954005684573  0.9000162981123694  1.0000
  C   C33       1.0  0.4268584931657244  0.9208021191674547  0.4000169501314658  1.0000
  C   C34       1.0  0.07919769593609509  0.5731415744075932  0.0999829971490414  1.0000
  C   C35       1.0  0.5922686813676704  0.17251254841352187  0.5010850650810568  1.0000
  C   C36       1.0  0.8274868641670139  0.40773027180235016  0.9989154466295247  1.0000
  C   C37       1.0  0.4077303589221372  0.8274874856811038  0.49891517964048404  1.0000
  C   C38       1.0  0.17251217688786358  0.5922697630577999  0.0010839323403501898  1.0000
  N   N1        1.0  0.848507351796897  0.38173174183678066  0.32742269787402734  1.0000
  N   N2        1.0  0.6182686815217692  0.1514929971801422  0.17257740659545112  1.0000
  N   N3        1.0  0.1514927218441854  0.618268290788734  0.6725783001848527  1.0000
  N   N4        1.0  0.38173273708472505  0.8485059559030217  0.8274226970059075  1.0000
  N   N5        1.0  0.2884434132465188  0.43618797223271594  0.3315010253998949  1.0000
  N   N6        1.0  0.5638122075333527  0.711557347329517  0.1684997639307184  1.0000
  N   N7        1.0  0.7115573844268963  0.5638131392935007  0.6684997765362013  1.0000
  N   N8        1.0  0.43618890098913704  0.28844268535793566  0.8315002559621761  1.0000
  N   N9        1.0  0.9172233079004285  0.0827772488117233  0.2500000822797404  1.0000
  N   N10       1.0  0.08277645642171193  0.9172238641836041  0.7499999663190167  1.0000
  N   N11       1.0  0.7049289713584912  0.13874895678890914  0.4194983966219965  1.0000
  N   N12       1.0  0.8612503277523799  0.2950705045416555  0.08050195297847303  1.0000
  N   N13       1.0  0.29507110304766115  0.8612510766021301  0.5805017356852248  1.0000
  N   N14       1.0  0.1387487125374278  0.7049295295529631  0.9194982917430679  1.0000
  O   O1        1.0  0.5592461094779962  0.44075549961794985  0.24999900758513866  1.0000
  O   O2        1.0  0.4407546897255583  0.5592456134393159  0.7500000628476259  1.0000
