data_image0
_chemical_formula_structural       Cu2H20C26N4O12
_chemical_formula_sum              "Cu2 H20 C26 N4 O12"
_cell_length_a       8.793831607709667
_cell_length_b       9.650647400529301
_cell_length_c       9.85856484097949
_cell_angle_alpha    100.5652149291718
_cell_angle_beta     115.22433335248822
_cell_angle_gamma    102.50900743139618

_space_group_name_H-M_alt    "P 1"
_space_group_IT_number       1

loop_
  _space_group_symop_operation_xyz
  'x, y, z'

loop_
  _atom_site_type_symbol
  _atom_site_label
  _atom_site_symmetry_multiplicity
  _atom_site_fract_x
  _atom_site_fract_y
  _atom_site_fract_z
  _atom_site_occupancy
  Cu  Cu1       1.0  0.1691873302252063  0.2456263099070171  0.35956612251644066  1.0000
  Cu  Cu2       1.0  0.8308049455433136  0.7543731331219804  0.6404218697732633  1.0000
  H   H1        1.0  0.31567262113526345  0.9865042391099051  0.9383303976579  1.0000
  H   H2        1.0  0.6843307318029942  0.013485084049747798  0.06167486549649231  1.0000
  H   H3        1.0  0.530534187285589  0.18068727813324156  0.9039923406937121  1.0000
  H   H4        1.0  0.4694802621924055  0.8192930397820319  0.09601214554738391  1.0000
  H   H5        1.0  0.657049498014203  0.44217993409709794  0.08626704315841494  1.0000
  H   H6        1.0  0.3429677736208276  0.5578015901321932  0.9137366161373564  1.0000
  H   H7        1.0  0.9722082682643671  0.39752778493140534  0.45799633253090377  1.0000
  H   H8        1.0  0.027815007862642536  0.602472609106151  0.5420344271712594  1.0000
  H   H9        1.0  0.7352098545723817  0.3411882747585723  0.5339880648484936  1.0000
  H   H10       1.0  0.26482704970431575  0.6588209655194391  0.4660482908469278  1.0000
  H   H11       1.0  0.6743567926903394  0.8728259441314137  0.3746732222568027  1.0000
  H   H12       1.0  0.3256157178667393  0.12718411846584837  0.6253070699182003  1.0000
  H   H13       1.0  0.9172805126001715  0.9523101426115373  0.30891442916264106  1.0000
  H   H14       1.0  0.0826865891496809  0.047696877786528105  0.6910592819825467  1.0000
  H   H15       1.0  0.5314099222242987  0.1678068081622683  0.5695581142897979  1.0000
  H   H16       1.0  0.46860083576986256  0.8322272835492727  0.4304609143247404  1.0000
  H   H17       1.0  0.11378678265518258  0.43217007667017526  0.15884308433773234  1.0000
  H   H18       1.0  0.8862084407967499  0.5678195387816629  0.8411382565265839  1.0000
  H   H19       1.0  0.9542262792478623  0.2797079700520371  0.06753538614711367  1.0000
  H   H20       1.0  0.04576550538264006  0.7202884241327325  0.9324465790972314  1.0000
  C   C1        1.0  0.2060917006156301  0.014423991866138403  0.14967388079273286  1.0000
  C   C2        1.0  0.7938942065084119  0.985575663859592  0.8503100891352134  1.0000
  C   C3        1.0  0.3341044207803279  0.13592921739300584  0.1342062589022532  1.0000
  C   C4        1.0  0.6658938378461982  0.8640672792193625  0.8657930865184085  1.0000
  C   C5        1.0  0.37703550329209884  0.10168421920706548  0.01452744053254659  1.0000
  C   C6        1.0  0.6229773557479987  0.8983038495812964  0.9854805468177262  1.0000
  C   C7        1.0  0.4937788051321163  0.20891233606448611  0.9952689408534638  1.0000
  C   C8        1.0  0.5062231394444935  0.7910751967157452  0.004728284387788082  1.0000
  C   C9        1.0  0.5653489734929094  0.35457331249464374  0.09695741192962258  1.0000
  C   C10       1.0  0.43466893955976366  0.6454146238699467  0.9030531785627574  1.0000
  C   C11       1.0  0.5207686365575697  0.3890134615805394  0.21504233525655542  1.0000
  C   C12       1.0  0.4792368545064745  0.6109726521889485  0.7849597392917644  1.0000
  C   C13       1.0  0.5867668948872617  0.5448182383530947  0.3287049974185904  1.0000
  C   C14       1.0  0.4132405150464463  0.4551738292650143  0.6712930943102364  1.0000
  C   C15       1.0  0.9035660994221784  0.28378454155099325  0.4439955295757159  1.0000
  C   C16       1.0  0.09644934465845985  0.7162302904035301  0.556022134782971  1.0000
  C   C17       1.0  0.7722198545395641  0.2508879372183799  0.48652559532414585  1.0000
  C   C18       1.0  0.2277965741315668  0.7491380370224405  0.5134962389977957  1.0000
  C   C19       1.0  0.6860198716492006  0.10144367171396598  0.46508966585758327  1.0000
  C   C20       1.0  0.313984615354343  0.8985726206635433  0.5349218059279437  1.0000
  C   C21       1.0  0.7373538628847243  0.9912784018135387  0.39724025562922816  1.0000
  C   C22       1.0  0.26264101266542633  0.008738829810923195  0.6027551341458519  1.0000
  C   C23       1.0  0.872018476626941  0.03351212089962269  0.35997375162156686  1.0000
  C   C24       1.0  0.12796244153692268  0.9664950234031692  0.6400176583872222  1.0000
  C   C25       1.0  0.5500514405366985  0.06957779414741339  0.512097109840802  1.0000
  C   C26       1.0  0.44993000755470536  0.9304078497323472  0.48791039141581644  1.0000
  N   N1        1.0  0.4101114526948705  0.2798837556816878  0.2337058799106799  1.0000
  N   N2        1.0  0.5898858205363452  0.720114062284864  0.7662904300633784  1.0000
  N   N3        1.0  0.9562374431481042  0.17785997383006702  0.3848053778329684  1.0000
  N   N4        1.0  0.043755275711078026  0.8221468889191  0.615210113809539  1.0000
  O   O1        1.0  0.11689192258414488  0.04926494321773589  0.2175114053239611  1.0000
  O   O2        1.0  0.8830995862403551  0.950739121567139  0.7824754802492038  1.0000
  O   O3        1.0  0.19071207714558372  0.8833275318457083  0.08796348653036996  1.0000
  O   O4        1.0  0.8092640062618343  0.1166705816420617  0.9120261145497395  1.0000
  O   O5        1.0  0.392383114654237  0.32209297009382715  0.36071575063159145  1.0000
  O   O6        1.0  0.6076050498834106  0.6779072804358748  0.6392772434984552  1.0000
  O   O7        1.0  0.4986918627233549  0.6284896034508094  0.28562005504950605  1.0000
  O   O8        1.0  0.501318274832819  0.3715142634694216  0.7143717255571431  1.0000
  O   O9        1.0  0.7331046435417218  0.5722215238968074  0.45546210736609527  1.0000
  O   O10       1.0  0.2668941775137768  0.4277705396277796  0.5445352710346327  1.0000
  O   O11       1.0  0.026080543543741893  0.36109451126235115  0.1699290645414422  1.0000
  O   O12       1.0  0.9739157613477044  0.6389006980855215  0.8300540463354906  1.0000
