data_image0
_chemical_formula_structural       Cd2H30C36N10O10
_chemical_formula_sum              "Cd2 H30 C36 N10 O10"
_cell_length_a       10.142895524784747
_cell_length_b       11.173913326789192
_cell_length_c       11.456945025870196
_cell_angle_alpha    93.21128608290445
_cell_angle_beta     95.13652751431034
_cell_angle_gamma    109.79095106879728

_space_group_name_H-M_alt    "P 1"
_space_group_IT_number       1

loop_
  _space_group_symop_operation_xyz
  'x, y, z'

loop_
  _atom_site_type_symbol
  _atom_site_label
  _atom_site_symmetry_multiplicity
  _atom_site_fract_x
  _atom_site_fract_y
  _atom_site_fract_z
  _atom_site_occupancy
  Cd  Cd1       1.0  0.610482606013015  0.7747064721861321  0.9106045372196834  1.0000
  Cd  Cd2       1.0  0.38951766082529105  0.22529318194371936  0.08939584873724023  1.0000
  H   H1        1.0  0.05176716972389528  0.19531255077738044  0.10921854708615801  1.0000
  H   H2        1.0  0.9482321072441592  0.8046871033494224  0.8907808875639561  1.0000
  H   H3        1.0  0.39071662897929826  0.5257101468073415  0.8756084223844598  1.0000
  H   H4        1.0  0.6092836378771622  0.4742895073232629  0.12439109074092163  1.0000
  H   H5        1.0  0.46504877263289757  0.5442114302747284  0.7574567813824873  1.0000
  H   H6        1.0  0.5349496181382278  0.4557910893953263  0.24253662972332535  1.0000
  H   H7        1.0  0.6656906821005181  0.8789793143062354  0.5087562389866777  1.0000
  H   H8        1.0  0.3343112000121878  0.12101938464859782  0.4912450956766463  1.0000
  H   H9        1.0  0.3878827986604351  0.030965969811866507  0.6783459917640258  1.0000
  H   H10       1.0  0.6121164782894652  0.9690336843141907  0.32165431571763053  1.0000
  H   H11       1.0  0.9702620155902935  0.6082505589466364  0.8213027838298859  1.0000
  H   H12       1.0  0.029736897002436494  0.3917481400028393  0.17869133275527105  1.0000
  H   H13       1.0  0.8346348911695572  0.47866509008152036  0.1520431425184938  1.0000
  H   H14       1.0  0.1653620416645154  0.5213336088611201  0.8479499442845794  1.0000
  H   H15       1.0  0.6949012003640861  0.7283697151331339  0.18199175907513176  1.0000
  H   H16       1.0  0.30509771211971076  0.2716289838118229  0.8180075944992994  1.0000
  H   H17       1.0  0.8350111743312213  0.734103089437191  0.3742590589460165  1.0000
  H   H18       1.0  0.16498945700950432  0.26589751987526716  0.6257405352550479  1.0000
  H   H19       1.0  0.04771659397188438  0.9201901283742586  0.44608828258797945  1.0000
  H   H20       1.0  0.9522751283005347  0.0798104809010027  0.5539140966618562  1.0000
  H   H21       1.0  0.1261574171946975  0.1106368530210062  0.33152557644020675  1.0000
  H   H22       1.0  0.8738422242031517  0.8893637562853911  0.6684765577802311  1.0000
  H   H23       1.0  0.9442699348536224  0.19339735279841358  0.896777834199334  1.0000
  H   H24       1.0  0.05573033202099257  0.8066023013329444  0.10322080609450526  1.0000
  H   H25       1.0  0.8117857271278409  0.049114965595258284  0.8331819258290312  1.0000
  H   H26       1.0  0.18821391432447146  0.9508856437133987  0.16681758989676615  1.0000
  H   H27       1.0  0.6384168905512269  0.11204987886682007  0.07241056210047962  1.0000
  H   H28       1.0  0.36158337628707926  0.8879497752630314  0.9275898238564511  1.0000
  H   H29       1.0  0.5633845969949577  0.3437021825626303  0.8171359031500104  1.0000
  H   H30       1.0  0.4366150444392077  0.6562984267452734  0.18286448540733605  1.0000
  C   C1        1.0  0.5616126553130201  0.8967546377402867  0.7161653204116265  1.0000
  C   C2        1.0  0.43838724704102816  0.10324406120771101  0.283834984469614  1.0000
  C   C3        1.0  0.5935061292586994  0.9324080129309851  0.5040487928489128  1.0000
  C   C4        1.0  0.4064980971332375  0.06759164121405802  0.49595190700908637  1.0000
  C   C5        1.0  0.5300683867451638  0.9499581649726138  0.6044163690420279  1.0000
  C   C6        1.0  0.4699296932238823  0.0500357580676294  0.39558178479769174  1.0000
  C   C7        1.0  0.4362892912719261  0.0178898057818486  0.5996777230692772  1.0000
  C   C8        1.0  0.5637122263746761  0.9821079379918841  0.40032265768681446  1.0000
  C   C9        1.0  0.776286794007099  0.6066459255367748  0.9692954734007418  1.0000
  C   C10       1.0  0.2237132119294785  0.3933556389537359  0.030704123400745707  1.0000
  C   C11       1.0  0.9845877695992654  0.5617189287494213  0.9000967702958321  1.0000
  C   C12       1.0  0.015409892112550852  0.43828168055315325  0.09990084281633932  1.0000
  C   C13       1.0  0.8906435367968584  0.5502267117572898  0.9852120127779643  1.0000
  C   C14       1.0  0.10935412489679663  0.44977389754453173  0.014786473165756318  1.0000
  C   C15       1.0  0.9068353913843693  0.4877721204487315  0.0854536073265635  1.0000
  C   C16       1.0  0.0931636247001109  0.512229444039491  0.9145441653365582  1.0000
  C   C17       1.0  0.829666650129809  0.9182143030962351  0.1506852737440809  1.0000
  C   C18       1.0  0.17033236591836237  0.08178726139048112  0.8493142445821393  1.0000
  C   C19       1.0  0.7854473142765386  0.8120400304288182  0.21591946284918614  1.0000
  C   C20       1.0  0.21454774218168643  0.18796153404119306  0.7840814872390497  1.0000
  C   C21       1.0  0.8653223722791098  0.8159679526544822  0.3222441774753194  1.0000
  C   C22       1.0  0.1346759148186933  0.1840317014692801  0.6777543058679855  1.0000
  C   C23       1.0  0.9862905649633901  0.9225885020212986  0.3637948146956235  1.0000
  C   C24       1.0  0.013706367743587597  0.0774101969160625  0.6362043819282662  1.0000
  C   C25       1.0  0.029992717721597704  0.0302198569642584  0.30176678559372766  1.0000
  C   C26       1.0  0.97000593375153  0.9697807523368313  0.6982370158145274  1.0000
  C   C27       1.0  0.9492768930276653  0.026017879189481615  0.19499547067178472  1.0000
  C   C28       1.0  0.05072472818331156  0.9739827301260178  0.805005074836096  1.0000
  C   C29       1.0  0.8619318084838528  0.05519940984551399  0.018792423470074513  1.0000
  C   C30       1.0  0.13806918732298357  0.9448021546480448  0.9812081246382295  1.0000
  C   C31       1.0  0.8448283597085011  0.11940485041225203  0.9104952653371827  1.0000
  C   C32       1.0  0.15517128174381153  0.8805957588964047  0.08950425038861452  1.0000
  C   C33       1.0  0.6456983627948888  0.1671620681081905  0.9967300187906577  1.0000
  C   C34       1.0  0.35430226854583674  0.8328385412042677  0.0032695754104067956  1.0000
  C   C35       1.0  0.6083780329243139  0.2834562166406585  0.865688926498024  1.0000
  C   C36       1.0  0.39162197299410906  0.7165453478490987  0.13431154313500573  1.0000
  N   N1        1.0  0.7780511534289404  0.9394134730986253  0.04013201800461992  1.0000
  N   N2        1.0  0.2219459863704856  0.06059095692074121  0.9598692537859465  1.0000
  N   N3        1.0  0.9651100356611907  0.1109240094232149  0.10960987042207652  1.0000
  N   N4        1.0  0.03489122106552861  0.889075644710431  0.8903905940101142  1.0000
  N   N5        1.0  0.5615038333358556  0.23274636913387073  0.9662661146227622  1.0000
  N   N6        1.0  0.4384954436140447  0.7672532849921794  0.033734192858894105  1.0000
  N   N7        1.0  0.7162592912685852  0.2533761222142132  0.8325901022782888  1.0000
  N   N8        1.0  0.2837421725868908  0.7466292630029586  0.16741069165748715  1.0000
  N   N9        1.0  0.7383219097308213  0.18003164483597803  0.9178487702464297  1.0000
  N   N10       1.0  0.26167809620575605  0.8199699196545325  0.08215082655505061  1.0000
  O   O1        1.0  0.5090359170664485  0.9206520141964916  0.8077580718053882  1.0000
  O   O2        1.0  0.49096434977185766  0.0793476399333599  0.19224231415154244  1.0000
  O   O3        1.0  0.6417554400203825  0.8290956944622178  0.7169914327943233  1.0000
  O   O4        1.0  0.3582448268179236  0.17090395966763341  0.28300895316260016  1.0000
  O   O5        1.0  0.7919272591127822  0.6919608624578969  0.8952655060102404  1.0000
  O   O6        1.0  0.2080743621526651  0.308039746859869  0.10473242100300692  1.0000
  O   O7        1.0  0.6707619283458044  0.5737957605998999  0.026431107746347493  1.0000
  O   O8        1.0  0.32923864918564055  0.426212490155237  0.9735697724659433  1.0000
  O   O9        1.0  0.428084569987945  0.5871790754318555  0.8154241721275286  1.0000
  O   O10       1.0  0.5719176766634888  0.4128205787070983  0.18457462511684505  1.0000
