data_image0
_chemical_formula_structural       U2H38C30N2O12
_chemical_formula_sum              "U2 H38 C30 N2 O12"
_cell_length_a       8.022801811976512
_cell_length_b       9.39288457579471
_cell_length_c       12.301425099752336
_cell_angle_alpha    109.46026298515075
_cell_angle_beta     96.4632555047201
_cell_angle_gamma    101.96085932735276

_space_group_name_H-M_alt    "P 1"
_space_group_IT_number       1

loop_
  _space_group_symop_operation_xyz
  'x, y, z'

loop_
  _atom_site_type_symbol
  _atom_site_label
  _atom_site_symmetry_multiplicity
  _atom_site_fract_x
  _atom_site_fract_y
  _atom_site_fract_z
  _atom_site_occupancy
  U   U1        1.0  0.32877159961666524  0.9937822321266693  0.6811634669398641  1.0000
  U   U2        1.0  0.6712272369844355  0.006214644335145194  0.3188362160695276  1.0000
  H   H1        1.0  0.9217794747762582  0.1451021318283026  0.9295177167609335  1.0000
  H   H2        1.0  0.07822347499281783  0.8549006182166962  0.07048290933374794  1.0000
  H   H3        1.0  0.7954872571494318  0.06496696939831278  0.7864496149942466  1.0000
  H   H4        1.0  0.20450846069259387  0.9350322230202649  0.21355285981442043  1.0000
  H   H5        1.0  0.7979457745359112  0.34489025431218306  0.9002888655411423  1.0000
  H   H6        1.0  0.20205494240430255  0.6551089485688948  0.09970909214283806  1.0000
  H   H7        1.0  0.020174464030880242  0.4050417146321833  0.8974650323782994  1.0000
  H   H8        1.0  0.9798246797639223  0.5949563109395298  0.10253333266153662  1.0000
  H   H9        1.0  0.9473710473510197  0.3101023037895629  0.676774112025427  1.0000
  H   H10       1.0  0.05262747723379847  0.6898980429701638  0.32322478625133744  1.0000
  H   H11       1.0  0.7290135051927891  0.23590322621857493  0.6779748318349944  1.0000
  H   H12       1.0  0.27098375344032627  0.7640970923416787  0.32202315582805596  1.0000
  H   H13       1.0  0.6947599776474859  0.49720419872458865  0.7812672546589778  1.0000
  H   H14       1.0  0.30523981288904156  0.5027961762345965  0.2187325542315007  1.0000
  H   H15       1.0  0.9187513660697986  0.5836018510740998  0.8046866549458682  1.0000
  H   H16       1.0  0.08125188924469025  0.41639741843945177  0.19531393992349413  1.0000
  H   H17       1.0  0.8444972343178563  0.7361513570097244  0.5068005232464329  1.0000
  H   H18       1.0  0.1555032094312594  0.26385137757048227  0.49320154545264205  1.0000
  H   H19       1.0  0.6444801975879672  0.5944951980043598  0.45021212988020654  1.0000
  H   H20       1.0  0.3555233713910866  0.4055052308526255  0.5497879629775466  1.0000
  H   H21       1.0  0.6024730464320027  0.656066736492157  0.667327690261217  1.0000
  H   H22       1.0  0.39752833666252485  0.34393484647700473  0.3326741591472667  1.0000
  H   H23       1.0  0.8215798734093125  0.7647597370230342  0.7110065196410813  1.0000
  H   H24       1.0  0.1784202097309091  0.23523713693763426  0.2889916261081637  1.0000
  H   H25       1.0  0.9039801446672086  0.5179194531523734  0.5901031510266533  1.0000
  H   H26       1.0  0.09602342431184495  0.482080975704612  0.40989694183109987  1.0000
  H   H27       1.0  0.6855165395407709  0.41462006430786147  0.5594668846235534  1.0000
  H   H28       1.0  0.31448575701571707  0.5853803261161159  0.440531481662532  1.0000
  H   H29       1.0  0.16616368910014492  0.6265635217698956  0.6682309924902866  1.0000
  H   H30       1.0  0.833839553272618  0.37343572727657903  0.33176797046316137  1.0000
  H   H31       1.0  0.5823009942775809  0.9692558320074409  0.9069135235492706  1.0000
  H   H32       1.0  0.4177010015560684  0.030743419540179697  0.09308697666433118  1.0000
  H   H33       1.0  0.21327356038970888  0.4307165643840206  0.7572330108240874  1.0000
  H   H34       1.0  0.7867249965494307  0.5692838335433875  0.24276996724244515  1.0000
  H   H35       1.0  0.6439441042444827  0.7931749794510521  0.007689277826408136  1.0000
  H   H36       1.0  0.3560541325592295  0.2068242488993873  0.9923133862937801  1.0000
  H   H37       1.0  0.3754186894509245  0.3626714385124571  0.8959533546284174  1.0000
  H   H38       1.0  0.6245801940945055  0.6373301392254616  0.10405075334241319  1.0000
  C   C1        1.0  0.06383065930622679  0.1038409820570081  0.7929919306414346  1.0000
  C   C2        1.0  0.9361656518623249  0.8961558482394024  0.2070067470984894  1.0000
  C   C3        1.0  0.9136191646551879  0.15472954482026316  0.8423948656527923  1.0000
  C   C4        1.0  0.0863784270550879  0.8452719637840358  0.1576050678725095  1.0000
  C   C5        1.0  0.8976061090261778  0.316658075492171  0.8481324234243742  1.0000
  C   C6        1.0  0.1023936750394866  0.6833422892334793  0.1518665695081437  1.0000
  C   C7        1.0  0.8461825155779152  0.3300700516974046  0.7289913742485153  1.0000
  C   C8        1.0  0.15381600735862114  0.6699256654209832  0.2710088107724856  1.0000
  C   C9        1.0  0.8106804370024674  0.4879302475498333  0.741802518461881  1.0000
  C   C10       1.0  0.18932029287947208  0.5120689757983213  0.2581970711380065  1.0000
  C   C11       1.0  0.6222157183340257  0.8240826848880899  0.5246718215643822  1.0000
  C   C12       1.0  0.37778248611536464  0.17591649229466094  0.47532676276603764  1.0000
  C   C13       1.0  0.7152925220941453  0.7004432456900459  0.5267234322471452  1.0000
  C   C14       1.0  0.2847079087132514  0.2995594684230837  0.4732770045360154  1.0000
  C   C15       1.0  0.7287095156248566  0.6656401503607368  0.6395990429467274  1.0000
  C   C16       1.0  0.2712915279216475  0.3343602323308517  0.36040004464155817  1.0000
  C   C17       1.0  0.7838106258816352  0.5152813926164015  0.6260394522690049  1.0000
  C   C18       1.0  0.21619167067485273  0.4847189978075761  0.3739589140170735  1.0000
  C   C19       1.0  0.26956883232315926  0.6581106072615199  0.7441603232596278  1.0000
  C   C20       1.0  0.7304334771750546  0.3418898036295345  0.25583967494235776  1.0000
  C   C21       1.0  0.5017369624079321  0.849674446779815  0.8778695873907052  1.0000
  C   C22       1.0  0.49826315473488586  0.15032710798988091  0.12213135140406448  1.0000
  C   C23       1.0  0.2959143578263123  0.5501326210727058  0.7940107830916642  1.0000
  C   C24       1.0  0.704087631536474  0.4498666202413801  0.20598890116398386  1.0000
  C   C25       1.0  0.5353600368532694  0.7497673351286024  0.9335759975498732  1.0000
  C   C26       1.0  0.46463976662498396  0.25023306029765974  0.06642544325651295  1.0000
  C   C27       1.0  0.42929631108466987  0.5956153411028494  0.8929967954985755  1.0000
  C   C28       1.0  0.5707028796544691  0.40438738574496813  0.10700599450269267  1.0000
  C   C29       1.0  0.4496044567616834  0.4827894087142965  0.9471512965532937  1.0000
  C   C30       1.0  0.5503956733228675  0.5172121665224836  0.05285127415739047  1.0000
  N   N1        1.0  0.36971008944236405  0.8064221893543431  0.7852278697631687  1.0000
  N   N2        1.0  0.6302900341713241  0.1935793756488948  0.21477388498956163  1.0000
  O   O1        1.0  0.49408204323906085  0.13925458191951628  0.8019435623064695  1.0000
  O   O2        1.0  0.5059130100969395  0.8607468600523089  0.1980537340334577  1.0000
  O   O3        1.0  0.16357353196875818  0.83847535653085  0.5664628249820253  1.0000
  O   O4        1.0  0.8364284509231582  0.16152387454969389  0.43353604331566226  1.0000
  O   O5        1.0  0.13755591596616057  0.16427757854796712  0.7251247732540163  1.0000
  O   O6        1.0  0.8624410079415125  0.8357169203269021  0.27487255529101856  1.0000
  O   O7        1.0  0.11999262045609511  0.9965489478334456  0.815781520207558  1.0000
  O   O8        1.0  0.8800036842415935  0.003447872229436695  0.18421634157441244  1.0000
  O   O9        1.0  0.5500951830566692  0.8831968687563715  0.6095259412981661  1.0000
  O   O10       1.0  0.4499036681344463  0.11680465781385856  0.39047408688289653  1.0000
  O   O11       1.0  0.6162147335120595  0.8639275117193675  0.4350452161318187  1.0000
  O   O12       1.0  0.3837809309147673  0.13606696918957079  0.5649520177574628  1.0000
