data_image0
_chemical_formula_structural       Zn2H10C16N2O14
_chemical_formula_sum              "Zn2 H10 C16 N2 O14"
_cell_length_a       7.416094361937625
_cell_length_b       8.148979954129782
_cell_length_c       8.23415494750802
_cell_angle_alpha    106.36512943419297
_cell_angle_beta     105.33096268025713
_cell_angle_gamma    94.89383844448479

_space_group_name_H-M_alt    "P 1"
_space_group_IT_number       1

loop_
  _space_group_symop_operation_xyz
  'x, y, z'

loop_
  _atom_site_type_symbol
  _atom_site_label
  _atom_site_symmetry_multiplicity
  _atom_site_fract_x
  _atom_site_fract_y
  _atom_site_fract_z
  _atom_site_occupancy
  Zn  Zn1       1.0  0.3236576692638877  0.6333645130760889  0.6001712953285718  1.0000
  Zn  Zn2       1.0  0.6763451443724264  0.36663159023809294  0.39983324081943294  1.0000
  H   H1        1.0  0.16261876994037286  0.3487090533709249  0.6145608666419945  1.0000
  H   H2        1.0  0.8373891157316463  0.6512844519213631  0.38544167322225314  1.0000
  H   H3        1.0  0.3612693617137096  0.40830743416225357  0.7739874815047043  1.0000
  H   H4        1.0  0.638735363902171  0.5916912319561406  0.22602067196590525  1.0000
  H   H5        1.0  0.32400463457035755  0.1133438464575178  0.013495590324254216  1.0000
  H   H6        1.0  0.6760005390358259  0.88665757796187  0.9864988916073114  1.0000
  H   H7        1.0  0.8898807376812811  0.4161325593245948  0.10759649655125259  1.0000
  H   H8        1.0  0.1101247127092151  0.5838700961748772  0.8924044789816958  1.0000
  H   H9        1.0  0.7779066036747079  0.9959215372964679  0.6171779905341521  1.0000
  H   H10       1.0  0.22208162269179604  0.004078484807280302  0.382829130761614  1.0000
  C   C1        1.0  0.05977648690947029  0.04165539496398201  0.8011250607369289  1.0000
  C   C2        1.0  0.9402198050989267  0.958343461486038  0.19886781811614176  1.0000
  C   C3        1.0  0.18226299281423045  0.14231904849402355  0.9674004637653366  1.0000
  C   C4        1.0  0.8177363455895159  0.857681092253742  0.03259349829970402  1.0000
  C   C5        1.0  0.12234334204717359  0.27774418118516314  0.07770340605964073  1.0000
  C   C6        1.0  0.8776560107536181  0.7222559191797657  0.9222941912883795  1.0000
  C   C7        1.0  0.939377637846803  0.31363888180398203  0.021817999206966535  1.0000
  C   C8        1.0  0.06062246852269484  0.6863651271763447  0.9781796907693446  1.0000
  C   C9        1.0  0.8199191705334383  0.21056795003684667  0.85567596666435  1.0000
  C   C10       1.0  0.18007865740646173  0.7894386428783025  0.14432436801125462  1.0000
  C   C11       1.0  0.8761060686198828  0.0758160558061931  0.7442161507111463  1.0000
  C   C12       1.0  0.12389125374154028  0.924187940339316  0.25578331437160534  1.0000
  C   C13       1.0  0.11487383401137664  0.8889646594045431  0.6848275683863321  1.0000
  C   C14       1.0  0.8851208180027609  0.11103287878230357  0.3151669749845282  1.0000
  C   C15       1.0  0.25189894772643123  0.3771141529817684  0.2594668028901523  1.0000
  C   C16       1.0  0.7481022019205452  0.6228806993739724  0.7405333389706782  1.0000
  N   N1        1.0  0.6269915268485277  0.24282615031896887  0.7946986944768425  1.0000
  N   N2        1.0  0.37300631548841773  0.7571804022133435  0.20530527548174146  1.0000
  O   O1        1.0  0.28279140883479664  0.8560043205421694  0.7439053413985801  1.0000
  O   O2        1.0  0.7172027471988824  0.14399059395314134  0.2560907559014111  1.0000
  O   O3        1.0  0.9963948718047317  0.7995475904551627  0.5401571650212629  1.0000
  O   O4        1.0  0.003600280988870013  0.20045255796226513  0.4598370361814617  1.0000
  O   O5        1.0  0.39626069380468454  0.31410012398054493  0.3181690161517423  1.0000
  O   O6        1.0  0.6037390590392417  0.6858947354187278  0.6818308015013128  1.0000
  O   O7        1.0  0.20455590130054443  0.5158712921609023  0.3440685302582978  1.0000
  O   O8        1.0  0.7954487955212456  0.48412745472316493  0.65593235264636  1.0000
  O   O9        1.0  0.5726302579014443  0.35836154604059806  0.8988751357095521  1.0000
  O   O10       1.0  0.4273729428535446  0.641643612628009  0.10113575508864862  1.0000
  O   O11       1.0  0.5257348318920093  0.1576494194835192  0.643677768120959  1.0000
  O   O12       1.0  0.4742595736044776  0.8423610627948009  0.35632532184260407  1.0000
  O   O13       1.0  0.25417733907051593  0.4508617916700573  0.7059371822867319  1.0000
  O   O14       1.0  0.7458277481963831  0.5491317411702498  0.29406349740097676  1.0000
