data_image0
_chemical_formula_structural       Zn8H16C80Br8Cl16O26
_chemical_formula_sum              "Zn8 H16 C80 Br8 Cl16 O26"
_cell_length_a       23.8820971907506
_cell_length_b       23.88391430556732
_cell_length_c       23.881982613310395
_cell_angle_alpha    66.89469583924794
_cell_angle_beta     72.32100487371258
_cell_angle_gamma    107.68865524860901

_space_group_name_H-M_alt    "P 1"
_space_group_IT_number       1

loop_
  _space_group_symop_operation_xyz
  'x, y, z'

loop_
  _atom_site_type_symbol
  _atom_site_label
  _atom_site_symmetry_multiplicity
  _atom_site_fract_x
  _atom_site_fract_y
  _atom_site_fract_z
  _atom_site_occupancy
  Zn  Zn1       1.0  0.057526656029672746  0.9579194398065952  0.4845679463572878  1.0000
  Zn  Zn2       1.0  0.057523994449056204  0.09961283583209732  0.4579178409634538  1.0000
  Zn  Zn3       1.0  0.9424681170619993  0.9845674447254069  0.4579123738232839  1.0000
  Zn  Zn4       1.0  0.9424877034761892  0.9579131632893476  0.599613305179716  1.0000
  Zn  Zn5       1.0  0.9424773169185342  0.5420850534078028  0.015429566123536699  1.0000
  Zn  Zn6       1.0  0.057533085992687895  0.5154374011080378  0.042087095026666126  1.0000
  Zn  Zn7       1.0  0.9424762440124539  0.40039089546334594  0.042087865034069756  1.0000
  Zn  Zn8       1.0  0.057511385976439997  0.542083995794293  0.9003864256299324  1.0000
  H   H1        1.0  0.9237470171787336  0.6520950318665654  0.11236855627359435  1.0000
  H   H2        1.0  0.07625302015575396  0.6123591673106787  0.1521361350475985  1.0000
  H   H3        1.0  0.9237425980727139  0.8876369836568326  0.34786845092595114  1.0000
  H   H4        1.0  0.07619249069600895  0.8478305815645155  0.3877088699560007  1.0000
  H   H5        1.0  0.07626568012734233  0.4638574396744132  0.7716612735182055  1.0000
  H   H6        1.0  0.9237581135081498  0.2716176976306314  0.9639042034622137  1.0000
  H   H7        1.0  0.0761945482752679  0.2283682512227898  0.536111976969444  1.0000
  H   H8        1.0  0.9237445766079022  0.036113347856229334  0.7283672993817802  1.0000
  H   H9        1.0  0.7355259956878157  0.4638822479149097  0.11233515837096071  1.0000
  H   H10       1.0  0.7355177471613744  0.27162433133008074  0.15213858883393544  1.0000
  H   H11       1.0  0.2644855694538463  0.2283824470372408  0.34784949143644184  1.0000
  H   H12       1.0  0.264479147800607  0.036140273389264566  0.3875850326306961  1.0000
  H   H13       1.0  0.2644864139970479  0.6123179640207893  0.9638760264283663  1.0000
  H   H14       1.0  0.26447323318290467  0.6521309441534411  0.771610347273125  1.0000
  H   H15       1.0  0.7355301645815401  0.8478622054867839  0.7283892391547016  1.0000
  H   H16       1.0  0.7355099410909888  0.8876057885506511  0.5361387952335903  1.0000
  C   C1        1.0  0.1822436390463054  0.09113478141812688  0.40886369774421644  1.0000
  C   C2        1.0  0.9999973769220388  0.13673304820513002  0.3632690482017367  1.0000
  C   C3        1.0  0.9999821762158873  0.9088719039166406  0.4088939435719468  1.0000
  C   C4        1.0  0.8177575194731476  0.9088630032177036  0.591141081548436  1.0000
  C   C5        1.0  7.717779446472662e-06  0.8632743791400015  0.6367290651012213  1.0000
  C   C6        1.0  0.9999869288522945  0.0911234307152852  0.5911229565690164  1.0000
  C   C7        1.0  5.658522887565732e-06  0.5911133709791442  0.09112565937501668  1.0000
  C   C8        1.0  7.4567351262455115e-06  0.3632757803199595  0.13672655810859885  1.0000
  C   C9        1.0  0.8177600735188477  0.4088734099799183  0.09111156286452647  1.0000
  C   C10       1.0  1.0385352311007583e-06  0.40886351370029667  0.9088930231939402  1.0000
  C   C11       1.0  0.9999957250241707  0.6367281706042573  0.8632693169412492  1.0000
  C   C12       1.0  0.18223525860849304  0.591115898972262  0.908864822285452  1.0000
  C   C13       1.0  4.746012088352791e-06  0.8051607313107568  0.694839106332978  1.0000
  C   C14       1.0  0.9999989824355352  0.6948405438021581  0.8051588538562273  1.0000
  C   C15       1.0  0.9569587471308195  0.7769192122845964  0.7661217838195358  1.0000
  C   C16       1.0  0.043042782711282083  0.7230798661846902  0.7338772890322435  1.0000
  C   C17       1.0  0.956957145363205  0.7230782381049675  0.8199613322380729  1.0000
  C   C18       1.0  0.04304550571167433  0.7769214399994552  0.680036746003424  1.0000
  C   C19       1.0  0.9999985673052761  0.19484023337447776  0.30515748654281094  1.0000
  C   C20       1.0  6.529462503121817e-06  0.3051626241429303  0.194840392294374  1.0000
  C   C21       1.0  0.956958724287901  0.18003943578030157  0.2769114099279264  1.0000
  C   C22       1.0  0.04304689990232191  0.3199618713180498  0.22308733863567914  1.0000
  C   C23       1.0  0.9569614472744946  0.23388101327074645  0.22307295908655064  1.0000
  C   C24       1.0  0.04304441870795735  0.266120014364212  0.2769249888693111  1.0000
  C   C25       1.0  2.791890380544567e-07  0.6285747539894118  0.1285969713609988  1.0000
  C   C26       1.0  0.9569451999417851  0.6572082556601585  0.13484012092347103  1.0000
  C   C27       1.0  0.9570343737476322  0.6920075524962782  0.16971077182358843  1.0000
  C   C28       1.0  0.9999943851318774  0.6994341316102035  0.19946572969529808  1.0000
  C   C29       1.0  0.04296040190310892  0.6696937087336889  0.19204086680490215  1.0000
  C   C30       1.0  0.04305381458765109  0.6348244810933606  0.15724210933883856  1.0000
  C   C31       1.0  0.9999904836434939  0.7346691734018265  0.2347100450425473  1.0000
  C   C32       1.0  0.9999855851420203  0.7652856176589251  0.26533536989246925  1.0000
  C   C33       1.0  0.9999718569090486  0.8005196730310042  0.3005813758070207  1.0000
  C   C34       1.0  0.9570207706477591  0.8302812713471326  0.30798229756800316  1.0000
  C   C35       1.0  0.9569277538303425  0.8651519340722444  0.34278078849706617  1.0000
  C   C36       1.0  0.9999652612674904  0.8713851459574824  0.3714444063199239  1.0000
  C   C37       1.0  0.04300358596709236  0.8427255780673165  0.36522706906544045  1.0000
  C   C38       1.0  0.04291768815053848  0.8079300719427849  0.33035351370050137  1.0000
  C   C39       1.0  1.5759794891257315e-05  0.3713932932616827  0.8714303184332622  1.0000
  C   C40       1.0  0.043070423245808155  0.4081936299063073  0.7997456438929476  1.0000
  C   C41       1.0  0.04297122736799245  0.3732312485060446  0.7650402569004058  1.0000
  C   C42       1.0  5.867680307924413e-06  0.3005269373132151  0.8005726305237317  1.0000
  C   C43       1.0  0.9570437142352972  0.26499415234477636  0.8732798333565271  1.0000
  C   C44       1.0  0.9569602186119824  0.29970099362870456  0.9082400517422825  1.0000
  C   C45       1.0  0.9999964898157357  0.26529052602579356  0.7653297170179414  1.0000
  C   C46       1.0  0.9999899580255657  0.23468342785872645  0.7346945422966371  1.0000
  C   C47       1.0  0.9999739203945596  0.19944768418368852  0.699451937749842  1.0000
  C   C48       1.0  0.042916949004379  0.2349873294038005  0.6267407076384472  1.0000
  C   C49       1.0  0.04300215966807027  0.20028323854435104  0.5917780487431942  1.0000
  C   C50       1.0  0.9999675686059247  0.12858953291920724  0.6285861766376684  1.0000
  C   C51       1.0  0.9569291059997057  0.09178097997486388  0.7002796482548562  1.0000
  C   C52       1.0  0.9570230252148875  0.126738091929866  0.7349891283250471  1.0000
  C   C53       1.0  0.7428281394638604  0.37141030337009073  0.128579535797826  1.0000
  C   C54       1.0  0.7079435359044766  0.40821379459332247  0.13481348336886617  1.0000
  C   C55       1.0  0.6382763559143071  0.37325413410859193  0.1696861198884393  1.0000
  C   C56       1.0  0.6011006958052363  0.3005465959462369  0.1994431501394162  1.0000
  C   C57       1.0  0.6382719756782862  0.2650082921683106  0.19203231058636325  1.0000
  C   C58       1.0  0.7079404674195827  0.299714154612907  0.15723539108357446  1.0000
  C   C59       1.0  0.5306202035482386  0.265317492635539  0.23467459448276176  1.0000
  C   C60       1.0  0.46937946633956773  0.23470948804487077  0.2652773211306397  1.0000
  C   C61       1.0  0.39890198457263887  0.1994693595851657  0.3005088469494056  1.0000
  C   C62       1.0  0.3617297149310302  0.2350041024835788  0.30793562581326483  1.0000
  C   C63       1.0  0.2920632677258794  0.20029872066416488  0.3427300617077477  1.0000
  C   C64       1.0  0.2571781902618895  0.12860617496511398  0.3713682187318952  1.0000
  C   C65       1.0  0.2920605740271043  0.09180614409117284  0.3651126441269099  1.0000
  C   C66       1.0  0.3617275560105639  0.12676510651459688  0.3302512294692619  1.0000
  C   C67       1.0  0.2571712366496754  0.6285705792257302  0.8714001999581953  1.0000
  C   C68       1.0  0.2920654744911032  0.6347969215788679  0.9082075772684988  1.0000
  C   C69       1.0  0.3617327108201777  0.6696665552727621  0.8732497958844763  1.0000
  C   C70       1.0  0.3989013399483384  0.6994312324009114  0.8005390767435756  1.0000
  C   C71       1.0  0.36172302907780807  0.6920266795554324  0.7649987380316219  1.0000
  C   C72       1.0  0.29205496708368617  0.6572275091797832  0.799701642700903  1.0000
  C   C73       1.0  0.4693816354219109  0.734670023365517  0.7653118314349926  1.0000
  C   C74       1.0  0.5306214718330083  0.7652828506938292  0.7347120837798969  1.0000
  C   C75       1.0  0.6011002064266648  0.8005205829929452  0.6994748414894331  1.0000
  C   C76       1.0  0.6382791360129687  0.8079527735480454  0.7350078736424025  1.0000
  C   C77       1.0  0.7079463399208024  0.8427453637241127  0.7003027964229037  1.0000
  C   C78       1.0  0.7428243966569852  0.871385188730201  0.6286072528576769  1.0000
  C   C79       1.0  0.7079344208759579  0.8651350481738616  0.5918062846281205  1.0000
  C   C80       1.0  0.6382678221731197  0.8302665789229805  0.626768020117247  1.0000
  Br  Br1       1.0  0.8962772970648346  0.8087864471555832  0.7949298371177989  1.0000
  Br  Br2       1.0  0.10371990194034467  0.6912119421753715  0.7050708191834475  1.0000
  Br  Br3       1.0  0.8962795225351812  0.6912030493881857  0.9125099114398624  1.0000
  Br  Br4       1.0  0.10372231428034677  0.8087890599649297  0.5874901389432879  1.0000
  Br  Br5       1.0  0.8962813733683815  0.08749257240236126  0.30877080732042134  1.0000
  Br  Br6       1.0  0.10372240423167509  0.41250896830509015  0.19122840861428608  1.0000
  Br  Br7       1.0  0.8962804231974317  0.205078286558475  0.19119152777129506  1.0000
  Br  Br8       1.0  0.10372808112599322  0.2949253732261424  0.30880290911453306  1.0000
  Cl  Cl1       1.0  0.09607329826732067  0.677107621022479  0.22709798507885645  1.0000
  Cl  Cl2       1.0  0.903916915723812  0.7270535791619321  0.17711354921462438  1.0000
  Cl  Cl3       1.0  0.09602070049951554  0.7728628736552992  0.322968896271334  1.0000
  Cl  Cl4       1.0  0.9039256836733001  0.822890325174775  0.2729015248763886  1.0000
  Cl  Cl5       1.0  0.903921657052109  0.17683410841816302  0.9189788834679574  1.0000
  Cl  Cl6       1.0  0.09609298918852019  0.4189425967984803  0.6768729098324187  1.0000
  Cl  Cl7       1.0  0.9039342613517148  0.08103322958208288  0.8231564858057894  1.0000
  Cl  Cl8       1.0  0.09601928755582627  0.32315207985221406  0.5810374023976906  1.0000
  Cl  Cl9       1.0  0.595814402414689  0.17684239579001826  0.22710578648866434  1.0000
  Cl  Cl10      1.0  0.5958157012520573  0.4189574693640309  0.17707993286826007  1.0000
  Cl  Cl11      1.0  0.4041825821355971  0.08105403406926102  0.3228408145466802  1.0000
  Cl  Cl12      1.0  0.40419739917224723  0.3231593749240673  0.2728955140667324  1.0000
  Cl  Cl13      1.0  0.40417763579974053  0.727102059098847  0.6768296411863377  1.0000
  Cl  Cl14      1.0  0.4042018942589607  0.6770577507796388  0.9189579682914087  1.0000
  Cl  Cl15      1.0  0.5958048588616761  0.8228644389486559  0.581054319096694  1.0000
  Cl  Cl16      1.0  0.5958269068823937  0.7729067913816009  0.8231701127986072  1.0000
  O   O1        1.0  0.9999969499673255  0.9999986953590391  0.500000908419331  1.0000
  O   O2        1.0  0.1533552969114638  0.0260606156047771  0.4327346090741173  1.0000
  O   O3        1.0  0.03975731093895263  0.15395385795187622  0.3857922650842411  1.0000
  O   O4        1.0  0.9587757082784659  0.9327374164281038  0.41391395500697603  1.0000
  O   O5        1.0  0.15335617845862257  0.12730271882011115  0.4139127227997507  1.0000
  O   O6        1.0  0.04120306483741832  0.913915301972871  0.4327414599431307  1.0000
  O   O7        1.0  0.9602191969537373  0.07443286913145636  0.38580828031813746  1.0000
  O   O8        1.0  0.8466426199248789  0.9327249852049987  0.5260663459339483  1.0000
  O   O9        1.0  0.9602541012114331  0.88580186226757  0.6539541882971845  1.0000
  O   O10       1.0  0.8466505292692544  0.9139017916052411  0.6273140809454889  1.0000
  O   O11       1.0  0.0397725436450145  0.8858088218412662  0.5744358408792537  1.0000
  O   O12       1.0  0.04120047003826239  0.12729832856602027  0.5260595865156574  1.0000
  O   O13       1.0  0.9587889783491692  0.026052546016437538  0.6273013062968359  1.0000
  O   O14       1.0  3.857195387864468e-06  0.5000047220058405  2.592905012538418e-06  1.0000
  O   O15       1.0  0.9587937623052909  0.5860794641749719  0.06726623642898488  1.0000
  O   O16       1.0  0.03978436137642655  0.42557365035626293  0.1141907155941624  1.0000
  O   O17       1.0  0.8466494682953396  0.37270327656808877  0.08607872857137285  1.0000
  O   O18       1.0  0.04122294412498206  0.5672628105954657  0.08609187460939448  1.0000
  O   O19       1.0  0.8466514272566384  0.4739469657648883  0.06725044768239039  1.0000
  O   O20       1.0  0.960248248067316  0.346054139534388  0.11420512377774378  1.0000
  O   O21       1.0  0.95878703630094  0.3726938704175496  0.9739548816451843  1.0000
  O   O22       1.0  0.03973938211592555  0.6141922883484695  0.8460446574390517  1.0000
  O   O23       1.0  0.04120180279468837  0.47393304767160044  0.8727114221015172  1.0000
  O   O24       1.0  0.9602379346692089  0.6142007643669486  0.9255630813303528  1.0000
  O   O25       1.0  0.1533515662043854  0.5672636416715519  0.9739390689214816  1.0000
  O   O26       1.0  0.1533408869747674  0.5860871856849598  0.8726920349665976  1.0000
