data_image0
_chemical_formula_structural       Cd4H40C56N16O8
_chemical_formula_sum              "Cd4 H40 C56 N16 O8"
_cell_length_a       9.892909111502549
_cell_length_b       9.890131862318626
_cell_length_c       16.621828415389004
_cell_angle_alpha    95.41579591714304
_cell_angle_beta     102.88385255188177
_cell_angle_gamma    117.80124532383442

_space_group_name_H-M_alt    "P 1"
_space_group_IT_number       1

loop_
  _space_group_symop_operation_xyz
  'x, y, z'

loop_
  _atom_site_type_symbol
  _atom_site_label
  _atom_site_symmetry_multiplicity
  _atom_site_fract_x
  _atom_site_fract_y
  _atom_site_fract_z
  _atom_site_occupancy
  Cd  Cd1       1.0  0.04971590843180709  0.3223763375395166  0.009782896606438402  1.0000
  Cd  Cd2       1.0  0.8131111871980464  0.040398567115985905  0.4901193841293008  1.0000
  Cd  Cd3       1.0  0.9502816985802766  0.6776210344386088  0.9902159795575897  1.0000
  Cd  Cd4       1.0  0.1868857271256774  0.9596035003072888  0.5098790391503131  1.0000
  H   H1        1.0  0.7784341936996028  0.8926158992290281  0.003676279084928046  1.0000
  H   H2        1.0  0.3879523192228831  0.7743001469438227  0.49614328093142024  1.0000
  H   H3        1.0  0.2215722882599138  0.10738265433106162  0.9963251024874751  1.0000
  H   H4        1.0  0.6120472097677592  0.22570309932300603  0.5038585777213385  1.0000
  H   H5        1.0  0.5621635948585392  0.8966946028141152  0.058759951128927  1.0000
  H   H6        1.0  0.33686081671598334  0.502886129448072  0.440931594377524  1.0000
  H   H7        1.0  0.4378424761375115  0.10330512343831091  0.9412402310195559  1.0000
  H   H8        1.0  0.6631396880307038  0.49711712036940287  0.5590734091383993  1.0000
  H   H9        1.0  0.42673502480174363  0.6884522534538533  0.13623185381980824  1.0000
  H   H10       1.0  0.05117877553619374  0.2899449474713053  0.3636669043002314  1.0000
  H   H11       1.0  0.573268394641552  0.31154629564279196  0.8637666928776896  1.0000
  H   H12       1.0  0.9488242392294097  0.7100571300040456  0.6363383886772952  1.0000
  H   H13       1.0  0.5063449639863079  0.48817433068714416  0.1526941381971483  1.0000
  H   H14       1.0  0.8345255301078183  0.3531237535855993  0.3474296454727224  1.0000
  H   H15       1.0  0.4936508748763373  0.5118195159375816  0.8473025014934733  1.0000
  H   H16       1.0  0.1654763058914952  0.6468759736541615  0.652574156522533  1.0000
  H   H17       1.0  0.6519409867661919  0.33943952092447915  0.19110659697913226  1.0000
  H   H18       1.0  0.6477924124691655  0.4609157777734225  0.30866266234406936  1.0000
  H   H19       1.0  0.3480619479419573  0.6605602042400348  0.8088943501387575  1.0000
  H   H20       1.0  0.35220739824637076  0.5390839457405859  0.6913384497691766  1.0000
  H   H21       1.0  0.8274611483266483  0.20535739548606102  0.1534949583013301  1.0000
  H   H22       1.0  0.5518349840362546  0.6745892546750485  0.3460686788795329  1.0000
  H   H23       1.0  0.1725434129970934  0.7946435055339477  0.8465068793005983  1.0000
  H   H24       1.0  0.44816156115282285  0.3254081176905573  0.6539312522397012  1.0000
  H   H25       1.0  0.4389821629939731  0.9142145100258289  0.8069097690989719  1.0000
  H   H26       1.0  0.607469030801326  0.6320009076530368  0.6928251787457427  1.0000
  H   H27       1.0  0.5610215641075699  0.0857887369414314  0.1930902696291596  1.0000
  H   H28       1.0  0.39252975631983117  0.3680070363093008  0.30717862691881237  1.0000
  H   H29       1.0  0.6828729856942743  0.026706857161194395  0.9345146783471349  1.0000
  H   H30       1.0  0.5925326846856862  0.7484925534231267  0.5652282564373579  1.0000
  H   H31       1.0  0.3171297410606612  0.9732963873805929  0.06548341546594827  1.0000
  H   H32       1.0  0.40746743368809746  0.25151186796149727  0.4347743477065364  1.0000
  H   H33       1.0  0.9619323414502716  0.3496991472844542  0.8152482301492938  1.0000
  H   H34       1.0  0.03474223387694761  0.14659744154237592  0.6844994850189821  1.0000
  H   H35       1.0  0.038066131726871864  0.6503017431208777  0.1847461377806638  1.0000
  H   H36       1.0  0.965259651303484  0.8534022834470252  0.3155019170800699  1.0000
  H   H37       1.0  0.7305498218311897  0.24589578939934859  0.6825359113762773  1.0000
  H   H38       1.0  0.06355112406818358  0.0477038551417692  0.8171822825790969  1.0000
  H   H39       1.0  0.26944371002279155  0.7541015762524452  0.3174587849718336  1.0000
  H   H40       1.0  0.9364499268900418  0.952298215794883  0.1828173206461585  1.0000
  C   C1        1.0  0.7132485884904513  0.8049063158111381  0.0364052278963669  1.0000
  C   C2        1.0  0.26754518476217026  0.6763830609681137  0.46344325701392103  1.0000
  C   C3        1.0  0.28675584359473305  0.1950922351483797  0.9635946637421282  1.0000
  C   C4        1.0  0.7324549336116134  0.32362136041651013  0.5365593471299661  1.0000
  C   C5        1.0  0.5953135443561521  0.8073900910734438  0.06810299101471169  1.0000
  C   C6        1.0  0.23827414612701145  0.5267208312074771  0.43167486282499823  1.0000
  C   C7        1.0  0.4046886471397357  0.1926061100379641  0.9318964645967256  1.0000
  C   C8        1.0  0.7617257323506904  0.4732812451799617  0.5683311951219494  1.0000
  C   C9        1.0  0.5212496181377304  0.6927897753472224  0.11133769183234682  1.0000
  C   C10       1.0  0.0804563049980516  0.4094035706443009  0.3885305685406806  1.0000
  C   C11       1.0  0.47875116204808416  0.3072075960310414  0.8886586194401076  1.0000
  C   C12       1.0  0.9195440459195154  0.5905973302378625  0.6114736889599185  1.0000
  C   C13       1.0  0.5668972118279002  0.5804566589804949  0.12128421197846251  1.0000
  C   C14       1.0  0.958214677667236  0.44512408737575276  0.37871515271325507  1.0000
  C   C15       1.0  0.43309846091034376  0.41953483927151325  0.8787122816708858  1.0000
  C   C16       1.0  0.04178358649015479  0.554876812593605  0.6212894147755958  1.0000
  C   C17       1.0  0.6867174541018458  0.5851493272647377  0.08776384855872983  1.0000
  C   C18       1.0  0.99649573563061  0.5985055865056311  0.4122224209179279  1.0000
  C   C19       1.0  0.31328166258254697  0.41484686994579795  0.9122333721518531  1.0000
  C   C20       1.0  0.0035025531173432317  0.4014953123385467  0.5877809466228212  1.0000
  C   C21       1.0  0.7415456382682349  0.4716481646192178  0.09475071712694219  1.0000
  C   C22       1.0  0.876184871752642  0.6465414887255888  0.40519534328868895  1.0000
  C   C23       1.0  0.25845346612087633  0.5283480331539111  0.9052471035576914  1.0000
  C   C24       1.0  0.12381450340887312  0.35345940860592157  0.5948057693487456  1.0000
  C   C25       1.0  0.7196344285406157  0.36257217124537533  0.14612470214096623  1.0000
  C   C26       1.0  0.7159231627557149  0.5735582810636686  0.35368449857002554  1.0000
  C   C27       1.0  0.28036419111335686  0.6374252025956226  0.8538755189640668  1.0000
  C   C28       1.0  0.28407397181651106  0.426440266419732  0.6463161780403439  1.0000
  C   C29       1.0  0.8080234159241044  0.2939720425235208  0.127656746735191  1.0000
  C   C30       1.0  0.6660617777786867  0.6806935640646614  0.37202840772379636  1.0000
  C   C31       1.0  0.19197864767600953  0.7060300302760041  0.8723442014310764  1.0000
  C   C32       1.0  0.33393535679353903  0.3193049834187392  0.6279722688865731  1.0000
  C   C33       1.0  0.5542628754289679  0.008445457117787197  0.8064511359332229  1.0000
  C   C34       1.0  0.7022015996015512  0.7477183773566977  0.69328619560752  1.0000
  C   C35       1.0  0.4457396852015662  0.9915554390512894  0.19354681183858696  1.0000
  C   C36       1.0  0.29779791709380277  0.2522848694727173  0.30671626301928967  1.0000
  C   C37       1.0  0.6889466195697408  0.0713538107497698  0.8770768623025801  1.0000
  C   C38       1.0  0.6945867973416214  0.8118755253629503  0.6226584455422284  1.0000
  C   C39       1.0  0.31105697829323725  0.9286470861569994  0.12292123046213278  1.0000
  C   C40       1.0  0.30541319179360465  0.18812654596118958  0.3773422126382329  1.0000
  C   C41       1.0  0.8447111793966613  0.25178729517434556  0.8108483088510353  1.0000
  C   C42       1.0  0.9412322689086353  0.03375438071946489  0.6888941902345992  1.0000
  C   C43       1.0  0.15528442692220792  0.7482100719528406  0.18914667748287434  1.0000
  C   C44       1.0  0.05876967774819532  0.9662453414569897  0.31110421199417704  1.0000
  C   C45       1.0  0.716347570518721  0.1946256943957323  0.7372771836285139  1.0000
  C   C46       1.0  0.9575583097995375  0.9788488302984958  0.7624497225517217  1.0000
  C   C47       1.0  0.2836508534773117  0.8053751982599594  0.26271958419764724  1.0000
  C   C48       1.0  0.0424510267229792  0.021153247102326102  0.2375516405907732  1.0000
  C   C49       1.0  0.5674542869667292  0.0706868394822067  0.7346075571929092  1.0000
  C   C50       1.0  0.8362315133562958  0.8326600905657173  0.7651329854184965  1.0000
  C   C51       1.0  0.4325435107603184  0.9293128797434492  0.2653902650642763  1.0000
  C   C52       1.0  0.16377099809311352  0.16734080785371225  0.2348673622495241  1.0000
  C   C53       1.0  0.4237728097490318  0.010045750726753497  0.6572438963290991  1.0000
  C   C54       1.0  0.852881694680022  0.7663754610269821  0.842548545129688  1.0000
  C   C55       1.0  0.5762243494137493  0.9899527956314672  0.34275558033316855  1.0000
  C   C56       1.0  0.1471226218046624  0.23362896105807354  0.15745223908958647  1.0000
  N   N1        1.0  0.8771915630993304  0.3574942883507504  0.06864803461814259  1.0000
  N   N2        1.0  0.7885535496972266  0.8087212583613734  0.43111899660544134  1.0000
  N   N3        1.0  0.1228069027255145  0.6425007365549362  0.9313514404715661  1.0000
  N   N4        1.0  0.21144418655342176  0.1912784636772358  0.5688818255220126  1.0000
  N   N5        1.0  0.8358068655787603  0.46485704395662003  0.04813095403060424  1.0000
  N   N6        1.0  0.9161448301837183  0.787494787826141  0.45180116712551677  1.0000
  N   N7        1.0  0.1641894088379061  0.535135628850597  0.9518656851358287  1.0000
  N   N8        1.0  0.08385350774535277  0.21250610876767687  0.5481998005190221  1.0000
  N   N9        1.0  0.7582839811772927  0.6975356663749679  0.0463849514490207  1.0000
  N   N10       1.0  0.1502218359584476  0.7114339375896678  0.45354633279541895  1.0000
  N   N11       1.0  0.24171614814898126  0.302460532698447  0.9536136142025597  1.0000
  N   N12       1.0  0.8497754401476173  0.2885669593916306  0.5464556898043186  1.0000
  N   N13       1.0  0.8321120725036619  0.19136680508371737  0.8797647173111824  1.0000
  N   N14       1.0  0.8119471132514915  0.952366578186968  0.619992263863132  1.0000
  N   N15       1.0  0.16789216392358242  0.8086352646904942  0.12023172104845509  1.0000
  N   N16       1.0  0.18805433637491833  0.047634320619948795  0.3800091387601015  1.0000
  O   O1        1.0  0.2856638776440407  0.9223038972096022  0.6629698938870163  1.0000
  O   O2        1.0  0.7592605302284736  0.6226557684468547  0.836987190561338  1.0000
  O   O3        1.0  0.7143338709018819  0.07769582426642072  0.33703032826638696  1.0000
  O   O4        1.0  0.24073988216548506  0.3773451296223627  0.16301406706899257  1.0000
  O   O5        1.0  0.45252668633183646  0.055871968607093  0.5902237311130064  1.0000
  O   O6        1.0  0.9659497776357923  0.8622204000859098  0.9094839065893439  1.0000
  O   O7        1.0  0.5474673734288872  0.9441265749754495  0.40977471059650833  1.0000
  O   O8        1.0  0.03405336008260212  0.13778167176354833  0.0905153866476525  1.0000
