data_image0
_chemical_formula_structural       Ag4H24C28N20
_chemical_formula_sum              "Ag4 H24 C28 N20"
_cell_length_a       8.483707158684364
_cell_length_b       8.577866125884201
_cell_length_c       11.12118691055729
_cell_angle_alpha    97.43484578583637
_cell_angle_beta     90.87719960658902
_cell_angle_gamma    94.66463825109228

_space_group_name_H-M_alt    "P 1"
_space_group_IT_number       1

loop_
  _space_group_symop_operation_xyz
  'x, y, z'

loop_
  _atom_site_type_symbol
  _atom_site_label
  _atom_site_symmetry_multiplicity
  _atom_site_fract_x
  _atom_site_fract_y
  _atom_site_fract_z
  _atom_site_occupancy
  Ag  Ag1       1.0  0.7968093086379185  0.5393483670554247  0.6221607355187331  1.0000
  Ag  Ag2       1.0  0.20319136916277364  0.46065311246625384  0.3778412389628301  1.0000
  Ag  Ag3       1.0  0.4877716413414248  0.6829607721015379  0.900735786721583  1.0000
  Ag  Ag4       1.0  0.5122289297505772  0.31703953605904905  0.09926516401928613  1.0000
  H   H1        1.0  0.5292694514396885  0.9125741008496179  0.6896063665717806  1.0000
  H   H2        1.0  0.4707288747904457  0.0874274216639321  0.31039288609004956  1.0000
  H   H3        1.0  0.7890044033256984  0.7814803278531174  0.3675033573845852  1.0000
  H   H4        1.0  0.2109962775453766  0.21852116851434292  0.6324968204912195  1.0000
  H   H5        1.0  0.906195313480744  0.058756455160413223  0.3770880875082483  1.0000
  H   H6        1.0  0.09380525914644984  0.9412438614230613  0.6229119649297417  1.0000
  H   H7        1.0  0.8409903904925643  0.2609835694187268  0.5441202599752089  1.0000
  H   H8        1.0  0.1590090055817583  0.7390167644492395  0.45587888070435406  1.0000
  H   H9        1.0  0.8614312591683772  0.8226605385461953  0.7856516218038719  1.0000
  H   H10       1.0  0.13856942323788962  0.17734096624415943  0.2143476577690606  1.0000
  H   H11       1.0  0.7907586100996725  0.8651030303547176  0.17053658386212334  1.0000
  H   H12       1.0  0.20924045970780722  0.13489375573839615  0.8294630788068531  1.0000
  H   H13       1.0  0.03164850048621303  0.7244079079984618  0.19735221850756093  1.0000
  H   H14       1.0  0.9683469268131903  0.275587724895459  0.8026472783569503  1.0000
  H   H15       1.0  0.18351274368180273  0.6252414584542337  0.017496893513218533  1.0000
  H   H16       1.0  0.8164864343695654  0.3747565074228661  0.9825028945935799  1.0000
  H   H17       1.0  0.5894395570081984  0.6066431712949907  0.44617018742000875  1.0000
  H   H18       1.0  0.41056101254861244  0.3933571284427018  0.5538316616237324  1.0000
  H   H19       1.0  0.4950894326610609  0.6547873653715826  0.5767847449079114  1.0000
  H   H20       1.0  0.5049124232277008  0.3452141052884913  0.42321724302919955  1.0000
  H   H21       1.0  0.6605869794610372  0.9940550002054355  0.8993675471685876  1.0000
  H   H22       1.0  0.3394138081187279  0.005947667523123801  0.1006336544479183  1.0000
  H   H23       1.0  0.6200378887832373  0.9607077817455125  0.040787669327272666  1.0000
  H   H24       1.0  0.3799627890174548  0.0392936977761664  0.9592143051542906  1.0000
  C   C1        1.0  0.6313296826693247  0.21699786151067713  0.7245924715125726  1.0000
  C   C2        1.0  0.3686709982017504  0.7830036348567903  0.2754077063632323  1.0000
  C   C3        1.0  0.678885784447921  0.10042579283842912  0.6271746690325983  1.0000
  C   C4        1.0  0.3211137198702831  0.8995757208135233  0.3728245970847794  1.0000
  C   C5        1.0  0.6141936360302155  0.9440443835573693  0.62229910837074  1.0000
  C   C6        1.0  0.3858046901999188  0.055957138956181006  0.37770014429109006  1.0000
  C   C7        1.0  0.6547196792430867  0.8289408586003618  0.5298452297808538  1.0000
  C   C8        1.0  0.3452797168312358  0.17105947526759732  0.4701539108987022  1.0000
  C   C9        1.0  0.7578936193921779  0.8716264742025573  0.43965133124860506  1.0000
  C   C10       1.0  0.24210577514694623  0.12837385124251452  0.56034870773383  1.0000
  C   C11       1.0  0.8227769645016992  0.026784684854291606  0.44526468242990797  1.0000
  C   C12       1.0  0.1772214699723165  0.9732180174432443  0.5547346956697368  1.0000
  C   C13       1.0  0.7859327212134417  0.1411321509547392  0.5391874625642714  1.0000
  C   C14       1.0  0.21406678463995382  0.8588693711201076  0.4608109052502273  1.0000
  C   C15       1.0  0.1198473215140794  0.6603450489906351  0.783773157124763  1.0000
  C   C16       1.0  0.8801520714898602  0.3396552680315495  0.21622778016055122  1.0000
  C   C17       1.0  0.03513561616760092  0.722041413275079  0.8908234667059531  1.0000
  C   C18       1.0  0.9648650616330912  0.2779600662465996  0.10917850777561003  1.0000
  C   C19       1.0  0.8995333834132424  0.8013469033297299  0.8759436969072282  1.0000
  C   C20       1.0  0.1004648330378188  0.19865343097693974  0.12405632861966612  1.0000
  C   C21       1.0  0.8100047980836536  0.8504679885614977  0.9763644554948527  1.0000
  C   C22       1.0  0.18999459645547737  0.14953233688357412  0.023635583487582306  1.0000
  C   C23       1.0  0.8602805407709228  0.8250407610106265  0.09252327614635193  1.0000
  C   C24       1.0  0.1397173524836859  0.17495604236697204  0.9074754747641977  1.0000
  C   C25       1.0  0.9954156148128774  0.746701377713599  0.10703659122458482  1.0000
  C   C26       1.0  0.0045834549946022  0.2532954083795147  0.8929630714443917  1.0000
  C   C27       1.0  0.0828599992452652  0.6935951323756767  0.006945542067946107  1.0000
  C   C28       1.0  0.9171392870499844  0.30640401328540895  0.9930543714766671  1.0000
  N   N1        1.0  0.6515455512992433  0.37574039724554353  0.7293039068671661  1.0000
  N   N2        1.0  0.3484563076599017  0.624261090260319  0.27069628446419364  1.0000
  N   N3        1.0  0.5896898406023966  0.4344225087809406  0.8347471297243699  1.0000
  N   N4        1.0  0.4103119070424767  0.5655777820951473  0.16525473277491903  1.0000
  N   N5        1.0  0.5341090522954205  0.3155623272436188  0.8909225694074152  1.0000
  N   N6        1.0  0.465892588640763  0.6844367922713772  0.10907826935117983  1.0000
  N   N7        1.0  0.5583522512681612  0.1780610082966021  0.8247754047168527  1.0000
  N   N8        1.0  0.4416493896680225  0.8219381112183941  0.17522543404174235  1.0000
  N   N9        1.0  0.5979107824145944  0.6707153356108935  0.5305591543099483  1.0000
  N   N10       1.0  0.40208989692128944  0.3292861523336725  0.46944192186873585  1.0000
  N   N11       1.0  0.048849727830422324  0.6019295512834831  0.6756815941734118  1.0000
  N   N12       1.0  0.951152022884834  0.3980707564383935  0.3243184717201189  1.0000
  N   N13       1.0  0.1644478940503404  0.5519752961515608  0.6028823348751402  1.0000
  N   N14       1.0  0.8355538566649229  0.44802501157031577  0.3971177310183904  1.0000
  N   N15       1.0  0.30075097427337033  0.57908215364791  0.6628159575632466  1.0000
  N   N16       1.0  0.6992519514595728  0.42091812836657994  0.33718591839159734  1.0000
  N   N17       1.0  0.2769016660604748  0.6468446104825747  0.7764172817055481  1.0000
  N   N18       1.0  0.7231001898282798  0.3531568601775064  0.22358470623156276  1.0000
  N   N19       1.0  0.6639273610436689  0.9139437288010941  0.9602347439802159  1.0000
  N   N20       1.0  0.3360720319602635  0.08605658822108352  0.0397661933050983  1.0000
