data_image0
_chemical_formula_structural       Zn2H24C36N12O12
_chemical_formula_sum              "Zn2 H24 C36 N12 O12"
_cell_length_a       11.109321474975584
_cell_length_b       15.986550145524728
_cell_length_c       17.224614623508053
_cell_angle_alpha    97.75183190233712
_cell_angle_beta     89.46979709278531
_cell_angle_gamma    93.72166471633619

_space_group_name_H-M_alt    "P 1"
_space_group_IT_number       1

loop_
  _space_group_symop_operation_xyz
  'x, y, z'

loop_
  _atom_site_type_symbol
  _atom_site_label
  _atom_site_symmetry_multiplicity
  _atom_site_fract_x
  _atom_site_fract_y
  _atom_site_fract_z
  _atom_site_occupancy
  Zn  Zn1       1.0  0.49317708525039455  0.4078840673378892  0.4990121870848513  1.0000
  Zn  Zn2       1.0  0.5070624396513993  0.5906185025805398  0.5059385948081996  1.0000
  H   H1        1.0  0.3967039041182261  0.7093912422353765  0.42304313050288306  1.0000
  H   H2        1.0  0.39031837752216353  0.8657782395168995  0.4218432831883519  1.0000
  H   H3        1.0  0.6720950196818691  0.900710734959148  0.5963551435729573  1.0000
  H   H4        1.0  0.329909038415515  0.09792792447831289  0.4026263225046307  1.0000
  H   H5        1.0  0.6179995813649769  0.1296940633809527  0.5722602337618243  1.0000
  H   H6        1.0  0.6108700506279732  0.2871764979996314  0.5740914853994072  1.0000
  H   H7        1.0  0.5123001868391626  0.6151298067398656  0.2677446819374226  1.0000
  H   H8        1.0  0.5094300902753304  0.6134610709037106  0.12212520727882754  1.0000
  H   H9        1.0  0.49328466341091126  0.3417398512211634  0.09289046541549344  1.0000
  H   H10       1.0  0.5118140702020924  0.6581803269600925  0.9118185447141444  1.0000
  H   H11       1.0  0.49393482839381875  0.38665148339337213  0.8828510316861584  1.0000
  H   H12       1.0  0.4904573933514058  0.38513077180665795  0.7367756292697722  1.0000
  H   H13       1.0  0.775791464683479  0.6025271384210029  0.4027970011377705  1.0000
  H   H14       1.0  0.2244693774934206  0.610573996636333  0.3933936026538448  1.0000
  H   H15       1.0  0.11112005247437652  0.4041706611345576  0.563490622077751  1.0000
  H   H16       1.0  0.8854423246218062  0.3999384831417459  0.5684467344153179  1.0000
  H   H17       1.0  0.7025565500565277  0.6709780255786485  0.5824787802332807  1.0000
  H   H18       1.0  0.7524373421679513  0.770633333562408  0.628391159297266  1.0000
  H   H19       1.0  0.29871803464120456  0.32815959490911684  0.4212732995842857  1.0000
  H   H20       1.0  0.24906431108669116  0.22911784249078693  0.3728266455728645  1.0000
  H   H21       1.0  0.49569640726753766  0.32694701116017205  0.30237755244584724  1.0000
  H   H22       1.0  0.5022023995689509  0.2715140477927492  0.20699990335420898  1.0000
  H   H23       1.0  0.5012690586895374  0.6728478093442405  0.7025447497850906  1.0000
  H   H24       1.0  0.5025850833960918  0.7284846180550842  0.7980649258083761  1.0000
  C   C1        1.0  0.5073024097398005  0.4871735721969514  0.34978863302836777  1.0000
  C   C2        1.0  0.2623056073264536  0.5020245768287452  0.4920655121599753  1.0000
  C   C3        1.0  0.4951504904445372  0.5126667471715436  0.6546450054237101  1.0000
  C   C4        1.0  0.7375612373206409  0.49360537086587203  0.5036123500733539  1.0000
  C   C5        1.0  0.45530797021300634  0.7543685456781972  0.4609283283038722  1.0000
  C   C6        1.0  0.451532529692507  0.8402214157167478  0.4601002369571604  1.0000
  C   C7        1.0  0.5307691528785483  0.8935948691429731  0.5112174307867792  1.0000
  C   C8        1.0  0.6100065096789962  0.8590315555139227  0.557945489427752  1.0000
  C   C9        1.0  0.610133109345618  0.7701180763144321  0.5541360877281606  1.0000
  C   C10       1.0  0.39276133220372605  0.13905924098931172  0.4409547046493928  1.0000
  C   C11       1.0  0.4735111901807442  0.1036942672795362  0.4859273838345717  1.0000
  C   C12       1.0  0.5546820235082279  0.1563707369026162  0.5362525176925106  1.0000
  C   C13       1.0  0.5502709466106522  0.24245832539779855  0.5372727513841229  1.0000
  C   C14       1.0  0.3919284277432241  0.2281846273753061  0.4466658551984751  1.0000
  C   C15       1.0  0.5035011873637458  0.48018713924366097  0.26344251750611397  1.0000
  C   C16       1.0  0.5078232449922665  0.5555296771376419  0.22858797309673667  1.0000
  C   C17       1.0  0.5066878623262028  0.5552705727659273  0.14847468904241623  1.0000
  C   C18       1.0  0.5020820641964008  0.47643291008417077  0.10002714029509722  1.0000
  C   C19       1.0  0.49743976244383953  0.4011608519663952  0.13255396409637402  1.0000
  C   C20       1.0  0.49678744680184656  0.4005760757619329  0.21437159847118897  1.0000
  C   C21       1.0  0.5070129123890084  0.5987491068640055  0.8721349858407736  1.0000
  C   C22       1.0  0.5027457865746142  0.5235759793473562  0.9047402464533861  1.0000
  C   C23       1.0  0.49713445288511343  0.4447369854521099  0.8562824916269207  1.0000
  C   C24       1.0  0.4954188686190976  0.44459987680285457  0.7761761002650048  1.0000
  C   C25       1.0  0.4990675760125142  0.5198096302326645  0.7411733082428074  1.0000
  C   C26       1.0  0.5057609753230069  0.5993261361540121  0.7902868714956102  1.0000
  C   C27       1.0  0.8722082179207717  0.4963361957306703  0.4950187962229793  1.0000
  C   C28       1.0  0.9352511481050171  0.5520781398287299  0.4482164980275415  1.0000
  C   C29       1.0  0.9355460337173155  0.4430681487401885  0.5341782525465109  1.0000
  C   C30       1.0  0.873950689833201  0.6041284833971546  0.4028795724739497  1.0000
  C   C31       1.0  0.9370751023886399  0.6557944128975493  0.3571042149046449  1.0000
  C   C32       1.0  0.12710716278002823  0.5000767292122674  0.48832451199210425  1.0000
  C   C33       1.0  0.06199673692103151  0.44515046113172474  0.5311269688652231  1.0000
  C   C34       1.0  0.06475366350145613  0.5534141703014798  0.4443968021702319  1.0000
  C   C35       1.0  0.12652079580664832  0.6071400986881985  0.3958865714828549  1.0000
  C   C36       1.0  0.06470845479287142  0.6578681638094609  0.35410291796458193  1.0000
  N   N1        1.0  0.5302465717730768  0.719266944831368  0.5073360374216165  1.0000
  N   N2        1.0  0.5386387074654877  0.9833180593247022  0.5195832317949965  1.0000
  N   N3        1.0  0.46545249055376564  0.013876412316989205  0.4770523569921323  1.0000
  N   N4        1.0  0.4723436460651484  0.2785037898669814  0.4936400249534146  1.0000
  N   N5        1.0  0.501062671069306  0.46577592356722874  0.01715244069823291  1.0000
  N   N6        1.0  0.5042078369863816  0.5342661550773543  0.9876286342751471  1.0000
  N   N7        1.0  0.6872719673720766  0.7335231559066459  0.5978056334760427  1.0000
  N   N8        1.0  0.3131043506985094  0.2655849701470602  0.4050724112683285  1.0000
  N   N9        1.0  0.4877236098399749  0.3249803050154512  0.24335562914926365  1.0000
  N   N10       1.0  0.5139544512419718  0.6748323488051184  0.7612136942381584  1.0000
  N   N11       1.0  0.8668696776741529  0.7010113917236681  0.3056006587285723  1.0000
  N   N12       1.0  0.13683424623220472  0.7206117719491801  0.3149675469833043  1.0000
  O   O1        1.0  0.49686413806092133  0.41890114413138246  0.3820614486262387  1.0000
  O   O2        1.0  0.5213412043666636  0.5611638353037803  0.3886171295587389  1.0000
  O   O3        1.0  0.32028849265886816  0.5734039875156826  0.4955618125101467  1.0000
  O   O4        1.0  0.307546610432631  0.43093090122404487  0.49359104285017724  1.0000
  O   O5        1.0  0.4901392437035241  0.5806496568802686  0.6226029607677149  1.0000
  O   O6        1.0  0.4965896936159525  0.4386838338548885  0.6158849411087318  1.0000
  O   O7        1.0  0.6824621912471115  0.42125235640789793  0.49682998325079814  1.0000
  O   O8        1.0  0.6899877920373213  0.5647223963078787  0.5176690019036843  1.0000
  O   O9        1.0  0.7784425663465911  0.7368848971249237  0.3347311621225871  1.0000
  O   O10       1.0  0.8996002316496642  0.6966938076190132  0.236421054638008  1.0000
  O   O11       1.0  0.23525575345230013  0.7000462145422902  0.2866972219027205  1.0000
  O   O12       1.0  0.0959551891535853  0.7911842238999542  0.3167006539473222  1.0000
