data_image0
_chemical_formula_structural       Cd6H52C24N8Cl16
_chemical_formula_sum              "Cd6 H52 C24 N8 Cl16"
_cell_length_a       6.5933896654211335
_cell_length_b       8.64883863693618
_cell_length_c       21.132939195094163
_cell_angle_alpha    90.00020954888595
_cell_angle_beta     89.99971773197353
_cell_angle_gamma    94.10773485639197

_space_group_name_H-M_alt    "P 1"
_space_group_IT_number       1

loop_
  _space_group_symop_operation_xyz
  'x, y, z'

loop_
  _atom_site_type_symbol
  _atom_site_label
  _atom_site_symmetry_multiplicity
  _atom_site_fract_x
  _atom_site_fract_y
  _atom_site_fract_z
  _atom_site_occupancy
  Cd  Cd1       1.0  0.9967869280764604  0.6020345264831876  0.4061973126128891  1.0000
  Cd  Cd2       1.0  0.003211349420716681  0.8979635567845321  0.906198787005863  1.0000
  Cd  Cd3       1.0  0.0032134467984050947  0.3979695029433615  0.593801269177206  1.0000
  Cd  Cd4       1.0  0.9967822335577026  0.10203114201777913  0.09380026797756362  1.0000
  Cd  Cd5       1.0  0.4999970615819579  0.5000008267409656  0.5000000006889991  1.0000
  Cd  Cd6       1.0  0.4999939991615889  0.9999983924550266  1.7679070794e-06  1.0000
  H   H1        1.0  0.20698424717499359  0.7699940033085683  0.28475823970237  1.0000
  H   H2        1.0  0.793022191052522  0.7300066073158008  0.784759670908585  1.0000
  H   H3        1.0  0.793016217735513  0.2300111852286335  0.7152398688935621  1.0000
  H   H4        1.0  0.20697603567446518  0.26998929389896636  0.2152408036569895  1.0000
  H   H5        1.0  0.4236388411066657  0.780226690258026  0.33533362928197624  1.0000
  H   H6        1.0  0.5763605878830447  0.7197719640839538  0.8353330131906276  1.0000
  H   H7        1.0  0.5763602859554596  0.21978080207505715  0.6646649525116148  1.0000
  H   H8        1.0  0.4236342429187517  0.28021927180592604  0.1646646222044623  1.0000
  H   H9        1.0  0.3738212139687107  0.8486408469620841  0.4483482861158805  1.0000
  H   H10       1.0  0.6261747341812766  0.6513552534238799  0.9483508053190165  1.0000
  H   H11       1.0  0.6261831744442291  0.1513562710807506  0.5516498224711129  1.0000
  H   H12       1.0  0.37382027667053563  0.3486383006990934  0.05164872285741501  1.0000
  H   H13       1.0  0.17245645771684792  0.9694541791350278  0.4636147450971961  1.0000
  H   H14       1.0  0.8275392617794922  0.5305420479227437  0.9636148841891696  1.0000
  H   H15       1.0  0.8275496286586871  0.030545271570247196  0.5363847830750359  1.0000
  H   H16       1.0  0.17245262321152674  0.46945031823086236  0.0363860635736373  1.0000
  H   H17       1.0  0.882972918873854  0.9611065155719628  0.3936154099991711  1.0000
  H   H18       1.0  0.11702599722815421  0.5388972588625763  0.8936190216180009  1.0000
  H   H19       1.0  0.11702888387085862  0.03889636917721621  0.6063841181788732  1.0000
  H   H20       1.0  0.8829742875614598  0.46110561148080365  0.106386658095488  1.0000
  H   H21       1.0  0.9296723733608375  0.9224798475218423  0.3121993162534409  1.0000
  H   H22       1.0  0.07033249605522231  0.5775256128285947  0.8122006904729062  1.0000
  H   H23       1.0  0.07032693374775792  0.07752996304628822  0.6878016315164431  1.0000
  H   H24       1.0  0.9296719823579168  0.422472664344525  0.18780167686937693  1.0000
  H   H25       1.0  0.4174892966055879  0.1707484322121715  0.4344930805560097  1.0000
  H   H26       1.0  0.5825026184796515  0.32925273602959493  0.9344921423795042  1.0000
  H   H27       1.0  0.5825154519144746  0.8292533222929138  0.5655078672037775  1.0000
  H   H28       1.0  0.41748828881617334  0.6707465703566201  0.0655059662194759  1.0000
  H   H29       1.0  0.5679163557998095  0.0416602672521833  0.3919247259907763  1.0000
  H   H30       1.0  0.43208360639184923  0.4583383016828791  0.891922789237853  1.0000
  H   H31       1.0  0.4320850868271577  0.9583379810406356  0.608073382599315  1.0000
  H   H32       1.0  0.5679159582189611  0.5416552957163674  0.1080724801806028  1.0000
  H   H33       1.0  0.5192832051068451  0.014305007031588003  0.27719910216133314  1.0000
  H   H34       1.0  0.48072892082661417  0.4856903926975419  0.7771966574215696  1.0000
  H   H35       1.0  0.48071413394286827  0.9856989935362466  0.7228004260209673  1.0000
  H   H36       1.0  0.5192854627390632  0.5142987125683478  0.22279955837207413  1.0000
  H   H37       1.0  0.2647703581171754  0.028338179868825406  0.2497166192368  1.0000
  H   H38       1.0  0.735244147508446  0.47166280181991754  0.7497180206819253  1.0000
  H   H39       1.0  0.7352287689414113  0.9716693124662185  0.7502824357517426  1.0000
  H   H40       1.0  0.2647693483445224  0.528334402818672  0.2502819806778973  1.0000
  H   H41       1.0  0.037125439635310904  0.18824665547469982  0.3072697201912931  1.0000
  H   H42       1.0  0.9628851680997814  0.31175477493084  0.8072714828810278  1.0000
  H   H43       1.0  0.9628736873913796  0.8117608368780156  0.6927335935517505  1.0000
  H   H44       1.0  0.0371282376714746  0.6882412706226193  0.19273514320724425  1.0000
  H   H45       1.0  0.07528539328536252  0.2043146106655201  0.3908269391712196  1.0000
  H   H46       1.0  0.924718071303822  0.295689773599321  0.8908282638788023  1.0000
  H   H47       1.0  0.9247239989761767  0.7956883462559505  0.6091763745605974  1.0000
  H   H48       1.0  0.0752806055517539  0.704311923196201  0.10917646944517401  1.0000
  H   H49       1.0  0.38417258154954237  0.2305065351196163  0.3301191214337251  1.0000
  H   H50       1.0  0.6158376839457489  0.2694950848833173  0.8301189906722968  1.0000
  H   H51       1.0  0.6158344051434029  0.7695045067137941  0.6698808799412604  1.0000
  H   H52       1.0  0.3841674120802736  0.730491615581208  0.1698800642964073  1.0000
  C   C1        1.0  0.29301495394479826  0.8421722681730375  0.3196577731628878  1.0000
  C   C2        1.0  0.7069847998758122  0.6578274152053966  0.8196578114243991  1.0000
  C   C3        1.0  0.7069836329176625  0.15782826948827022  0.6803417550159097  1.0000
  C   C4        1.0  0.2930194084835663  0.34216738460631296  0.1803388775761974  1.0000
  C   C5        1.0  0.27840090469921114  0.9333414696760518  0.42734944963862637  1.0000
  C   C6        1.0  0.7215925022445121  0.5666567458163101  0.9273502780666976  1.0000
  C   C7        1.0  0.7215992000793676  0.0666590824126416  0.5726491321491309  1.0000
  C   C8        1.0  0.2783940313884017  0.43334483550118824  0.0726478305373206  1.0000
  C   C9        1.0  0.9996083913358261  0.9652105071771621  0.3565901847192379  1.0000
  C   C10       1.0  0.00039125943597181044  0.5347952782367146  0.8565916039815634  1.0000
  C   C11       1.0  0.00039510937857299976  0.0347947102305284  0.643409816654156  1.0000
  C   C12       1.0  0.9996051018937422  0.465215662577478  0.14340839740152944  1.0000
  C   C13       1.0  0.41262706654274695  0.07180548329564121  0.40221733093139983  1.0000
  C   C14       1.0  0.5873714936615145  0.4281966339571569  0.9022160571880493  1.0000
  C   C15       1.0  0.5873789297865102  0.9281928083048715  0.5977840900198288  1.0000
  C   C16       1.0  0.41262825097450667  0.5717992816889252  0.09778441737636001  1.0000
  C   C17       1.0  0.358118496763332  0.0024932848122319004  0.290815402150713  1.0000
  C   C18       1.0  0.6418950331480887  0.49750340145436683  0.7908141461014608  1.0000
  C   C19       1.0  0.6418802701739497  0.9975095710684205  0.709182706444814  1.0000
  C   C20       1.0  0.3581133687993728  0.5024868052067151  0.2091839624773755  1.0000
  C   C21       1.0  0.09538155317098782  0.13143571779840363  0.3492477036274053  1.0000
  C   C22       1.0  0.904625389976843  0.3685660320762807  0.8492486929792024  1.0000
  C   C23       1.0  0.904623645495377  0.8685718322776167  0.6507551369160609  1.0000
  C   C24       1.0  0.09538033622423112  0.6314287822040471  0.1507569867241898  1.0000
  N   N1        1.0  0.15736316734366804  0.8596048707100864  0.374938416663916  1.0000
  N   N2        1.0  0.8426315648273859  0.6403998645566562  0.8749410596092418  1.0000
  N   N3        1.0  0.8426343517915029  0.14040144807120924  0.6250582723502802  1.0000
  N   N4        1.0  0.15735809462380254  0.35960290475375706  0.1250613077477425  1.0000
  N   N5        1.0  0.3211338257840525  0.12082611165131849  0.34089894358545797  1.0000
  N   N6        1.0  0.6788651126873902  0.3791685421083529  0.8408988766081222  1.0000
  N   N7        1.0  0.6788626129340684  0.8791662977962463  0.6591020041738747  1.0000
  N   N8        1.0  0.3211395457970312  0.6208320532860726  0.15910254434582785  1.0000
  Cl  Cl1       1.0  0.3404662940798815  0.4761906546860076  0.3841567783990527  1.0000
  Cl  Cl2       1.0  0.6595261948815719  0.023807777655157705  0.8841600055454889  1.0000
  Cl  Cl3       1.0  0.6595371166095134  0.5238134036051393  0.6158422765836704  1.0000
  Cl  Cl4       1.0  0.34045952843058563  0.9761833716664584  0.11584236180600985  1.0000
  Cl  Cl5       1.0  0.820392416055398  0.3518746162470663  0.4660039008968795  1.0000
  Cl  Cl6       1.0  0.17959705896703335  0.14812100347981533  0.9660033175909035  1.0000
  Cl  Cl7       1.0  0.17960795880529903  0.6481294131873342  0.5339965736729937  1.0000
  Cl  Cl8       1.0  0.8203933081255885  0.8518713482365855  0.0339962105882279  1.0000
  Cl  Cl9       1.0  0.7152235286164128  0.7514797875349474  0.4616338464265368  1.0000
  Cl  Cl10      1.0  0.2847677568227099  0.7485175389224564  0.9616384535390382  1.0000
  Cl  Cl11      1.0  0.28477657616216595  0.24852076455375288  0.5383647353612133  1.0000
  Cl  Cl12      1.0  0.7152230604197526  0.2514806083629183  0.038362494228827905  1.0000
  Cl  Cl13      1.0  0.8517999897992611  0.5610907319005634  0.2967772147413825  1.0000
  Cl  Cl14      1.0  0.14819582310167329  0.9389121956632563  0.7967785258903461  1.0000
  Cl  Cl15      1.0  0.14819440347511662  0.4389143989113722  0.7032208938591822  1.0000
  Cl  Cl16      1.0  0.8518046417982036  0.0610929928798356  0.20322100229041953  1.0000
