data_image0
_chemical_formula_structural       Er4H28C24O32
_chemical_formula_sum              "Er4 H28 C24 O32"
_cell_length_a       7.977316306279889
_cell_length_b       9.503523232846868
_cell_length_c       12.257744201771931
_cell_angle_alpha    91.362416285377
_cell_angle_beta     90.00038846446037
_cell_angle_gamma    89.99911350563372

_space_group_name_H-M_alt    "P 1"
_space_group_IT_number       1

loop_
  _space_group_symop_operation_xyz
  'x, y, z'

loop_
  _atom_site_type_symbol
  _atom_site_label
  _atom_site_symmetry_multiplicity
  _atom_site_fract_x
  _atom_site_fract_y
  _atom_site_fract_z
  _atom_site_occupancy
  Er  Er1       1.0  0.5548753929223195  0.6918571139359954  0.4170654014157051  1.0000
  Er  Er2       1.0  0.054876108017154486  0.8081400713188671  0.08293088923948491  1.0000
  Er  Er3       1.0  0.44512232922472345  0.3081555950067311  0.5829293186315141  1.0000
  Er  Er4       1.0  0.9451241215349312  0.1918410598796996  0.9170648620743551  1.0000
  H   H1        1.0  0.10910652202283437  0.8648643368952448  0.49947998422965884  1.0000
  H   H2        1.0  0.6090974917645295  0.635145831259507  0.0005192400211129028  1.0000
  H   H3        1.0  0.8908811717987248  0.1351409964911667  0.5005227536804001  1.0000
  H   H4        1.0  0.39091652679331196  0.36484267233091566  0.9994717566220999  1.0000
  H   H5        1.0  0.8132464683318331  0.3310434166055031  0.20754806333530956  1.0000
  H   H6        1.0  0.31322435503218315  0.16896889705370194  0.2924605821963056  1.0000
  H   H7        1.0  0.18675752160536516  0.6689766443657632  0.7924631127240147  1.0000
  H   H8        1.0  0.6867721136904592  0.8310332802305993  0.7075404641067777  1.0000
  H   H9        1.0  0.6661022237690088  0.07028435745608161  0.31950157676738666  1.0000
  H   H10       1.0  0.1660804066769259  0.4297256433244384  0.1805022963103227  1.0000
  H   H11       1.0  0.33390678041351407  0.9297293937468041  0.6805037686635771  1.0000
  H   H12       1.0  0.8339223297942979  0.5702744366929975  0.8194905520228488  1.0000
  H   H13       1.0  0.3582855147829773  0.9626492679432134  0.4232298103468679  1.0000
  H   H14       1.0  0.8583204488657113  0.5373450545636231  0.07677918642307452  1.0000
  H   H15       1.0  0.6416971647122692  0.037366593216617595  0.5767706802747199  1.0000
  H   H16       1.0  0.14169482328916413  0.462647644256876  0.9232273903926186  1.0000
  H   H17       1.0  0.289488243012947  0.8729434055856939  0.3225589379824498  1.0000
  H   H18       1.0  0.7895163071515723  0.6270454846151734  0.1774520992861994  1.0000
  H   H19       1.0  0.7104881687422375  0.12707034818207316  0.677443959992303  1.0000
  H   H20       1.0  0.21049645790834856  0.3729461608977899  0.8225552733093339  1.0000
  H   H21       1.0  0.6910668702076561  0.8185033717114861  0.2199653039647131  1.0000
  H   H22       1.0  0.19106946751666237  0.6814952171574191  0.2800332460886068  1.0000
  H   H23       1.0  0.30891831651786816  0.18149775624706166  0.7800324591194611  1.0000
  H   H24       1.0  0.8089232406408013  0.3184985359169729  0.7199717190988935  1.0000
  H   H25       1.0  0.5164020363938918  0.7512192184678169  0.1822197650967681  1.0000
  H   H26       1.0  0.016411309403693494  0.7487742477013198  0.31778036412096367  1.0000
  H   H27       1.0  0.4835781360447483  0.24878297305250632  0.817766596842681  1.0000
  H   H28       1.0  0.9835788916140513  0.251220561853131  0.6822205420918693  1.0000
  C   C1        1.0  0.8407597231704924  0.856155787456146  0.4603569753446096  1.0000
  C   C2        1.0  0.3407642669081382  0.6438377050773525  0.03965519147202201  1.0000
  C   C3        1.0  0.1592154349450396  0.143866388198596  0.5396444511235502  1.0000
  C   C4        1.0  0.6592447373393708  0.35615817102590347  0.9603310504613702  1.0000
  C   C5        1.0  0.9968129453818475  0.9300133339372894  0.49258203525990757  1.0000
  C   C6        1.0  0.4968147526735364  0.5699960453531149  0.0074294907168877015  1.0000
  C   C7        1.0  0.0031747483629942994  0.07000462284668883  0.5074282849473023  1.0000
  C   C8        1.0  0.5031917444140176  0.43000824636465024  0.99256180607604  1.0000
  C   C9        1.0  0.7509594882974823  0.2704646009580003  0.2702056667113197  1.0000
  C   C10       1.0  0.25093936615679974  0.22952852141710875  0.22979662837397546  1.0000
  C   C11       1.0  0.2490582908788283  0.7295386216622006  0.7298027418120441  1.0000
  C   C12       1.0  0.7490571026351062  0.7704641861600834  0.7702009746455049  1.0000
  C   C13       1.0  0.6849708854072883  0.35159412531178447  0.3664089680389395  1.0000
  C   C14       1.0  0.18495626840075363  0.1483956296895599  0.13359949828244314  1.0000
  C   C15       1.0  0.31505817589614077  0.6483996149676796  0.6336090499618194  1.0000
  C   C16       1.0  0.8150402006042725  0.8515760231903753  0.8664017834969756  1.0000
  C   C17       1.0  0.7996239113340022  0.052522996702208495  0.16162700295968344  1.0000
  C   C18       1.0  0.2996247246611999  0.447474762050419  0.3383755951015957  1.0000
  C   C19       1.0  0.20037005029367794  0.9474781272745573  0.8383748391232405  1.0000
  C   C20       1.0  0.7003892938167197  0.552521111665385  0.6616130942305247  1.0000
  C   C21       1.0  0.728016894778612  0.13114435168157001  0.2566951300978105  1.0000
  C   C22       1.0  0.22800938969220397  0.3688522297183994  0.2433006030326936  1.0000
  C   C23       1.0  0.27198960235476477  0.8688609823689291  0.74330679205535  1.0000
  C   C24       1.0  0.7719996145542465  0.6311446973533208  0.7566872905039049  1.0000
  O   O1        1.0  0.6952907166779738  0.9023560714688589  0.48720310178890713  1.0000
  O   O2        1.0  0.19530084557537458  0.5976392991056869  0.012801932224576307  1.0000
  O   O3        1.0  0.30468318787249865  0.09766820770100539  0.5127999962908802  1.0000
  O   O4        1.0  0.8047081585986148  0.40236604748974253  0.9871869371963271  1.0000
  O   O5        1.0  0.6665235559931233  0.4829467825228875  0.3536644270653967  1.0000
  O   O6        1.0  0.1665202665138423  0.0170453156355492  0.14634318660044704  1.0000
  O   O7        1.0  0.3335080124425643  0.517049054966975  0.6463617889235707  1.0000
  O   O8        1.0  0.8334899915811176  0.982930541814596  0.8536638858244674  1.0000
  O   O9        1.0  0.6131216709562819  0.7376431402032964  0.23317440472529682  1.0000
  O   O10       1.0  0.11312264094667057  0.7623501348203019  0.266825331904748  1.0000
  O   O11       1.0  0.3868585015207201  0.26235484116264723  0.7668118771700422  1.0000
  O   O12       1.0  0.8868725743142746  0.23764466999149647  0.7331804690950962  1.0000
  O   O13       1.0  0.8537723645258237  0.7425001075066646  0.4028025965738209  1.0000
  O   O14       1.0  0.3537616259168316  0.7574921667188476  0.09720797285616813  1.0000
  O   O15       1.0  0.14621031486605315  0.25752522964080526  0.597194810962634  1.0000
  O   O16       1.0  0.64624111044143  0.2425100356472285  0.9027669679850163  1.0000
  O   O17       1.0  0.6472161400355105  0.28513118137999527  0.45221434354510853  1.0000
  O   O18       1.0  0.14720191067865326  0.21484643445359813  0.047788014676278606  1.0000
  O   O19       1.0  0.3528003857515641  0.7148562492440006  0.5477978437907184  1.0000
  O   O20       1.0  0.8527945583966953  0.7851146977507638  0.9522081722163167  1.0000
  O   O21       1.0  0.39193126178954424  0.8924240674688375  0.3657065841561149  1.0000
  O   O22       1.0  0.8919604882202845  0.6075635022021116  0.1343073275781492  1.0000
  O   O23       1.0  0.608043896505009  0.1075812628579627  0.6342994169121854  1.0000
  O   O24       1.0  0.10805353040363737  0.39242709076419396  0.8657000250089695  1.0000
  O   O25       1.0  0.8312964456363545  0.11435300028245617  0.0743327843356383  1.0000
  O   O26       1.0  0.33128551963631736  0.38563803891370435  0.4256665624903421  1.0000
  O   O27       1.0  0.1686874876466575  0.8856344470376027  0.9256622712143001  1.0000
  O   O28       1.0  0.6687071883154797  0.6143736151674872  0.574330584923679  1.0000
  O   O29       1.0  0.8343620031263226  0.9215427858788912  0.17602301447513471  1.0000
  O   O30       1.0  0.33436821064235994  0.5784539497214708  0.3239859225221977  1.0000
  O   O31       1.0  0.16564574761049036  0.07846464067968381  0.8239920004401713  1.0000
  O   O32       1.0  0.6656621040726733  0.4215377153052273  0.6760010552075997  1.0000
