data_image0
_chemical_formula_structural       Ho2H10C12O16
_chemical_formula_sum              "Ho2 H10 C12 O16"
_cell_length_a       6.220244181264152
_cell_length_b       8.619020733371542
_cell_length_c       8.755508333041412
_cell_angle_alpha    111.1954409020668
_cell_angle_beta     109.80492247402134
_cell_angle_gamma    91.52124231563991

_space_group_name_H-M_alt    "P 1"
_space_group_IT_number       1

loop_
  _space_group_symop_operation_xyz
  'x, y, z'

loop_
  _atom_site_type_symbol
  _atom_site_label
  _atom_site_symmetry_multiplicity
  _atom_site_fract_x
  _atom_site_fract_y
  _atom_site_fract_z
  _atom_site_occupancy
  Ho  Ho1       1.0  0.31951520651700355  0.35014991467917167  0.18133508353378147  1.0000
  Ho  Ho2       1.0  0.680486539204644  0.6498478057984941  0.8186647955961701  1.0000
  H   H1        1.0  0.8084426093359485  0.281117677152281  0.28252860468808183  1.0000
  H   H2        1.0  0.19155643157926508  0.7188901836687194  0.7174787592582772  1.0000
  H   H3        1.0  0.4878782269644334  0.33189838113238324  0.8920973032905689  1.0000
  H   H4        1.0  0.5121244718927259  0.6681106491265892  0.10789650002099174  1.0000
  H   H5        1.0  0.6817404602913086  0.2733389020560112  0.027744422358310282  1.0000
  H   H6        1.0  0.3182590308010944  0.7266853301345576  0.9722596665090744  1.0000
  H   H7        1.0  0.7704614852208496  0.35548126805509384  0.4674948189534403  1.0000
  H   H8        1.0  0.22954218933501383  0.6445316618256032  0.5325200054099355  1.0000
  H   H9        1.0  0.2590959898858145  0.9691580814196784  0.3328238030436382  1.0000
  H   H10       1.0  0.7409023092533789  0.0308396013148808  0.6671672420288173  1.0000
  C   C1        1.0  0.1500517489468578  0.1413520398314887  0.5292742904601936  1.0000
  C   C2        1.0  0.8499433552790736  0.8586393529049587  0.4707172048172834  1.0000
  C   C3        1.0  0.005230856761094997  0.15978889752135933  0.6258971035814154  1.0000
  C   C4        1.0  0.9947614409960651  0.8402050419307941  0.3740968987904266  1.0000
  C   C5        1.0  0.14288648485022293  0.982103413810137  0.40456294559835015  1.0000
  C   C6        1.0  0.857105194976391  0.0178879739453564  0.5954254432273981  1.0000
  C   C7        1.0  0.3150674528688884  0.28927826961305675  0.5588327303839832  1.0000
  C   C8        1.0  0.6849347958110813  0.7107143892763473  0.44116434800655896  1.0000
  C   C9        1.0  0.9972658504899531  0.3288816110483097  0.75806418747387  1.0000
  C   C10       1.0  0.0027281461569898893  0.6711123112370317  0.24192793156038314  1.0000
  C   C11       1.0  0.8935876873583981  0.03932890686598971  0.010272609903395739  1.0000
  C   C12       1.0  0.10640505606101405  0.9606524428945775  0.989725069218501  1.0000
  O   O1        1.0  0.44681560181165036  0.3809567534377436  0.7177451842191186  1.0000
  O   O2        1.0  0.5531927760740701  0.6190257700892872  0.28224751580673757  1.0000
  O   O3        1.0  0.6930315029605438  0.312109606409642  0.3366170175415561  1.0000
  O   O4        1.0  0.3069696252889358  0.6879070739583567  0.6633905199565572  1.0000
  O   O5        1.0  0.5296910309038837  0.3118085528056583  0.002570851880292955  1.0000
  O   O6        1.0  0.47031307608266093  0.6882207222348812  0.9974361153194946  1.0000
  O   O7        1.0  0.3167329731623241  0.3169792617332803  0.4273421635289478  1.0000
  O   O8        1.0  0.683264342243355  0.6830285769399467  0.5726602106280935  1.0000
  O   O9        1.0  0.08943674181377759  0.3565216138893915  0.919345318071137  1.0000
  O   O10       1.0  0.9105405660273859  0.6434737428075364  0.08066615006974577  1.0000
  O   O11       1.0  0.8883381488564626  0.4304046340056829  0.696694567306167  1.0000
  O   O12       1.0  0.11167341950588394  0.5695841729670266  0.30329653699352116  1.0000
  O   O13       1.0  0.9317564779054595  0.1994546918151983  0.09682182942899684  1.0000
  O   O14       1.0  0.06824008279438229  0.8005355061925669  0.9031821585551253  1.0000
  O   O15       1.0  0.2976627348876449  0.05714035969588589  0.059681529022320476  1.0000
  O   O16       1.0  0.7023529246074603  0.9428510760311755  0.9403308960078643  1.0000
