data_image0
_chemical_formula_structural       CdH20C20N2O8
_chemical_formula_sum              "Cd1 H20 C20 N2 O8"
_cell_length_a       5.6685368070510505
_cell_length_b       7.977278067075119
_cell_length_c       11.56775823118609
_cell_angle_alpha    107.89419439007439
_cell_angle_beta     98.63425478952745
_cell_angle_gamma    98.73478261769712

_space_group_name_H-M_alt    "P 1"
_space_group_IT_number       1

loop_
  _space_group_symop_operation_xyz
  'x, y, z'

loop_
  _atom_site_type_symbol
  _atom_site_label
  _atom_site_symmetry_multiplicity
  _atom_site_fract_x
  _atom_site_fract_y
  _atom_site_fract_z
  _atom_site_occupancy
  Cd  Cd1       1.0  0.9999988625743371  0.9999991095556312  0.9999997700813099  1.0000
  H   H1        1.0  0.5310537293740225  0.8483445408449128  0.05864320650290012  1.0000
  H   H2        1.0  0.46894655914371  0.15165995111836136  0.9413569272297053  1.0000
  H   H3        1.0  0.7499765749821848  0.7397217826892517  0.054185563505377836  1.0000
  H   H4        1.0  0.2500172082129879  0.26027187422138093  0.945809249823995  1.0000
  H   H5        1.0  0.3132628655979913  0.4964623692538411  0.6605051437538876  1.0000
  H   H6        1.0  0.6867608841859935  0.5035290216936658  0.3395068542098159  1.0000
  H   H7        1.0  0.30135279196909437  0.7032476427537303  0.8652227418649191  1.0000
  H   H8        1.0  0.6986524408851906  0.2967274917982223  0.1347914676377471  1.0000
  H   H9        1.0  0.6852957092277875  0.8562952774444952  0.7216953284862413  1.0000
  H   H10       1.0  0.3147189294453767  0.14369594821624077  0.2783064872196022  1.0000
  H   H11       1.0  0.6714375463917862  0.6576358556496089  0.5093796078653838  1.0000
  H   H12       1.0  0.3286103883717999  0.34237316535184453  0.4906274054201988  1.0000
  H   H13       1.0  0.8805090022697187  0.041376697235030194  0.4219580829174632  1.0000
  H   H14       1.0  0.1194571225099281  0.9586340900538418  0.578030603958716  1.0000
  H   H15       1.0  0.14335600661635076  0.7558840685540104  0.37216548462051696  1.0000
  H   H16       1.0  0.8566216940349847  0.24412957598877943  0.6278315279104022  1.0000
  H   H17       1.0  0.2687243192293066  0.5552483923996901  0.2406229847473043  1.0000
  H   H18       1.0  0.7312773683381835  0.44475475644276224  0.7593752363926712  1.0000
  H   H19       1.0  0.43066402736626225  0.554071885766781  0.12001022582548865  1.0000
  H   H20       1.0  0.5693300949197421  0.44593653516511006  0.8799851126744545  1.0000
  C   C1        1.0  0.17199842032361803  0.5750989591159695  0.6673130236495979  1.0000
  C   C2        1.0  0.8280091962071054  0.42489225662042424  0.3326960787754841  1.0000
  C   C3        1.0  0.16494763732782053  0.6903310930909826  0.7840451920056069  1.0000
  C   C4        1.0  0.8350446474986485  0.30964925285634587  0.21596488067888234  1.0000
  C   C5        1.0  0.8212391753217503  0.7736576019436823  0.7036616505361338  1.0000
  C   C6        1.0  0.1787736229849415  0.2263470087355017  0.2963385196260973  1.0000
  C   C7        1.0  0.8155016088140313  0.660856444070724  0.5842249191998334  1.0000
  C   C8        1.0  0.1845329877179651  0.33915642726429246  0.4157759156141623  1.0000
  C   C9        1.0  0.996815272875047  0.5592100615776089  0.5629596570014925  1.0000
  C   C10       1.0  0.003206168332127425  0.44080003075750085  0.4370448610384016  1.0000
  C   C11       1.0  0.16161339619105058  0.7190328053908531  0.13163757307853535  1.0000
  C   C12       1.0  0.8383861119191423  0.28096896444877467  0.8683584773472505  1.0000
  C   C13       1.0  0.7133816222104628  0.024376472513829094  0.4565414622348741  1.0000
  C   C14       1.0  0.28659716529342216  0.9756277904153379  0.5434553887767778  1.0000
  C   C15       1.0  0.5180213496662559  0.8838272252972887  0.38385673934384107  1.0000
  C   C16       1.0  0.4819632438370718  0.1161717613435727  0.6161445992386946  1.0000
  C   C17       1.0  0.30167476659934783  0.8607037331283679  0.42758765190583864  1.0000
  C   C18       1.0  0.6983101271932953  0.13929657334789167  0.5724105263552133  1.0000
  C   C19       1.0  0.35478490591837186  0.6397082840359971  0.19291032781261916  1.0000
  C   C20       1.0  0.6452124945853797  0.3602988529424991  0.80708842913036  1.0000
  N   N1        1.0  0.9941380540633561  0.7901594967799993  0.802306154170104  1.0000
  N   N2        1.0  0.005854798292389798  0.20983018688230706  0.19769640613208855  1.0000
  O   O1        1.0  0.2452030207626095  0.8550907046439705  0.10116527483868513  1.0000
  O   O2        1.0  0.7547929088405211  0.14491102931366842  0.898830517465548  1.0000
  O   O3        1.0  0.9415042582227784  0.6449123187305333  0.11455579042637962  1.0000
  O   O4        1.0  0.058494139219078485  0.35508539540791867  0.8854376030224386  1.0000
  O   O5        1.0  0.5587460722832702  0.7735627058708305  0.2744411519323577  1.0000
  O   O6        1.0  0.4412478396278773  0.22644443645210538  0.7255625488639624  1.0000
  O   O7        1.0  0.6540453017103545  0.8072054723911608  0.00956555742941844  1.0000
  O   O8        1.0  0.3459485083784486  0.19279491004794388  0.9904315321438873  1.0000
