data_image0
_chemical_formula_structural       Zn2H21C20N3O12
_chemical_formula_sum              "Zn2 H21 C20 N3 O12"
_cell_length_a       9.704326172442673
_cell_length_b       10.93592043073497
_cell_length_c       11.178363031382409
_cell_angle_alpha    89.8360734275291
_cell_angle_beta     87.00919832143737
_cell_angle_gamma    91.21633177571917

_space_group_name_H-M_alt    "P 1"
_space_group_IT_number       1

loop_
  _space_group_symop_operation_xyz
  'x, y, z'

loop_
  _atom_site_type_symbol
  _atom_site_label
  _atom_site_symmetry_multiplicity
  _atom_site_fract_x
  _atom_site_fract_y
  _atom_site_fract_z
  _atom_site_occupancy
  Zn  Zn1       1.0  0.6372249996149153  0.5065117182069727  0.4935806969582898  1.0000
  Zn  Zn2       1.0  0.35719703622872606  0.5005019193940115  0.5059975569677775  1.0000
  H   H1        1.0  0.7165865937776276  0.8906616770785901  0.44687879714508216  1.0000
  H   H2        1.0  0.31508882532826027  0.11697475856419708  0.6018665489341259  1.0000
  H   H3        1.0  0.31924347609547254  0.08843933775112589  0.39670823909244746  1.0000
  H   H4        1.0  0.28987331043395415  0.49092637815952134  0.1172828561007293  1.0000
  H   H5        1.0  0.6050104710293525  0.5293240128319495  0.0915186157148966  1.0000
  H   H6        1.0  0.2954828768886771  0.5200020684258246  0.8967444610626457  1.0000
  H   H7        1.0  0.5999372420539332  0.4464446291437553  0.898134975989528  1.0000
  H   H8        1.0  0.8686165354616553  0.32880436845015026  0.4310066565058647  1.0000
  H   H9        1.0  0.903536129178015  0.586346348325783  0.4956643286832332  1.0000
  H   H10       1.0  0.13242587817451582  0.3599996572605732  0.3837341414567915  1.0000
  H   H11       1.0  0.6803562005471165  0.9106513420357839  0.6010959593784051  1.0000
  H   H12       1.0  0.08880724612804164  0.5386058786681359  0.5759543129662105  1.0000
  H   H13       1.0  0.7041876962436648  0.12282826458145729  0.5648341125349248  1.0000
  H   H14       1.0  0.7058395313693782  0.10084442496492578  0.40893994022123786  1.0000
  H   H15       1.0  0.5359170610282149  0.9107095109681821  0.3102441673222245  1.0000
  H   H16       1.0  0.2980079415374989  0.9044661734794984  0.5920933711715434  1.0000
  H   H17       1.0  0.43665662515271453  0.8980600788319036  0.6882513253950862  1.0000
  H   H18       1.0  0.13251585305614103  0.8490049436202156  0.3462044439581362  1.0000
  H   H19       1.0  0.438126641084054  0.2613244089467841  0.16350809749565798  1.0000
  H   H20       1.0  0.5596811557186642  0.08007094014175209  0.7383770738751138  1.0000
  H   H21       1.0  0.4074874846144852  0.1297822987488786  0.7831563838766938  1.0000
  C   C1        1.0  0.4987138188802974  0.4840351167864226  0.73224983895129  1.0000
  C   C2        1.0  0.5028368427304672  0.12323978465782655  0.4926673308929139  1.0000
  C   C3        1.0  0.42931053283959386  0.06891721793295598  0.3828863684623938  1.0000
  C   C4        1.0  0.41776312023306167  0.07730242301253301  0.6061246459355161  1.0000
  C   C5        1.0  0.39016097601147953  0.49824841407540515  0.068184737726483  1.0000
  C   C6        1.0  0.5022900380173355  0.5131428602570267  0.1336922465019725  1.0000
  C   C7        1.0  0.3915887353741142  0.49822172746142696  0.9383051609320033  1.0000
  C   C8        1.0  0.5015537187474594  0.47335121736058017  0.8642071245839135  1.0000
  C   C9        1.0  0.9226149040444371  0.41454757085769967  0.45240904295563666  1.0000
  C   C10       1.0  0.07571649959704982  0.41909645746481045  0.4473485948766083  1.0000
  C   C11       1.0  0.496497882352685  0.7433089010165687  0.5067461496547949  1.0000
  C   C12       1.0  0.49511486859285014  0.5141076495925246  0.266395339503319  1.0000
  C   C13       1.0  0.4997953754142303  0.26338117308485204  0.4895583399194762  1.0000
  C   C14       1.0  0.6463277528276025  0.9357783017397235  0.5121339564280589  1.0000
  C   C15       1.0  0.6503184025308643  0.07573549119511819  0.49374474121091066  1.0000
  C   C16       1.0  0.4514688950730987  0.9285330185668311  0.37683058143597487  1.0000
  C   C17       1.0  0.40497165217772857  0.9352787287768294  0.6025949562911279  1.0000
  C   C18       1.0  0.4990700257316123  0.8833893854818625  0.5004967475048687  1.0000
  C   C19       1.0  0.32645820345549487  0.8627112517455515  0.3292513709290148  1.0000
  C   C20       1.0  0.48182503990038594  0.1304115156186683  0.266885812105805  1.0000
  N   N1        1.0  0.8490012944594129  0.5068778472580817  0.4797702847412565  1.0000
  N   N2        1.0  0.1458591303142072  0.4881099248268299  0.5146096760550661  1.0000
  N   N3        1.0  0.4783545017352397  0.1297205548825957  0.7126108883649207  1.0000
  O   O1        1.0  0.6155022626012754  0.4764477401758639  0.6747580577282831  1.0000
  O   O2        1.0  0.3832589351138155  0.5022532710538171  0.6860917246009632  1.0000
  O   O3        1.0  0.6106687904496371  0.6908298758722677  0.5187848177904968  1.0000
  O   O4        1.0  0.37940804706571646  0.6898479679700171  0.5000256978579002  1.0000
  O   O5        1.0  0.6104801821113103  0.532160171259619  0.31449990594064997  1.0000
  O   O6        1.0  0.37855676765032353  0.4962159731964915  0.32239493176732026  1.0000
  O   O7        1.0  0.6142337491959183  0.32043692848957045  0.46868230686299467  1.0000
  O   O8        1.0  0.3827477950800643  0.31211084550071877  0.5063109043721212  1.0000
  O   O9        1.0  0.33000569631272475  0.7929236584631525  0.24438983649160656  1.0000
  O   O10       1.0  0.20411994457109733  0.8949908772353793  0.3866492897607188  1.0000
  O   O11       1.0  0.590068431255098  0.10841831298679945  0.2111940948750402  1.0000
  O   O12       1.0  0.3935629232341002  0.21719643630153482  0.23231842495756178  1.0000
