data_image0
_chemical_formula_structural       Zn2H10C6N8Cl2O6
_chemical_formula_sum              "Zn2 H10 C6 N8 Cl2 O6"
_cell_length_a       5.166698116445458
_cell_length_b       6.175514948722993
_cell_length_c       12.742608146007736
_cell_angle_alpha    90.00006181023618
_cell_angle_beta     89.99987683423511
_cell_angle_gamma    105.99910188902103

_space_group_name_H-M_alt    "P 1"
_space_group_IT_number       1

loop_
  _space_group_symop_operation_xyz
  'x, y, z'

loop_
  _atom_site_type_symbol
  _atom_site_label
  _atom_site_symmetry_multiplicity
  _atom_site_fract_x
  _atom_site_fract_y
  _atom_site_fract_z
  _atom_site_occupancy
  Zn  Zn1       1.0  0.9383165200685113  0.473347149247701  0.2859270371409579  1.0000
  Zn  Zn2       1.0  0.06169174901580731  0.5266528240719667  0.7859271172411509  1.0000
  H   H1        1.0  0.0001492433108226982  0.9739516746780199  0.16471847798631248  1.0000
  H   H2        1.0  0.9998396620792962  0.026046277852344705  0.6647253342974223  1.0000
  H   H3        1.0  0.5602322872921093  0.11404230903703905  0.9480317581461081  1.0000
  H   H4        1.0  0.43977646306444046  0.8859679583709553  0.4480268253995944  1.0000
  H   H5        1.0  0.4382971727967019  0.263005566050964  0.04791706254148659  1.0000
  H   H6        1.0  0.5616839959498208  0.7369904808116984  0.5479113104338609  1.0000
  H   H7        1.0  0.3952398023349773  0.4788321416867591  0.3803608497795423  1.0000
  H   H8        1.0  0.604765196896267  0.5211712838224188  0.8803628023108985  1.0000
  H   H9        1.0  0.17279881985004408  0.2378451205448542  0.3978847742935798  1.0000
  H   H10       1.0  0.8272115795432103  0.7621634170530032  0.8978819392226853  1.0000
  C   C1        1.0  0.11556869590032186  0.8669961785670495  0.13118131073917277  1.0000
  C   C2        1.0  0.88442653473836  0.13299675109680462  0.6311851818735903  1.0000
  C   C3        1.0  0.37974455085887376  0.12480130042347072  0.9907256118558294  1.0000
  C   C4        1.0  0.6202560338827753  0.8752022285862966  0.4907244384569438  1.0000
  C   C5        1.0  0.17752902093678816  0.17754308993981033  0.9150865677489506  1.0000
  C   C6        1.0  0.8224805672060854  0.8224570655002454  0.4150898988535516  1.0000
  N   N1        1.0  0.2826041297662557  0.916145133366101  0.0486722376659046  1.0000
  N   N2        1.0  0.7173936341992757  0.0838544294131225  0.548673877964319  1.0000
  N   N3        1.0  0.11887086509103277  0.6639828380872856  0.1646665554396307  1.0000
  N   N4        1.0  0.8811194479854764  0.33601344818354323  0.6646697435314977  1.0000
  N   N5        1.0  0.29075865698020215  0.5907992643304069  0.10153182006381199  1.0000
  N   N6        1.0  0.7092393862408742  0.40920204996039206  0.601535980214372  1.0000
  N   N7        1.0  0.39064682513961924  0.742423507370603  0.0318639717541913  1.0000
  N   N8        1.0  0.6093601927216454  0.25757444092363363  0.5318689310118074  1.0000
  Cl  Cl1       1.0  0.666126905994048  0.14580312348056887  0.23612487119558517  1.0000
  Cl  Cl2       1.0  0.333855491725835  0.8541998999502454  0.7361193771686985  1.0000
  O   O1        1.0  0.941134750252438  0.0584279280492837  0.9065557661169734  1.0000
  O   O2        1.0  0.05887167531166424  0.9415621098792072  0.40656218330262567  1.0000
  O   O3        1.0  0.19828165403774287  0.4023495255225172  0.38748897214549777  1.0000
  O   O4        1.0  0.8017252522264401  0.5976539272859399  0.8874892185690726  1.0000
  O   O5        1.0  0.2813844767223089  0.3637571882303593  0.8646769499481337  1.0000
  O   O6        1.0  0.7186209376257083  0.6362411822892187  0.3646732191443647  1.0000
