data_image0
_chemical_formula_structural       Cu8H40C48I8N24
_chemical_formula_sum              "Cu8 H40 C48 I8 N24"
_cell_length_a       7.825763519331079
_cell_length_b       13.15094320790069
_cell_length_c       16.053013385219533
_cell_angle_alpha    104.23440012820652
_cell_angle_beta     98.83200662413843
_cell_angle_gamma    102.66174090368156

_space_group_name_H-M_alt    "P 1"
_space_group_IT_number       1

loop_
  _space_group_symop_operation_xyz
  'x, y, z'

loop_
  _atom_site_type_symbol
  _atom_site_label
  _atom_site_symmetry_multiplicity
  _atom_site_fract_x
  _atom_site_fract_y
  _atom_site_fract_z
  _atom_site_occupancy
  Cu  Cu1       1.0  0.5504265519504159  0.3001242757262972  0.813110638977129  1.0000
  Cu  Cu2       1.0  0.4495665844711284  0.6998699773344513  0.18688582455352792  1.0000
  Cu  Cu3       1.0  0.4867260081565093  0.584478840202948  0.9733396798369471  1.0000
  Cu  Cu4       1.0  0.5132665288312168  0.41551705699018987  0.026660176680905992  1.0000
  Cu  Cu5       1.0  0.5888362077695247  0.13470725976451803  0.864120249990613  1.0000
  Cu  Cu6       1.0  0.4111655506448742  0.8652918388053623  0.13588159796064053  1.0000
  Cu  Cu7       1.0  0.5218989506934973  0.09505071112194231  0.7007646337032796  1.0000
  Cu  Cu8       1.0  0.4781068982827748  0.9049516243687704  0.29923755841155497  1.0000
  H   H1        1.0  0.8717018500011166  0.010081793046573799  0.24021788956555673  1.0000
  H   H2        1.0  0.12830497359269796  0.9899197125926518  0.7597811008127381  1.0000
  H   H3        1.0  0.039815466767493  0.9522587468467378  0.21936560012351694  1.0000
  H   H4        1.0  0.9601942974424417  0.0477435553013521  0.7806344051403471  1.0000
  H   H5        1.0  0.8083321395828094  0.2957215713425115  0.4405175081446445  1.0000
  H   H6        1.0  0.19165870431282173  0.7042759600307561  0.5594756848698809  1.0000
  H   H7        1.0  0.8875424043755658  0.2346824941559689  0.3573854298895185  1.0000
  H   H8        1.0  0.11245841131417932  0.7653198671558527  0.6426101370597195  1.0000
  H   H9        1.0  0.6452271406819889  0.24645724517947804  0.6071327978856474  1.0000
  H   H10       1.0  0.3547823872133122  0.7535417927820093  0.39286778754852497  1.0000
  H   H11       1.0  0.5332242964903813  0.28951626454422547  0.4702509670559039  1.0000
  H   H12       1.0  0.46678375493184626  0.7104852376781564  0.5297512352062199  1.0000
  H   H13       1.0  0.1027112890475054  0.993665233714225  0.4000910250342855  1.0000
  H   H14       1.0  0.8972837230271862  0.006344538381597396  0.5999136473586404  1.0000
  H   H15       1.0  0.22493797882857802  0.9663426827385564  0.5438029542147547  1.0000
  H   H16       1.0  0.7750573475761512  0.0336621858997788  0.45620139430917567  1.0000
  H   H17       1.0  0.6686806676766395  0.9727470740435749  0.960775304977183  1.0000
  H   H18       1.0  0.33132964717797353  0.027253588833609396  0.039223796247377214  1.0000
  H   H19       1.0  0.8692038799102804  0.9819667303677309  0.09717993712406783  1.0000
  H   H20       1.0  0.1308071732472413  0.0180298384713709  0.9028165425342609  1.0000
  H   H21       1.0  0.08608776072561854  0.32594706014711516  0.13041279658827423  1.0000
  H   H22       1.0  0.9139180273969745  0.6740495576051941  0.8695888804069087  1.0000
  H   H23       1.0  0.8773663950812177  0.3015173175444374  0.9898055208183295  1.0000
  H   H24       1.0  0.12264033093431692  0.6984841978177769  0.01019844745574262  1.0000
  H   H25       1.0  0.49147339665120165  0.2946438590862073  0.16376313223948813  1.0000
  H   H26       1.0  0.5085261715145252  0.7053560715366275  0.8362380833275084  1.0000
  H   H27       1.0  0.6784846689644937  0.3074588784573677  0.3044829415315036  1.0000
  H   H28       1.0  0.32151367124006924  0.6925467793975814  0.6955186884561615  1.0000
  H   H29       1.0  0.09039173882669631  0.5512589828680279  0.25560808329333184  1.0000
  H   H30       1.0  0.9096057000767817  0.44874177373089463  0.7443893887045405  1.0000
  H   H31       1.0  0.8803441290900196  0.5314201057305824  0.11679797522151603  1.0000
  H   H32       1.0  0.11965273490694985  0.46857656875472037  0.8831980189850983  1.0000
  H   H33       1.0  0.6280133624457989  0.48236645624690067  0.7387174445401002  1.0000
  H   H34       1.0  0.3719786240299997  0.5176253564018723  0.2612796897125449  1.0000
  H   H35       1.0  0.49657085063271483  0.535657527596051  0.6109020526048284  1.0000
  H   H36       1.0  0.5034207483293329  0.46433919580245936  0.3890991389386472  1.0000
  H   H37       1.0  0.03234241609687423  0.2630573915121844  0.562419055792141  1.0000
  H   H38       1.0  0.9676431505665377  0.7369401899896674  0.43757995679621325  1.0000
  H   H39       1.0  0.1854971115134845  0.2194346020574542  0.6916118403439243  1.0000
  H   H40       1.0  0.8144917710825226  0.7805588664188933  0.3083847520761438  1.0000
  C   C1        1.0  0.24822101491401577  0.17384022838231775  0.3436405729004832  1.0000
  C   C2        1.0  0.751786885441831  0.826163724961127  0.656361480177651  1.0000
  C   C3        1.0  0.11332137665537087  0.17846669044048005  0.2140799954179897  1.0000
  C   C4        1.0  0.8866855736102509  0.8215323665084288  0.7859203886182443  1.0000
  C   C5        1.0  0.5249412913455913  0.19237503931508826  0.5597340037607808  1.0000
  C   C6        1.0  0.4750658464455242  0.8076272866819141  0.4402682890530302  1.0000
  C   C7        1.0  0.4637863181257913  0.21505851209487048  0.4827000041779783  1.0000
  C   C8        1.0  0.5362228710448989  0.7849454317548563  0.5173021495991321  1.0000
  C   C9        1.0  0.307870928063508  0.14419021451974598  0.4227548411082438  1.0000
  C   C10       1.0  0.6921308912045704  0.8558146017885379  0.5772475219626615  1.0000
  C   C11       1.0  0.2217618007602979  0.0519405403435869  0.4447081708999009  1.0000
  C   C12       1.0  0.7782381546536996  0.9480659271600514  0.5552962399852746  1.0000
  C   C13       1.0  0.2904329169641713  0.03642806873875771  0.5244488116144624  1.0000
  C   C14       1.0  0.7095674380281167  0.9635792106150447  0.4755545460474266  1.0000
  C   C15       1.0  0.7631691246821432  0.050030928100348114  0.00035211859329108944  1.0000
  C   C16       1.0  0.23683562313751597  0.9499689621168911  0.9996482552956466  1.0000
  C   C17       1.0  0.8767738908652377  0.056375311647670394  0.0781539042499944  1.0000
  C   C18       1.0  0.12323712570042747  0.9436212608375528  0.9218444421192517  1.0000
  C   C19       1.0  0.9938764400839162  0.15728318413454906  0.12885002339236004  1.0000
  C   C20       1.0  0.006128821788571947  0.8427150704579136  0.8711513131681914  1.0000
  C   C21       1.0  0.995039324576517  0.24638385201747326  0.0949924416879853  1.0000
  C   C22       1.0  0.00496837605655997  0.7536168334932541  0.905008324849547  1.0000
  C   C23       1.0  0.8789815203941416  0.2330163953885745  0.016589610599631006  1.0000
  C   C24       1.0  0.12102520562139325  0.76698511997364  0.9834143576744341  1.0000
  C   C25       1.0  0.03322707246977067  0.4481844688132738  0.37502965201129257  1.0000
  C   C26       1.0  0.9667688777633501  0.5518187532619123  0.6249700590515062  1.0000
  C   C27       1.0  0.18428565252269644  0.43661695320016497  0.49878743684416094  1.0000
  C   C28       1.0  0.8157069331214258  0.5633846629467527  0.5012135570303116  1.0000
  C   C29       1.0  0.626879840701193  0.3490349167349578  0.18499179364690124  1.0000
  C   C30       1.0  0.373119364478093  0.6509641983915984  0.8150086084324712  1.0000
  C   C31       1.0  0.7354620122797542  0.35576221199291774  0.2644470052762173  1.0000
  C   C32       1.0  0.26453575301830784  0.6442393637484046  0.7355531469201966  1.0000
  C   C33       1.0  0.9078455221173556  0.42830326963648707  0.29202793485949036  1.0000
  C   C34       1.0  0.0921530057454447  0.5716999334512848  0.707971977601254  1.0000
  C   C35       1.0  0.9597748316087618  0.492152064403065  0.23700830575518242  1.0000
  C   C36       1.0  0.04022352092583505  0.5078478684212371  0.7629890756910102  1.0000
  C   C37       1.0  0.8425802767885172  0.4818467194284963  0.15981900098761062  1.0000
  C   C38       1.0  0.15741655061660256  0.5181499587029209  0.8401788599299209  1.0000
  C   C39       1.0  0.4980625986941122  0.43409936117885917  0.6967280301601236  1.0000
  C   C40       1.0  0.5019270220720602  0.5658957370746763  0.30326956699821755  1.0000
  C   C41       1.0  0.42394851266735867  0.463820682291086  0.6254623230181765  1.0000
  C   C42       1.0  0.5760456761216518  0.5361760209046268  0.37453844768626254  1.0000
  C   C43       1.0  0.25444754965844396  0.40158967971143505  0.5733398893847267  1.0000
  C   C44       1.0  0.7455426338169459  0.598409501871103  0.4266598078018404  1.0000
  C   C45       1.0  0.1656051260960751  0.31256294935527507  0.5984249773001552  1.0000
  C   C46       1.0  0.8343846943928738  0.6874354167309775  0.40157390639878804  1.0000
  C   C47       1.0  0.2506878718794426  0.2881417555239096  0.670637373999476  1.0000
  C   C48       1.0  0.7493030377015728  0.7118533332359148  0.3293603238578342  1.0000
  I   I1        1.0  0.8329533062518664  0.23013079316008597  0.7776409775568142  1.0000
  I   I2        1.0  0.16705082993669879  0.7698707424049263  0.22236341155628742  1.0000
  I   I3        1.0  0.7375613022541926  0.49479598001453706  0.9323447742843458  1.0000
  I   I4        1.0  0.2624287302875601  0.505199928873786  0.0676511474137342  1.0000
  I   I5        1.0  0.3358091507496824  0.22551574930968601  0.9091993834621023  1.0000
  I   I6        1.0  0.6641898425095433  0.7744800991995291  0.09080035431362893  1.0000
  I   I7        1.0  0.42803111471615557  0.9333856066204265  0.7601442390313837  1.0000
  I   I8        1.0  0.571972017894076  0.0666134739481237  0.2398533539600436  1.0000
  N   N1        1.0  0.24031778720686958  0.27229117526636054  0.25225541013075065  1.0000
  N   N2        1.0  0.75968824942764  0.7277087054571749  0.7477450644571562  1.0000
  N   N3        1.0  0.324482385612896  0.26900713923468805  0.33174250860084004  1.0000
  N   N4        1.0  0.6755221867458161  0.7309952045343593  0.6682589605780507  1.0000
  N   N5        1.0  0.11383380205118243  0.11427373344857022  0.2707502933103143  1.0000
  N   N6        1.0  0.8861755503831718  0.8857277580647318  0.729251387413811  1.0000
  N   N7        1.0  0.003150821758161698  0.0115034972611525  0.26202076246489275  1.0000
  N   N8        1.0  0.996855590060065  0.9884971977432856  0.7379799033736703  1.0000
  N   N9        1.0  0.4391962112389224  0.10504521277486127  0.5821481848634065  1.0000
  N   N10       1.0  0.5608083489225067  0.8949571322095623  0.4178539065524519  1.0000
  N   N11       1.0  0.7608684554772439  0.1365598536813906  0.9697218597479563  1.0000
  N   N12       1.0  0.23913959594498393  0.8634416485409916  0.030280342514174705  1.0000
  N   N13       1.0  0.1670606456553046  0.5389353900271916  0.41035230645125154  1.0000
  N   N14       1.0  0.8329357942360646  0.4610661988539704  0.5896496117571033  1.0000
  N   N15       1.0  0.2591780994636323  0.5323535525937187  0.48730635389307514  1.0000
  N   N16       1.0  0.7408157262062008  0.46764805892098593  0.5126972296282518  1.0000
  N   N17       1.0  0.039105068381736885  0.38203405510079586  0.4297480458140442  1.0000
  N   N18       1.0  0.9608888304717951  0.6179675491216656  0.570251804285455  1.0000
  N   N19       1.0  0.9225395023228843  0.2810487182624968  0.4219228450186209  1.0000
  N   N20       1.0  0.07745410672792026  0.718952063171443  0.5780724581714268  1.0000
  N   N21       1.0  0.6774541755627723  0.41083152550356783  0.13265277664197583  1.0000
  N   N22       1.0  0.322545955444916  0.5891667646329922  0.8673469126487491  1.0000
  N   N23       1.0  0.4157273016040079  0.3462684100713319  0.7190445395836633  1.0000
  N   N24       1.0  0.5842683880526565  0.6537258264327406  0.28095336981888863  1.0000
