data_image0
_chemical_formula_structural       Cu12H72C135N24
_chemical_formula_sum              "Cu12 H72 C135 N24"
_cell_length_a       31.70203516885596
_cell_length_b       31.676043504260562
_cell_length_c       31.886433307524893
_cell_angle_alpha    89.99048072938237
_cell_angle_beta     90.0011933888501
_cell_angle_gamma    89.93897205745708

_space_group_name_H-M_alt    "P 1"
_space_group_IT_number       1

loop_
  _space_group_symop_operation_xyz
  'x, y, z'

loop_
  _atom_site_type_symbol
  _atom_site_label
  _atom_site_symmetry_multiplicity
  _atom_site_fract_x
  _atom_site_fract_y
  _atom_site_fract_z
  _atom_site_occupancy
  Cu  Cu1       1.0  0.782773617261377  0.7829571081378078  0.852116541335356  1.0000
  Cu  Cu2       1.0  0.8533086630887823  0.7821514788972123  0.7817005426282507  1.0000
  Cu  Cu3       1.0  0.7821317902521301  0.8536352734830431  0.7818509857925664  1.0000
  Cu  Cu4       1.0  0.7824531756559167  0.21702859053640816  0.14769671121661795  1.0000
  Cu  Cu5       1.0  0.8529514212407038  0.21780675799027452  0.21826832366416235  1.0000
  Cu  Cu6       1.0  0.7818678527374275  0.146394901834455  0.21828954341296486  1.0000
  Cu  Cu7       1.0  0.217139864910699  0.7830364160008899  0.1476939110365194  1.0000
  Cu  Cu8       1.0  0.14660781701655168  0.7823242161375675  0.21817222687953836  1.0000
  Cu  Cu9       1.0  0.21801424838110253  0.853455124941661  0.21833189005629816  1.0000
  Cu  Cu10      1.0  0.21850445512260563  0.21831902365606476  0.8507875122506621  1.0000
  Cu  Cu11      1.0  0.1465752858750662  0.21772695244674617  0.7816061994465573  1.0000
  Cu  Cu12      1.0  0.2179598196131494  0.14635457718343053  0.7816977973840766  1.0000
  H   H1        1.0  0.8116534537825332  0.7049205466282161  0.9075235499480672  1.0000
  H   H2        1.0  0.9083121570655094  0.7031851344572003  0.8113596519769788  1.0000
  H   H3        1.0  0.7033245223093872  0.9089078170451685  0.8117362045682983  1.0000
  H   H4        1.0  0.7049216846564336  0.8119124358228546  0.90766205527153  1.0000
  H   H5        1.0  0.9080424231501143  0.8114282157427654  0.7036252925590889  1.0000
  H   H6        1.0  0.8114756675730207  0.9084108885009314  0.7037983320165966  1.0000
  H   H7        1.0  0.8113918807848962  0.29498060897282846  0.09217097754984853  1.0000
  H   H8        1.0  0.9078730551430142  0.29678851654220045  0.1884802886588021  1.0000
  H   H9        1.0  0.7031806295011832  0.0911999301096884  0.18854838195060353  1.0000
  H   H10       1.0  0.7045605486900329  0.18785848103654962  0.09230754025414713  1.0000
  H   H11       1.0  0.9076914626696536  0.18849671384414524  0.2965674628136271  1.0000
  H   H12       1.0  0.8112312516704351  0.09162293205234559  0.29640788245660593  1.0000
  H   H13       1.0  0.18796578212324994  0.705280459335199  0.09203862836810121  1.0000
  H   H14       1.0  0.09138460578439121  0.7036670590015746  0.18827158320388557  1.0000
  H   H15       1.0  0.2969294513090262  0.9084625980664569  0.18874075954297356  1.0000
  H   H16       1.0  0.2952123318477221  0.811972234834812  0.09236187263614683  1.0000
  H   H17       1.0  0.0920123154864001  0.8116217293999455  0.29645164141023633  1.0000
  H   H18       1.0  0.18885835587527572  0.908113433297473  0.29654223772963223  1.0000
  H   H19       1.0  0.1898294157370657  0.2968917333049959  0.9057399177423948  1.0000
  H   H20       1.0  0.0905606412748412  0.2955650159481991  0.8122603658309162  1.0000
  H   H21       1.0  0.2957329758057837  0.0902623570909142  0.8124298207846723  1.0000
  H   H22       1.0  0.2971214061107331  0.1897122020265627  0.9057938471724756  1.0000
  H   H23       1.0  0.09176220852266681  0.1881278630461551  0.7036617025275833  1.0000
  H   H24       1.0  0.18852855635327612  0.0913548718075674  0.7038723813593466  1.0000
  H   H25       1.0  0.9797582440048844  0.5905499347652566  0.8844581033772771  1.0000
  H   H26       1.0  0.0187598030189449  0.5356906692910715  0.9234141631550161  1.0000
  H   H27       1.0  0.9224457149153907  0.5356423602375813  0.0186408146370241  1.0000
  H   H28       1.0  0.8833901738134101  0.5904681931095511  0.9797590993200774  1.0000
  H   H29       1.0  0.8830179003422601  0.4101524631858667  0.0200197856782651  1.0000
  H   H30       1.0  0.922284683098262  0.4648554195043104  0.9813698052636043  1.0000
  H   H31       1.0  0.0183558905694596  0.46427262576903433  0.07681799860336012  1.0000
  H   H32       1.0  0.9791868661223689  0.4094511412226254  0.11553441539256684  1.0000
  H   H33       1.0  0.11612214380311063  0.5905238012111553  0.019871341045025307  1.0000
  H   H34       1.0  0.07721819427347752  0.5354471441157002  0.9813551116595395  1.0000
  H   H35       1.0  0.9809241972775952  0.5359879443461965  0.07659040844356473  1.0000
  H   H36       1.0  0.019747163029336403  0.5911391032334451  0.11515674919966302  1.0000
  H   H37       1.0  0.11625192412761721  0.40953374733869924  0.9795617895715056  1.0000
  H   H38       1.0  0.07728619028906539  0.46436084182521137  0.018493903988833407  1.0000
  H   H39       1.0  0.980888162313555  0.46441322990747835  0.9233669160040494  1.0000
  H   H40       1.0  0.019780354423566796  0.40956765991888483  0.8843543595404386  1.0000
  H   H41       1.0  0.5902595992983493  0.9797291168392874  0.8846071149418724  1.0000
  H   H42       1.0  0.5352016471877478  0.018598317462526402  0.9234065168858268  1.0000
  H   H43       1.0  0.5361719516181511  0.9229261835567543  0.019331899211657306  1.0000
  H   H44       1.0  0.5911685136787596  0.8839588197961062  0.9805928115932976  1.0000
  H   H45       1.0  0.4089967435058385  0.019255126875833604  0.885051066160685  1.0000
  H   H46       1.0  0.4639444241051223  0.9804328752942978  0.924007272616493  1.0000
  H   H47       1.0  0.46463076098014255  0.07746464697211049  0.018556850385444107  1.0000
  H   H48       1.0  0.40967539784922746  0.1163665752080902  0.9797048335008187  1.0000
  H   H49       1.0  0.5903279011005936  0.0199731292499337  0.11581562228661113  1.0000
  H   H50       1.0  0.5353165944295315  0.9810776333339606  0.07707018891117201  1.0000
  H   H51       1.0  0.5358050267029384  0.0768376634229853  0.9812248310444078  1.0000
  H   H52       1.0  0.5907429718202836  0.11586407857280531  0.019940961576921303  1.0000
  H   H53       1.0  0.41024503608419144  0.883103564161786  0.020798381427638908  1.0000
  H   H54       1.0  0.46508147762257596  0.9221332960691767  0.9819747755665136  1.0000
  H   H55       1.0  0.46392884255732986  0.019149254024974003  0.07653738536046015  1.0000
  H   H56       1.0  0.4090711462519607  0.9802048562487968  0.11543977268205913  1.0000
  H   H57       1.0  0.883405541330866  0.9793825835113524  0.5896302065431132  1.0000
  H   H58       1.0  0.9223721980014121  0.018310617959116406  0.5350383401219364  1.0000
  H   H59       1.0  0.0191503417346723  0.9228384716622956  0.5360429993576759  1.0000
  H   H60       1.0  0.9802431503421047  0.883844506623504  0.5906462447416632  1.0000
  H   H61       1.0  0.020880547389396  0.8832027560765429  0.4106157273478176  1.0000
  H   H62       1.0  0.9818192874622726  0.9221708807580811  0.4651871687897043  1.0000
  H   H63       1.0  0.0771358643965101  0.018919239924642308  0.46451460066357714  1.0000
  H   H64       1.0  0.11626434175592243  0.9800074286283759  0.4099971977584574  1.0000
  H   H65       1.0  0.11661563794236683  0.0200680160721234  0.5897238577105527  1.0000
  H   H66       1.0  0.07766661812165411  0.9812493151388468  0.5350600656635012  1.0000
  H   H67       1.0  0.9809976280676337  0.0768243772826835  0.536000678424607  1.0000
  H   H68       1.0  0.019900068189159004  0.1157339886749114  0.5907035651456242  1.0000
  H   H69       1.0  0.9791741595801825  0.116476175373954  0.410552537696063  1.0000
  H   H70       1.0  0.018220415540497508  0.07752017490285823  0.46509334076100844  1.0000
  H   H71       1.0  0.9228843059670097  0.9808032187446827  0.46447787439832683  1.0000
  H   H72       1.0  0.8837553851113428  0.019694119953129502  0.4099890394628717  1.0000
  C   C1        1.0  0.8318563861955327  0.7104292456919551  0.8806242891894629  1.0000
  C   C2        1.0  0.8686251098006538  0.6887082116513525  0.8682722372662116  1.0000
  C   C3        1.0  0.8813760926914328  0.7095736536696648  0.8313538357192628  1.0000
  C   C4        1.0  0.7096615881751945  0.8818695427057931  0.8316561820017229  1.0000
  C   C5        1.0  0.6888117194746146  0.8690445237541911  0.8685545858256137  1.0000
  C   C6        1.0  0.710451811454135  0.8321714932474152  0.8807929387248241  1.0000
  C   C7        1.0  0.8811000295625534  0.8316884105117879  0.7095743550091671  1.0000
  C   C8        1.0  0.8684764996102531  0.8686403141675928  0.6883422636612979  1.0000
  C   C9        1.0  0.8316477363396899  0.8813735191156981  0.7096648818543232  1.0000
  C   C10       1.0  0.8315689623262729  0.28950109771678  0.11910240230609763  1.0000
  C   C11       1.0  0.8682983338648855  0.31124692370212864  0.1314548585286133  1.0000
  C   C12       1.0  0.8809911474783975  0.29038055951667024  0.16843620246454805  1.0000
  C   C13       1.0  0.7094744305983911  0.1181681580263927  0.1685485888481821  1.0000
  C   C14       1.0  0.688561559342041  0.1308781008443916  0.13163647580586266  1.0000
  C   C15       1.0  0.7101453163736055  0.16769161305006017  0.11924806683448003  1.0000
  C   C16       1.0  0.8807779705529554  0.1682502274151858  0.2906092390956871  1.0000
  C   C17       1.0  0.8682109962689993  0.13129852788159727  0.3118605761384714  1.0000
  C   C18       1.0  0.8313847417642322  0.11862565487383851  0.2905321440807428  1.0000
  C   C19       1.0  0.16779321658509622  0.7107728762034428  0.11896365088512793  1.0000
  C   C20       1.0  0.13098705789717258  0.6891291410627572  0.13126830957680374  1.0000
  C   C21       1.0  0.11832881200697902  0.7099663877325  0.16827176084476045  1.0000
  C   C22       1.0  0.2905320326523294  0.881562093553221  0.16868771417884434  1.0000
  C   C23       1.0  0.3114138950073767  0.8688257979391877  0.1317624729269653  1.0000
  C   C24       1.0  0.2896965047495854  0.8321078830069198  0.11932142465418853  1.0000
  C   C25       1.0  0.11900620791838891  0.8317701361571893  0.2905585094250753  1.0000
  C   C26       1.0  0.1317256350614855  0.8685979118671412  0.3118852702592464  1.0000
  C   C27       1.0  0.1686035605367096  0.8811972090472722  0.2906062929096934  1.0000
  C   C28       1.0  0.1690042809572034  0.29066674527788183  0.8794810079279218  1.0000
  C   C29       1.0  0.13142227361542066  0.3114922000415632  0.867974310715127  1.0000
  C   C30       1.0  0.11817795018609442  0.2899914149219783  0.8315729340881222  1.0000
  C   C31       1.0  0.2901701978824319  0.11794790075258989  0.8316856411589344  1.0000
  C   C32       1.0  0.31165186596295774  0.13124195923516882  0.8680588578839024  1.0000
  C   C33       1.0  0.29087768146270315  0.1688681381373058  0.8795332238531943  1.0000
  C   C34       1.0  0.11875452718170011  0.16793556852483962  0.7096220480676794  1.0000
  C   C35       1.0  0.13142422886748759  0.13098060308362142  0.6884398611986386  1.0000
  C   C36       1.0  0.1683185827577134  0.11836683186683672  0.7097230589115855  1.0000
  C   C37       1.0  2.4115024736200137e-05  0.9998485194919269  0.5001226750286564  1.0000
  C   C38       1.0  0.999822340221897  0.5000110552192468  3.771980511400003e-05  1.0000
  C   C39       1.0  0.499962950903445  0.9998542215924856  0.00024560342033200043  1.0000
  C   C40       1.0  0.9284938484051825  0.5942474324739564  0.9290214133969459  1.0000
  C   C41       1.0  0.9670334738333893  0.5781338896391901  0.9137222685789443  1.0000
  C   C42       1.0  0.988790619997282  0.5471398051740477  0.9357490104291843  1.0000
  C   C43       1.0  0.8886302715197515  0.6549435906571262  0.8887303819282624  1.0000
  C   C44       1.0  0.9350324367788617  0.5471146264317498  0.988939324435073  1.0000
  C   C45       1.0  0.9129279747042603  0.5781083471727441  0.9672368300891209  1.0000
  C   C46       1.0  0.9066861250558916  0.6263667061576613  0.9071299137764091  1.0000
  C   C47       1.0  0.9731162725610008  0.5306398352770431  0.9735005472026333  1.0000
  C   C48       1.0  0.928037349180187  0.40591227520044265  0.0708370829364497  1.0000
  C   C49       1.0  0.9125770371709694  0.4222816936542273  0.03265123034608312  1.0000
  C   C50       1.0  0.9348256525959115  0.45322789631752874  0.011049654418407303  1.0000
  C   C51       1.0  0.888262146191238  0.3450565155933205  0.11098461239928534  1.0000
  C   C52       1.0  0.9884273627264264  0.45290928927038726  0.06434627727330883  1.0000
  C   C53       1.0  0.9665408883601572  0.42194143207694884  0.08625712215866342  1.0000
  C   C54       1.0  0.906218702034714  0.37369706435940486  0.09260933082531153  1.0000
  C   C55       1.0  0.9729549528972755  0.4695065456317593  0.02653689848980891  1.0000
  C   C56       1.0  0.0710578391075245  0.5946196513630467  0.07062620690047793  1.0000
  C   C57       1.0  0.0866387105067616  0.5782209082841875  0.03251034857927951  1.0000
  C   C58       1.0  0.06461396641876149  0.5470563602594111  0.011008190710384703  1.0000
  C   C59       1.0  0.11090193457938113  0.65543625863161  0.11075644277566003  1.0000
  C   C60       1.0  0.0108848737968756  0.5473481565237321  0.06419042405459413  1.0000
  C   C61       1.0  0.0325588066026512  0.5785271694032232  0.08600584132654632  1.0000
  C   C62       1.0  0.09283365604429149  0.6268714345450446  0.09237808845342953  1.0000
  C   C63       1.0  0.026566615913587607  0.5306163810198824  0.026521100476543307  1.0000
  C   C64       1.0  0.07111771251597078  0.4057176669779706  0.9288657482600728  1.0000
  C   C65       1.0  0.08670118876981549  0.4218818243061051  0.9670662122963096  1.0000
  C   C66       1.0  0.06463187121922691  0.45287961451970926  0.9888201383000992  1.0000
  C   C67       1.0  0.11121548271644602  0.345099205850623  0.8885760596838213  1.0000
  C   C68       1.0  0.010838898209215101  0.452896390585046  0.9357043719148452  1.0000
  C   C69       1.0  0.03256598121841141  0.42190163295170174  0.9136248849784894  1.0000
  C   C70       1.0  0.09298114978289361  0.37359954177797755  0.9069508388642762  1.0000
  C   C71       1.0  0.026513643006659007  0.46937131562623347  0.973481227875148  1.0000
  C   C72       1.0  0.5944095747855445  0.9287374455077497  0.9294944283226628  1.0000
  C   C73       1.0  0.577991657271511  0.9670889943722402  0.9139699639581029  1.0000
  C   C74       1.0  0.5468936736816518  0.9887601921955208  0.9358855252143459  1.0000
  C   C75       1.0  0.6551053033009282  0.8890278568035727  0.8891019896627346  1.0000
  C   C76       1.0  0.5474177037254863  0.9353217548140192  0.9894549087602302  1.0000
  C   C77       1.0  0.5785046242344621  0.9132958982819941  0.9678547993085262  1.0000
  C   C78       1.0  0.6265562047800942  0.9069896678281992  0.9076194683759129  1.0000
  C   C79       1.0  0.5306041731607112  0.9731753852929756  0.9737645781137447  1.0000
  C   C80       1.0  0.40561628274642914  0.07094780531591739  0.9292350329063412  1.0000
  C   C81       1.0  0.42157371183434833  0.0322170838942171  0.9141495471230032  1.0000
  C   C82       1.0  0.4526238407375303  0.0105555509083572  0.9361620691176076  1.0000
  C   C83       1.0  0.34517508532851343  0.11101778098958451  0.8887370006307551  1.0000
  C   C84       1.0  0.4530028904979346  0.06472362558233871  0.9889766500376143  1.0000
  C   C85       1.0  0.4219401479750005  0.08672788058935772  0.9672928446451368  1.0000
  C   C86       1.0  0.37358320040129916  0.09281513082908789  0.9072580240490641  1.0000
  C   C87       1.0  0.4693499424088331  0.0265013394662788  0.9737079706546442  1.0000
  C   C88       1.0  0.5942116950723106  0.07102101074515593  0.07096311298645472  1.0000
  C   C89       1.0  0.5779617505528094  0.03262427184293409  0.08647989694866713  1.0000
  C   C90       1.0  0.5468930691449146  0.010939777812517102  0.06458869275394363  1.0000
  C   C91       1.0  0.6548610160466312  0.1108421452603423  0.11119676117115063  1.0000
  C   C92       1.0  0.5471565636184081  0.06444572673198222  0.011064169196899303  1.0000
  C   C93       1.0  0.5782012803715516  0.0864927497991843  0.032644303250812405  1.0000
  C   C94       1.0  0.6263148225745142  0.09281385208143429  0.09279473313699782  1.0000
  C   C95       1.0  0.5305136344055584  0.0265498165646463  0.026738598162786807  1.0000
  C   C96       1.0  0.40594340057674577  0.9285732162155468  0.07121131601997632  1.0000
  C   C97       1.0  0.4223849904272258  0.9127670834937265  0.033212052617358316  1.0000
  C   C98       1.0  0.4533566293600871  0.9348486476413455  0.011536759591898305  1.0000
  C   C99       1.0  0.3452003739180681  0.8887921308196525  0.11138111793274423  1.0000
  C   C100      1.0  0.45272532349909517  0.9890217037599528  0.0643725789657594  1.0000
  C   C101      1.0  0.42175681620422983  0.9672983342489373  0.08636403352221585  1.0000
  C   C102      1.0  0.3737813419292663  0.9068201705209377  0.09303146202799444  1.0000
  C   C103      1.0  0.4694771177088555  0.9731270298730549  0.026810271968464906  1.0000
  C   C104      1.0  0.9287277190102401  0.9285275815390082  0.5939433619232801  1.0000
  C   C105      1.0  0.9130247695045313  0.966804279284254  0.5775380748309475  1.0000
  C   C106      1.0  0.9350965705907515  0.9885472147368758  0.5466765798561612  1.0000
  C   C107      1.0  0.8886603376315492  0.888742328139223  0.6546010198655952  1.0000
  C   C108      1.0  0.9891006714325389  0.9352472098924097  0.547244961991936  1.0000
  C   C109      1.0  0.9673688651221894  0.9131739830486792  0.5781108149425762  1.0000
  C   C110      1.0  0.9069028238778644  0.9067871531243556  0.6260433333286175  1.0000
  C   C111      1.0  0.9733255986266157  0.9731145359303639  0.5305473814557546  1.0000
  C   C112      1.0  0.07162345552841738  0.9285650392836899  0.40641914294658943  1.0000
  C   C113      1.0  0.033378916216705114  0.912832261270374  0.4227465751995255  1.0000
  C   C114      1.0  0.011548483566293998  0.9349002765657561  0.4535867709144342  1.0000
  C   C115      1.0  0.11161283654714543  0.888735925034915  0.34567222599532954  1.0000
  C   C116      1.0  0.06474162359128138  0.9889091295134592  0.4532145508362931  1.0000
  C   C117      1.0  0.08690615017376759  0.967170949448665  0.4223938877429064  1.0000
  C   C118      1.0  0.09344486562913802  0.9068286506590937  0.3742724941442647  1.0000
  C   C119      1.0  0.026839996280919806  0.9731511486608896  0.4697493289327924  1.0000
  C   C120      1.0  0.07132627625490778  0.07097090750498582  0.5940287551916443  1.0000
  C   C121      1.0  0.0870221128466682  0.032697263098540895  0.5776065925451521  1.0000
  C   C122      1.0  0.06495309544182962  0.011015538650021002  0.5467072805854869  1.0000
  C   C123      1.0  0.1112586347672391  0.11078040275610589  0.6547471611881123  1.0000
  C   C124      1.0  0.01102480033002  0.0643983453157375  0.5472346053231121  1.0000
  C   C125      1.0  0.03274404903246622  0.08640720663967731  0.5781449279554709  1.0000
  C   C126      1.0  0.09310115139399502  0.09269643120463658  0.6261708578721255  1.0000
  C   C127      1.0  0.026757501650976706  0.026513820271297603  0.5305487127671855  1.0000
  C   C128      1.0  0.9283729811720676  0.07118198279030709  0.4063567797192676  1.0000
  C   C129      1.0  0.9666363944094061  0.0868667856808969  0.422690617656386  1.0000
  C   C130      1.0  0.9884721437370771  0.06479718743260321  0.45353842565263863  1.0000
  C   C131      1.0  0.8883808395747225  0.11113287026459769  0.3456371889778895  1.0000
  C   C132      1.0  0.9352834030576389  0.010822944155251  0.4531949545925401  1.0000
  C   C133      1.0  0.913113551629394  0.03256619930464672  0.42235959983172944  1.0000
  C   C134      1.0  0.9065311790309425  0.0929739275282557  0.3742224294725674  1.0000
  C   C135      1.0  0.9731839509298936  0.026563504621187  0.4697516987552107  1.0000
  N   N1        1.0  0.8543442032687313  0.741167572091001  0.8227256305178303  1.0000
  N   N2        1.0  0.823694450517273  0.7416875987781638  0.8532378794484929  1.0000
  N   N3        1.0  0.7416536495141699  0.8240176724180516  0.8533759835102902  1.0000
  N   N4        1.0  0.7411856669731236  0.8547789081157616  0.8229347440699473  1.0000
  N   N5        1.0  0.8233146501706585  0.8541758764500499  0.7410049304346134  1.0000
  N   N6        1.0  0.8539526525655462  0.823402238020961  0.7409457235101018  1.0000
  N   N7        1.0  0.8539949349655416  0.2587920411902332  0.17709067681711596  1.0000
  N   N8        1.0  0.8233893178326  0.2582637253984714  0.1465097132758971  1.0000
  N   N9        1.0  0.7413718337193558  0.17592898169740323  0.1466111531682088  1.0000
  N   N10       1.0  0.7409658801821737  0.1452628490904928  0.17715856244993947  1.0000
  N   N11       1.0  0.8230296281291132  0.14581970121956542  0.2591744125257308  1.0000
  N   N12       1.0  0.8536344326828312  0.1765740971910786  0.25920858380276013  1.0000
  N   N13       1.0  0.14541527852547637  0.7414585095120146  0.17696236514516533  1.0000
  N   N14       1.0  0.17604748482193605  0.7419423644634479  0.14641547579053346  1.0000
  N   N15       1.0  0.2584260737118528  0.8239486169718261  0.14665803717990405  1.0000
  N   N16       1.0  0.25893904085862834  0.8545614410494196  0.17724201643953566  1.0000
  N   N17       1.0  0.17685081322330382  0.8540583103780437  0.2591877339574183  1.0000
  N   N18       1.0  0.1461221228794969  0.8234364182062636  0.25915156930308575  1.0000
  N   N19       1.0  0.14567559810840444  0.25892244853570656  0.8224656437150275  1.0000
  N   N20       1.0  0.17716910481132694  0.259341612289667  0.85214575383732  1.0000
  N   N21       1.0  0.25956476509961124  0.1770090656140368  0.8522005529985395  1.0000
  N   N22       1.0  0.25912783713281573  0.1454614590128358  0.8225571942003713  1.0000
  N   N23       1.0  0.17662969732111833  0.14562058714658124  0.7410133748449328  1.0000
  N   N24       1.0  0.1459205256183154  0.17633096209251417  0.7409512560867669  1.0000
