data_image0
_chemical_formula_structural       Cu4H64C64S8Br4
_chemical_formula_sum              "Cu4 H64 C64 S8 Br4"
_cell_length_a       7.0262527110225115
_cell_length_b       12.075749480053142
_cell_length_c       20.681414099062597
_cell_angle_alpha    90.00023023889499
_cell_angle_beta     90.00016323059725
_cell_angle_gamma    90.0002447818101

_space_group_name_H-M_alt    "P 1"
_space_group_IT_number       1

loop_
  _space_group_symop_operation_xyz
  'x, y, z'

loop_
  _atom_site_type_symbol
  _atom_site_label
  _atom_site_symmetry_multiplicity
  _atom_site_fract_x
  _atom_site_fract_y
  _atom_site_fract_z
  _atom_site_occupancy
  Cu  Cu1       1.0  0.24478995660318503  0.33227701459998116  0.2499993710787507  1.0000
  Cu  Cu2       1.0  0.2552347635608427  0.8322833249178531  0.7500005886035126  1.0000
  Cu  Cu3       1.0  0.7447670859313791  0.16771557958639963  0.2500003881668391  1.0000
  Cu  Cu4       1.0  0.7552289717013567  0.6677243742412103  0.750001122176883  1.0000
  H   H1        1.0  0.4709766920479198  0.23674954488565447  0.5118799142094588  1.0000
  H   H2        1.0  0.02902112774838631  0.7367568310796669  0.0118801430178621  1.0000
  H   H3        1.0  0.47097014098101664  0.23675118458024258  0.988120076164833  1.0000
  H   H4        1.0  0.970973040506337  0.2632487147738658  0.5118811553258311  1.0000
  H   H5        1.0  0.5290265806890773  0.763248531526024  0.48812444724212156  1.0000
  H   H6        1.0  0.9709721823630917  0.2632478701558583  0.9881208337551328  1.0000
  H   H7        1.0  0.5290245923295699  0.7632502042148985  0.01187558181973  1.0000
  H   H8        1.0  0.0290245392871356  0.7367551583475774  0.48811595324081475  1.0000
  H   H9        1.0  0.6250552539638505  0.31457546513021134  0.6094091946633496  1.0000
  H   H10       1.0  0.8749450017950553  0.8145794515035548  0.1094107267509727  1.0000
  H   H11       1.0  0.6250464652652994  0.3145747770132346  0.8905887103414472  1.0000
  H   H12       1.0  0.125047134373439  0.18542345352231848  0.6094117013880336  1.0000
  H   H13       1.0  0.3749480187838827  0.6854292361174217  0.3905917821144839  1.0000
  H   H14       1.0  0.12505400125142782  0.18542524973888422  0.8905902500247932  1.0000
  H   H15       1.0  0.37494826805243525  0.6854274398911852  0.10940791469595008  1.0000
  H   H16       1.0  0.874947598961697  0.8145812477066129  0.3905868577559986  1.0000
  H   H17       1.0  0.8544411978936  0.5793713348491212  0.494443106656739  1.0000
  H   H18       1.0  0.6455533912123813  0.07937236693890531  0.9944425615534698  1.0000
  H   H19       1.0  0.8544420032197024  0.5793671672905063  0.005557291030527299  1.0000
  H   H20       1.0  0.35443626708203635  0.9206340175222678  0.49444084615991807  1.0000
  H   H21       1.0  0.14555780514868388  0.42063171018308754  0.5055583536430106  1.0000
  H   H22       1.0  0.3544342259485518  0.9206281937599526  0.005558415211901  1.0000
  H   H23       1.0  0.1455612694817319  0.42062842478167545  0.9944407845810446  1.0000
  H   H24       1.0  0.6455613127244747  0.0793690275065444  0.5055601306132118  1.0000
  H   H25       1.0  0.7119747799819649  0.497087731549044  0.3960903819596666  1.0000
  H   H26       1.0  0.7880263931263443  0.9970891529492647  0.896090180785279  1.0000
  H   H27       1.0  0.7119707136449804  0.4970875536688696  0.1039101678254042  1.0000
  H   H28       1.0  0.2119638671432753  0.0029157261494603  0.39608859248886574  1.0000
  H   H29       1.0  0.28803560890017366  0.5029062043348774  0.6039120453867993  1.0000
  H   H30       1.0  0.21196122403350162  0.0029105796453024004  0.10391127950504848  1.0000
  H   H31       1.0  0.288035405509504  0.5029047259813098  0.8960874242577361  1.0000
  H   H32       1.0  0.7880294429372798  0.9970823502334625  0.6039109336985716  1.0000
  H   H33       1.0  0.35872731714053435  0.2622124690834937  0.4046280357764829  1.0000
  H   H34       1.0  0.1412711267814188  0.7622093933004025  0.9046296260581315  1.0000
  H   H35       1.0  0.3587231795163746  0.2622130605188744  0.0953725869270485  1.0000
  H   H36       1.0  0.8587263209602727  0.23779471650473738  0.4046282501420889  1.0000
  H   H37       1.0  0.6412802252865363  0.7377847792207676  0.5953743915724843  1.0000
  H   H38       1.0  0.8587250297798408  0.2377895112002548  0.0953723177613099  1.0000
  H   H39       1.0  0.6412758235044722  0.7377875001854972  0.9046259722142052  1.0000
  H   H40       1.0  0.14127268206166121  0.7622066723039184  0.5953698254742007  1.0000
  H   H41       1.0  0.5648555155901178  0.2714070121748763  0.3559046892768976  1.0000
  H   H42       1.0  0.9351336652816685  0.7714079630110718  0.8559070487233313  1.0000
  H   H43       1.0  0.5648546312989425  0.27141539207073617  0.14409373772220846  1.0000
  H   H44       1.0  0.0648619523660798  0.22859084264984378  0.3559053631338855  1.0000
  H   H45       1.0  0.4351449106559216  0.7285885799038426  0.6440962874888781  1.0000
  H   H46       1.0  0.064861068039626  0.2285892852759588  0.1440948950934811  1.0000
  H   H47       1.0  0.4351415252494347  0.7285859967294642  0.8559028873149046  1.0000
  H   H48       1.0  0.9351398971140344  0.7714080618444187  0.6440927124808766  1.0000
  H   H49       1.0  0.11458945248641333  0.5418558984651299  0.3464088218004733  1.0000
  H   H50       1.0  0.38541112090602075  0.04185254484838911  0.846409476878854  1.0000
  H   H51       1.0  0.1145801080595703  0.5418585469952504  0.1535888346883496  1.0000
  H   H52       1.0  0.6145773012876534  0.9581486797304353  0.3464105199465166  1.0000
  H   H53       1.0  0.8854195131767425  0.45814466225633776  0.6535911879234105  1.0000
  H   H54       1.0  0.6145793427101438  0.9581463596370269  0.1535900493081712  1.0000
  H   H55       1.0  0.8854245879056037  0.45814449803388163  0.8464097244585815  1.0000
  H   H56       1.0  0.38542027851575267  0.0418535371924236  0.6535904568256398  1.0000
  H   H57       1.0  0.07703575734160494  0.42227254941577996  0.39417473945205467  1.0000
  H   H58       1.0  0.4229595310717685  0.9222709863328901  0.8941751529557892  1.0000
  H   H59       1.0  0.0770345534586312  0.42227238472253253  0.1058235671642578  1.0000
  H   H60       1.0  0.5770364061542496  0.0777322233890345  0.39417796315561293  1.0000
  H   H61       1.0  0.9229632456893383  0.5777280112969123  0.605826237318844  1.0000
  H   H62       1.0  0.5770337790221519  0.0777295743712187  0.10582534028641528  1.0000
  H   H63       1.0  0.922965872804042  0.5777281759902239  0.894176926081407  1.0000
  H   H64       1.0  0.4229654433516572  0.9222724778502067  0.6058210795178098  1.0000
  C   C1        1.0  0.5618119948465505  0.3096734780434289  0.5074301547180936  1.0000
  C   C2        1.0  0.9381930654998313  0.8096734775947712  0.0074317482747972  1.0000
  C   C3        1.0  0.5617997879813217  0.30967183594276554  0.9925681608432483  1.0000
  C   C4        1.0  0.061805335311063914  0.19033203763181208  0.5074326729464005  1.0000
  C   C5        1.0  0.4381941243542329  0.6903279107821944  0.4925703385313085  1.0000
  C   C6        1.0  0.061801667836071814  0.1903287393246345  0.9925692284959737  1.0000
  C   C7        1.0  0.43819494533112663  0.6903278966471336  0.007429431243096499  1.0000
  C   C8        1.0  0.9381979374285978  0.809672663609156  0.4925663697277116  1.0000
  C   C9        1.0  0.6472576531559469  0.35411573362377174  0.5625299622573507  1.0000
  C   C10       1.0  0.8527396614963225  0.8541213222429818  0.062530505713184  1.0000
  C   C11       1.0  0.6472506791406192  0.35411454021867417  0.9374690241020573  1.0000
  C   C12       1.0  0.1472549296965653  0.1458854004950041  0.5625309256873762  1.0000
  C   C13       1.0  0.352741349870641  0.6458815146717781  0.4374729486133973  1.0000
  C   C14       1.0  0.14725791830505844  0.1458808946782142  0.9374699875330422  1.0000
  C   C15       1.0  0.352745477393306  0.645883536156056  0.0625271174052457  1.0000
  C   C16       1.0  0.8527426501143085  0.8541209569509504  0.4374681169859114  1.0000
  C   C17       1.0  0.7500097942422529  0.4533792498941196  0.5588548479816351  1.0000
  C   C18       1.0  0.7499868115893805  0.9533804482645749  0.0588562586104189  1.0000
  C   C19       1.0  0.7500099670714209  0.45337559748463  0.9411435039732724  1.0000
  C   C20       1.0  0.2500077489171915  0.046623764857407914  0.5588575127445665  1.0000
  C   C21       1.0  0.24999490172308475  0.5466254513419172  0.44114226058944433  1.0000
  C   C22       1.0  0.2500036520402987  0.04662259674892509  0.9411427840555221  1.0000
  C   C23       1.0  0.24999472888939783  0.5466241351273595  0.05885698927350091  1.0000
  C   C24       1.0  0.7499926773476562  0.953378452063916  0.44114201345117726  1.0000
  C   C25       1.0  0.7754628352153575  0.5020187024784022  0.49802203651666593  1.0000
  C   C26       1.0  0.7245383192975299  0.0020199265145493  0.9980201176047174  1.0000
  C   C27       1.0  0.7754636106621932  0.5020178226930483  0.0019766524387208  1.0000
  C   C28       1.0  0.2754584850338874  0.9979839982763109  0.4980194738833248  1.0000
  C   C29       1.0  0.2245404375155857  0.49797937392828134  0.5019808743571231  1.0000
  C   C30       1.0  0.275457837262806  0.9979798060887294  0.0019808591638365994  1.0000
  C   C31       1.0  0.224543931724341  0.4979777693710119  0.9980175549674825  1.0000
  C   C32       1.0  0.7245419412401334  0.0020190467559615  0.5019815028911836  1.0000
  C   C33       1.0  0.6953542969641621  0.4560610188183887  0.4427259182665111  1.0000
  C   C34       1.0  0.8046455343678787  0.9560616525142579  0.9427286344009714  1.0000
  C   C35       1.0  0.6953498411962901  0.45605969168594374  0.057271134472856  1.0000
  C   C36       1.0  0.19534796181627465  0.04394437585351339  0.44272857674138777  1.0000
  C   C37       1.0  0.3046532454355742  0.5439354013599385  0.5572707067703178  1.0000
  C   C38       1.0  0.19534492924518082  0.04393642386521179  0.0572708917850804  1.0000
  C   C39       1.0  0.30465343150793006  0.5439334160783815  0.942729842291385  1.0000
  C   C40       1.0  0.8046510412230605  0.9560594972796466  0.5572714329815369  1.0000
  C   C41       1.0  0.5806854405250093  0.3615988486951167  0.4470770016314773  1.0000
  C   C42       1.0  0.9193137180607565  0.8615989329639007  0.947078862169377  1.0000
  C   C43       1.0  0.5806781019877931  0.36160163213939  0.0529235863483066  1.0000
  C   C44       1.0  0.08067981442415122  0.1384021567194154  0.4470774639860693  1.0000
  C   C45       1.0  0.41932067867965384  0.6384008839269271  0.5529259092456371  1.0000
  C   C46       1.0  0.08067532231838472  0.1383974872069373  0.0529221145918299  1.0000
  C   C47       1.0  0.41931805456773225  0.6384005847700891  0.9470740057416406  1.0000
  C   C48       1.0  0.919322035067303  0.8615992320943635  0.5529210951575365  1.0000
  C   C49       1.0  0.4729476660249717  0.3183978880957312  0.38943577242219624  1.0000
  C   C50       1.0  0.027046803103985405  0.8183986752445807  0.889437251686111  1.0000
  C   C51       1.0  0.47294934819339574  0.31839941225605634  0.1105641260087609  1.0000
  C   C52       1.0  0.9729476713075017  0.181603673731459  0.389436338552592  1.0000
  C   C53       1.0  0.5270541834672501  0.6816010164085141  0.6105652043481484  1.0000
  C   C54       1.0  0.9729479302165416  0.18160105735197626  0.1105622745039625  1.0000
  C   C55       1.0  0.5270525012814319  0.6815970079236778  0.8894349166549488  1.0000
  C   C56       1.0  0.027054178173699508  0.8183960588670872  0.610561253537213  1.0000
  C   C57       1.0  0.181320555222463  0.4866346853301522  0.3821253994058153  1.0000
  C   C58       1.0  0.3186793854035201  0.9866320407006339  0.8821257115474025  1.0000
  C   C59       1.0  0.1813208751929238  0.4866337755124803  0.117875093606699  1.0000
  C   C60       1.0  0.6813164511955208  0.013369429831264804  0.3821270215990253  1.0000
  C   C61       1.0  0.8186784478146907  0.5133675315944402  0.6178755773670375  1.0000
  C   C62       1.0  0.6813210408582222  0.013369348114743199  0.11787381464737479  1.0000
  C   C63       1.0  0.8186752813705171  0.5133667851967516  0.8821258831628213  1.0000
  C   C64       1.0  0.31868255183449196  0.9866319589840487  0.6178729881209932  1.0000
  S   S1        1.0  0.3757623204602255  0.4239396878203508  0.3355415651793408  1.0000
  S   S2        1.0  0.12423960703472402  0.9239390549453719  0.8355392707003517  1.0000
  S   S3        1.0  0.3757587597101306  0.4239399268785107  0.1644580027549978  1.0000
  S   S4        1.0  0.8757558405635848  0.0760629228957654  0.33554043323407257  1.0000
  S   S5        1.0  0.6242437987464559  0.5760600448033629  0.664461829223704  1.0000
  S   S6        1.0  0.8757565495144208  0.07605984954530241  0.16445977196350728  1.0000
  S   S7        1.0  0.6242430897577054  0.5760573213988566  0.8355386222800334  1.0000
  S   S8        1.0  0.12424743215230188  0.9239359816018936  0.6644581259073092  1.0000
  Br  Br1       1.0  0.8906634793190804  0.3546557065153949  0.24999245831816094  1.0000
  Br  Br2       1.0  0.609363869507476  0.8546666310264684  0.7500152927297846  1.0000
  Br  Br3       1.0  0.39064082646728343  0.14532068004621118  0.2499997062803416  1.0000
  Br  Br4       1.0  0.10935117929430051  0.64534568232893  0.7500104525650498  1.0000
