data_image0
_chemical_formula_structural       Zn2H32C64N16F8
_chemical_formula_sum              "Zn2 H32 C64 N16 F8"
_cell_length_a       8.217455799326737
_cell_length_b       13.964357013959438
_cell_length_c       14.16
_cell_angle_alpha    64.31446667807181
_cell_angle_beta     88.79484908349552
_cell_angle_gamma    88.10676389582957

_space_group_name_H-M_alt    "P 1"
_space_group_IT_number       1

loop_
  _space_group_symop_operation_xyz
  'x, y, z'

loop_
  _atom_site_type_symbol
  _atom_site_label
  _atom_site_symmetry_multiplicity
  _atom_site_fract_x
  _atom_site_fract_y
  _atom_site_fract_z
  _atom_site_occupancy
  Zn  Zn1       1.0  0.7728297466418752  0.7464165288638396  0.2515843807586722  1.0000
  Zn  Zn2       1.0  0.2271696706041553  0.2535823837799072  0.7484164442443912  1.0000
  H   H1        1.0  0.4349039034450186  0.7733424871024326  0.34004924890685134  1.0000
  H   H2        1.0  0.5650942319546884  0.2266580153596465  0.659949499755868  1.0000
  H   H3        1.0  0.4710909089782545  0.7159095048246158  0.12700858463873738  1.0000
  H   H4        1.0  0.5289109426495955  0.28408940781913117  0.8729915044364277  1.0000
  H   H5        1.0  0.11091030732187329  0.8288144284634595  0.27567618232684066  1.0000
  H   H6        1.0  0.8890914473228619  0.17118686890779594  0.7243243010263428  1.0000
  H   H7        1.0  0.4467220636914888  0.4009768263883088  0.3967261722971714  1.0000
  H   H8        1.0  0.5532761363636282  0.5990220862554381  0.6032774924212491  1.0000
  H   H9        1.0  0.9168004645884125  0.8268335148174655  0.8679929942199607  1.0000
  H   H10       1.0  0.08320010519312152  0.17316698764461338  0.13200784337361432  1.0000
  H   H11       1.0  0.08233416789520481  0.6136539793058872  0.22005736168964776  1.0000
  H   H12       1.0  0.9176653140062356  0.38634334351952754  0.7799476731544319  1.0000
  H   H13       1.0  0.3457409719915603  0.9234706223386695  0.15997196835142088  1.0000
  H   H14       1.0  0.6542571310804348  0.0765306750325863  0.8400264409275169  1.0000
  H   H15       1.0  0.6573807320815845  0.7701127711539398  0.8212919777836091  1.0000
  H   H16       1.0  0.34262105489085565  0.22988773130814616  0.17870743252397864  1.0000
  H   H17       1.0  0.0899717874911445  0.9126272663816336  0.9018967932142417  1.0000
  H   H18       1.0  0.9100264125639727  0.08737164626211318  0.09810334043073252  1.0000
  H   H19       1.0  0.9075710658041061  0.30391921191738186  0.2801824422978997  1.0000
  H   H20       1.0  0.0924295686328378  0.6960797007263719  0.7198190740632457  1.0000
  H   H21       1.0  0.6423382819419033  0.3564054744444006  0.3325971829287866  1.0000
  H   H22       1.0  0.3576586685945955  0.6435942331085158  0.6674005075449472  1.0000
  H   H23       1.0  0.33014489452626355  0.9682804470329032  0.9670143320509227  1.0000
  H   H24       1.0  0.6698532085457316  0.0317208503383526  0.032985489657392  1.0000
  H   H25       1.0  0.20152503349847004  0.47041373200804765  0.4546544607312554  1.0000
  H   H26       1.0  0.798475600938474  0.5295851806356991  0.5453491742739588  1.0000
  H   H27       1.0  0.1918089369624383  0.6618254748704543  0.42560727693391714  1.0000
  H   H28       1.0  0.8081880135740606  0.3381742326824622  0.5743932383985708  1.0000
  H   H29       1.0  0.42741191755987984  0.7158220648161657  0.9517725935531375  1.0000
  H   H30       1.0  0.5725886845493592  0.2841776427367506  0.04822787720953409  1.0000
  H   H31       1.0  0.13728741290734092  0.4328312214668414  0.2264457006088066  1.0000
  H   H32       1.0  0.8627144710482142  0.5671668962677429  0.7735603775676481  1.0000
  C   C1        1.0  0.6455210167483258  0.960540416466692  0.26185191459816093  1.0000
  C   C2        1.0  0.3544819874150278  0.039460085995394  0.7381453622087548  1.0000
  C   C3        1.0  0.9199148584004108  0.9037624393430832  0.5108158941498646  1.0000
  C   C4        1.0  0.08008449419020282  0.0962380631189959  0.48918354587093665  1.0000
  C   C5        1.0  0.9749327557623957  0.8396617589663293  0.05450844189751087  1.0000
  C   C6        1.0  0.025065444292721395  0.1603371536774176  0.9454923979621556  1.0000
  C   C7        1.0  0.0008364308628259041  0.971869461925209  0.4190109559194114  1.0000
  C   C8        1.0  0.9991605196736729  0.028130245627707492  0.5809874407690147  1.0000
  C   C9        1.0  0.6379242799080558  0.0408090468530347  0.2946670705886731  1.0000
  C   C10       1.0  0.362078627272183  0.959193840336553  0.705329188066891  1.0000
  C   C11       1.0  0.7252774072355095  0.7568703793286886  0.6031363344152895  1.0000
  C   C12       1.0  0.2747244443923478  0.2431285333150583  0.3968630484451836  1.0000
  C   C13       1.0  0.7217431432683911  0.13336509070710179  0.2318379289974928  1.0000
  C   C14       1.0  0.27825604768369777  0.866639386300825  0.7681584016750024  1.0000
  C   C15       1.0  0.611145789690866  0.0779289202586213  0.45349028344782744  1.0000
  C   C16       1.0  0.3888559649538692  0.9220723771126271  0.5465073750466021  1.0000
  C   C17       1.0  0.8382119103507506  0.8081428155565789  0.5222055516011467  1.0000
  C   C18       1.0  0.1617886271030784  0.1918584818146698  0.4777921217498857  1.0000
  C   C19       1.0  0.8632757654988907  0.7631120061137224  0.4530975943839977  1.0000
  C   C20       1.0  0.1367260214735566  0.2368884963483637  0.5469032283529672  1.0000
  C   C21       1.0  0.8274241153171646  0.804427410106605  0.02125726863574342  1.0000
  C   C22       1.0  0.1725764867920674  0.1955722974463185  0.9787439083416131  1.0000
  C   C23       1.0  0.4315044628271778  0.6903134296236431  0.35459788056035535  1.0000
  C   C24       1.0  0.5684924877093209  0.30968627792927345  0.6454012223427554  1.0000
  C   C25       1.0  0.5663465855293096  0.7407027217661833  0.06692196879144068  1.0000
  C   C26       1.0  0.4336552660985475  0.2592961908775635  0.9330795327130943  1.0000
  C   C27       1.0  0.1128028212435339  0.8482141867019592  0.19249850380408873  1.0000
  C   C28       1.0  0.8871977162102951  0.15178711066928938  0.8075005819763278  1.0000
  C   C29       1.0  0.5711848172362722  0.5499038538721024  0.33932392436780395  1.0000
  C   C30       1.0  0.42881335049114  0.4500958536808142  0.660676576108081  1.0000
  C   C31       1.0  0.5509737036405012  0.05438053107372549  0.5530452606736773  1.0000
  C   C32       1.0  0.4490293005228523  0.9456199713883606  0.4469527223479303  1.0000
  C   C33       1.0  0.44083699475342547  0.4828930110322814  0.38595440693502076  1.0000
  C   C34       1.0  0.5591600204384832  0.5171051067023029  0.6140474933797293  1.0000
  C   C35       1.0  0.8145915105410638  0.8043018144580998  0.9228277533879777  1.0000
  C   C36       1.0  0.1854103410867936  0.19569709818564715  0.07717445433124946  1.0000
  C   C37       1.0  0.9884886176787475  0.5538935029849483  0.24551734437267922  1.0000
  C   C38       1.0  0.011512016758189204  0.44610540965879847  0.7544855844178429  1.0000
  C   C39       1.0  0.5650156044293341  0.0232741455220307  0.3956418285866974  1.0000
  C   C40       1.0  0.4349849653522  0.9767263569400555  0.6043554779334316  1.0000
  C   C41       1.0  0.9234274130552222  0.9369308192758792  0.5912098358130964  1.0000
  C   C42       1.0  0.07656956980898141  0.0630680933678676  0.40879031268849536  1.0000
  C   C43       1.0  0.7237810150396555  0.5127458248264603  0.30650181422915074  1.0000
  C   C44       1.0  0.2762159678245553  0.4872530878172866  0.6934990404871186  1.0000
  C   C45       1.0  0.2418973007349265  0.9014484587558156  0.12761594451929184  1.0000
  C   C46       1.0  0.7581044539098087  0.09855283861543279  0.8723824201898296  1.0000
  C   C47       1.0  0.6702882650388204  0.7715086316524802  0.8971733753670535  1.0000
  C   C48       1.0  0.32971115220721  0.2284902809912737  0.10282815585070183  1.0000
  C   C49       1.0  0.09902295636980088  0.8942171700569546  0.984417590426425  1.0000
  C   C50       1.0  0.9009764285485248  0.10578253749596198  0.015582895192856905  1.0000
  C   C51       1.0  0.8918672307455395  0.3818171307184599  0.27992041738058765  1.0000
  C   C52       1.0  0.108132154172786  0.6181825768344567  0.7200814806680642  1.0000
  C   C53       1.0  0.7426613681032066  0.4113019015679811  0.30962862571404776  1.0000
  C   C54       1.0  0.25733679962420547  0.5886978059849354  0.6903711685471451  1.0000
  C   C55       1.0  0.23380495763282738  0.9250143359424072  0.021443907269613885  1.0000
  C   C56       1.0  0.7661943949577933  0.07498616651967889  0.9785555327511873  1.0000
  C   C57       1.0  0.302952407291464  0.5223697901201945  0.41742926514477585  1.0000
  C   C58       1.0  0.6970445432450347  0.477629917432722  0.5825726626170892  1.0000
  C   C59       1.0  0.29776958315218854  0.6281117872485992  0.4020600904439463  1.0000
  C   C60       1.0  0.7022286169029285  0.3718871253951477  0.5979407494157202  1.0000
  C   C61       1.0  0.5429305624811533  0.7397377020365568  0.9701774708928494  1.0000
  C   C62       1.0  0.45707010428348843  0.2602604156980277  0.029823678637399095  1.0000
  C   C63       1.0  0.018078840112068003  0.4538851856833972  0.2481704166832444  1.0000
  C   C64       1.0  0.9819230115157894  0.5461137269603569  0.7518339096800518  1.0000
  N   N1        1.0  0.9829799533491724  0.8181936470733859  0.15712192569080943  1.0000
  N   N2        1.0  0.017021865950972905  0.18180606047953055  0.8428785302152519  1.0000
  N   N3        1.0  0.883608589665478  0.7222965999873452  0.39568480333500844  1.0000
  N   N4        1.0  0.11639697819052942  0.2777007228380696  0.6043138012938414  1.0000
  N   N5        1.0  0.704786598172987  0.7716707931226948  0.09224513290294574  1.0000
  N   N6        1.0  0.29521525345487015  0.22832811952105198  0.9077542499575275  1.0000
  N   N7        1.0  0.7928073847246466  0.20942199987571533  0.17621337454728095  1.0000
  N   N8        1.0  0.2071906213642336  0.790581682223042  0.8237826041509139  1.0000
  N   N9        1.0  0.8454302019226605  0.5828838403321441  0.27357231324391773  1.0000
  N   N10       1.0  0.1545692476510752  0.4171142774024403  0.7264288511429343  1.0000
  N   N11       1.0  0.5643226439452533  0.6524940361504503  0.32392204470732383  1.0000
  N   N12       1.0  0.4356755237821588  0.34750567140246597  0.6760770433391841  1.0000
  N   N13       1.0  0.6515633495180921  0.8926551735423656  0.23294424776693756  1.0000
  N   N14       1.0  0.3484371556080248  0.10734691873805959  0.7670566172737596  1.0000
  N   N15       1.0  0.6299714103722351  0.7118848797083928  0.6697190212905184  1.0000
  N   N16       1.0  0.3700329079651539  0.28811323802619165  0.33028208366990713  1.0000
  F   F1        1.0  0.7238220605515551  0.15470601713320056  0.4138021065870348  1.0000
  F   F2        1.0  0.2761771950559435  0.8452968700563871  0.5861949028530304  1.0000
  F   F3        1.0  0.006367976381206113  0.9496461863229226  0.33425971398949644  1.0000
  F   F4        1.0  0.9936276923089692  0.050355111048332894  0.6657387250026475  1.0000
  F   F5        1.0  0.8520435736158875  0.8770829029464904  0.6851895315177431  1.0000
  F   F6        1.0  0.1479558113024311  0.12291680460642597  0.3148088354574697  1.0000
  F   F7        1.0  0.6133978951418088  0.1090782309053751  0.6034695676664228  1.0000
  F   F8        1.0  0.3866051413492499  0.8909214766475414  0.39653087338303566  1.0000
