data_image0
_chemical_formula_structural       Al6H62C100N4O28
_chemical_formula_sum              "Al6 H62 C100 N4 O28"
_cell_length_a       12.231649486073845
_cell_length_b       12.411471441398726
_cell_length_c       27.929330721865874
_cell_angle_alpha    85.83324345171829
_cell_angle_beta     89.86523391286032
_cell_angle_gamma    58.47913150021737

_space_group_name_H-M_alt    "P 1"
_space_group_IT_number       1

loop_
  _space_group_symop_operation_xyz
  'x, y, z'

loop_
  _atom_site_type_symbol
  _atom_site_label
  _atom_site_symmetry_multiplicity
  _atom_site_fract_x
  _atom_site_fract_y
  _atom_site_fract_z
  _atom_site_occupancy
  Al  Al1       1.0  0.5828781711425249  0.8154323636132476  0.5026093824137874  1.0000
  Al  Al2       1.0  0.3272744508381535  0.0913950862046207  0.4979447179551072  1.0000
  Al  Al3       1.0  0.5812526181391463  0.074893229429378  0.4969579578470514  1.0000
  Al  Al4       1.0  0.08430639882375596  0.8415817006552332  0.9924145814442508  1.0000
  Al  Al5       1.0  0.08772601932274433  0.5813575979530866  0.9958147771360115  1.0000
  Al  Al6       1.0  0.34083009614538173  0.5653937224674195  0.9959323951190054  1.0000
  H   H1        1.0  0.1588012365078342  0.42611553978615296  0.6939521429514385  1.0000
  H   H2        1.0  0.4837919607392181  0.5332398953757789  0.6884433320738166  1.0000
  H   H3        1.0  0.44866816621620836  0.6855015769830217  0.6176767155751718  1.0000
  H   H4        1.0  0.12880903665583088  0.3867770760404738  0.12433694666252386  1.0000
  H   H5        1.0  0.17984453326660343  0.2656751049924111  0.3668662984125603  1.0000
  H   H6        1.0  0.046727313764009196  0.3412886411886902  0.20038891799086395  1.0000
  H   H7        1.0  0.06452575555483259  0.29993306547528675  0.28908145707375604  1.0000
  H   H8        1.0  0.47294875248539364  0.3998497068599036  0.1284139756473621  1.0000
  H   H9        1.0  0.5909468129104453  0.36289891084636855  0.20537454778229147  1.0000
  H   H10       1.0  0.5283988933790623  0.2652418321409442  0.3719235683491887  1.0000
  H   H11       1.0  0.7833341648255472  0.6995848983400634  0.3003322885353866  1.0000
  H   H12       1.0  0.9327065277557977  0.04433256175171607  0.776621573069377  1.0000
  H   H13       1.0  0.8656060893897435  0.9972527678333593  0.28157582259573377  1.0000
  H   H14       1.0  0.20894014345517323  0.0510792384203853  0.26401314023785  1.0000
  H   H15       1.0  0.22707463762004193  0.9946799077509428  0.17943022382075915  1.0000
  H   H16       1.0  0.46560410026310706  0.5983657113933631  0.2278571835742936  1.0000
  H   H17       1.0  0.44899969338646883  0.6546703500544951  0.31259431308502866  1.0000
  H   H18       1.0  0.5689817162115389  0.1782980290307563  0.7162075900258953  1.0000
  H   H19       1.0  0.8569614283649044  0.65266085393052  0.8769636652900911  1.0000
  H   H20       1.0  0.700617788716457  0.7275502386451791  0.6391407760203122  1.0000
  H   H21       1.0  0.689962617488014  0.6450618940928764  0.7214216772745131  1.0000
  H   H22       1.0  0.9458921042618657  0.9434070167891093  0.8577501097794947  1.0000
  H   H23       1.0  0.7763439582506636  0.027590488340244693  0.6199034641311341  1.0000
  H   H24       1.0  0.8933042712302568  0.1529515043165119  0.7042749701637516  1.0000
  H   H25       1.0  0.06830263521666777  0.9901358489657781  0.6595107259493815  1.0000
  H   H26       1.0  0.9633391259892009  0.1369312310872957  0.6251511371454866  1.0000
  H   H27       1.0  0.9476069386835492  0.004370422563582093  0.6196807781397949  1.0000
  H   H28       1.0  0.04314871927606842  0.3317982301208033  0.7821398335442638  1.0000
  H   H29       1.0  0.1178508195426673  0.3209819606145388  0.8385639149317469  1.0000
  H   H30       1.0  0.9562115390292905  0.44485395706612246  0.824231164951328  1.0000
  H   H31       1.0  0.09988078792719789  0.5305871798705438  0.8141201415498782  1.0000
  H   H32       1.0  0.0305944410769072  0.536441320800023  0.7578452871254624  1.0000
  H   H33       1.0  0.6315909497607705  0.3035588141072481  0.33679959317031205  1.0000
  H   H34       1.0  0.2112265892705667  0.9720963204937618  0.8728848908908516  1.0000
  H   H35       1.0  0.7881757318082522  0.3375073983282064  0.3105059460415659  1.0000
  H   H36       1.0  0.6609386622910449  0.45720225106536827  0.27115549095214664  1.0000
  H   H37       1.0  0.7699919356535004  0.3049918524143465  0.25129185121920716  1.0000
  H   H38       1.0  0.5795051319930806  0.3495037198083679  0.8378375826679444  1.0000
  H   H39       1.0  0.7318903633413784  0.20722528998735606  0.8439775888797314  1.0000
  H   H40       1.0  0.6713438563175844  0.28896163311070205  0.786070785776978  1.0000
  H   H41       1.0  0.5566979460018971  0.1603194244060901  0.8486316763895869  1.0000
  H   H42       1.0  0.6525531782342783  0.0951863232300809  0.7989460699779868  1.0000
  H   H43       1.0  0.8284670593156206  0.63883026150652  0.17162705836930303  1.0000
  H   H44       1.0  0.7757648999241056  0.5020277543712055  0.20901566642709202  1.0000
  H   H45       1.0  0.24871401074602767  0.08552374342549028  0.6337106938390988  1.0000
  H   H46       1.0  0.6817583189128766  0.62277740259119  0.24786907201416133  1.0000
  H   H47       1.0  0.8463125072440082  0.5078747049447898  0.263764033049739  1.0000
  H   H48       1.0  0.818112059146614  0.15912257330601426  0.21412732638543014  1.0000
  H   H49       1.0  0.9808864842865646  0.0599876341910388  0.23539181578379234  1.0000
  H   H50       1.0  0.9444966639592351  0.13712104583110124  0.17638784571216348  1.0000
  H   H51       1.0  0.014177700887252327  0.9106139568365634  0.17170225994517804  1.0000
  H   H52       1.0  0.856122664974464  0.011045807362066298  0.15036745738335358  1.0000
  H   H53       1.0  0.700359121959181  0.5574555394895739  0.7956612991187979  1.0000
  H   H54       1.0  0.6360283017005913  0.5774344340897102  0.8742004812883762  1.0000
  H   H55       1.0  0.5480422189976651  0.7337181434842038  0.8447683949720142  1.0000
  H   H56       1.0  0.17292101891878528  0.12401285778136643  0.8020831957836092  1.0000
  H   H57       1.0  0.6845986371971621  0.6863700834063025  0.8828488465383939  1.0000
  H   H58       1.0  0.18753484218120778  0.1656693731830075  0.7150287423296291  1.0000
  H   H59       1.0  0.4036721996425213  0.5726205409646783  0.8565936128713502  1.0000
  H   H60       1.0  0.4655663998112944  0.49269041100769323  0.7751038181830407  1.0000
  H   H61       1.0  0.7066634225862174  0.6105265654294029  0.4779772841179194  1.0000
  H   H62       1.0  0.0231017195091496  0.049470399862094894  0.9657100901402698  1.0000
  C   C1        1.0  0.36239762770068745  0.9126861525387115  0.5693924294190467  1.0000
  C   C2        1.0  0.7555668854915824  0.7746810362558634  0.7046798574829862  1.0000
  C   C3        1.0  0.6447380889616455  0.654123825004497  0.8563414714053647  1.0000
  C   C4        1.0  0.8099375196144364  0.7498007742642159  0.805362027786536  1.0000
  C   C5        1.0  0.3948097991384785  0.22779611281623596  0.5598326681873045  1.0000
  C   C6        1.0  0.7534875735601574  0.6838635522598722  0.7856446106371135  1.0000
  C   C7        1.0  0.7317041648514717  0.6949285111081664  0.7366639549008127  1.0000
  C   C8        1.0  0.8547131123525845  0.7273661861424897  0.8533486948319717  1.0000
  C   C9        1.0  0.9022719300859592  0.7976144718705314  0.8715675143870526  1.0000
  C   C10       1.0  0.7778832130108952  0.9538740944491695  0.6439175272844223  1.0000
  C   C11       1.0  0.8139223910594852  0.9384395561269372  0.6926842364838705  1.0000
  C   C12       1.0  0.7994763431443916  0.8501481459218426  0.723876536875181  1.0000
  C   C13       1.0  0.4649122524395821  0.2523053083294329  0.7800699957463662  1.0000
  C   C14       1.0  0.8630396838167017  0.010326439957317692  0.7128569452984834  1.0000
  C   C15       1.0  0.8920977888523186  0.9933907989931116  0.7614399909427048  1.0000
  C   C16       1.0  0.8752706911271062  0.9081521275549491  0.7931219902631452  1.0000
  C   C17       1.0  0.7051371762405053  0.8911697377269692  0.5732851551435373  1.0000
  C   C18       1.0  0.8266016684636384  0.8364571194676818  0.7741028910060805  1.0000
  C   C19       1.0  0.9092328025584632  0.8897406348449837  0.8422171220757801  1.0000
  C   C20       1.0  0.7411566113291174  0.8754524357088158  0.6251623636975623  1.0000
  C   C21       1.0  0.2883563483792032  0.9892335602474631  0.6501440036981733  1.0000
  C   C22       1.0  0.2817252169091022  0.9677230632284403  0.699781120470206  1.0000
  C   C23       1.0  0.2648851507585378  0.9200400573828348  0.8002246034796981  1.0000
  C   C24       1.0  0.47515248965302  0.2392026463540091  0.7308088196193124  1.0000
  C   C25       1.0  0.2160490977639569  0.04627381562680451  0.7788227286909545  1.0000
  C   C26       1.0  0.22406444107852508  0.0691922577826958  0.7307601468819056  1.0000
  C   C27       1.0  0.2568268490146578  0.894787005209537  0.8494634279605078  1.0000
  C   C28       1.0  0.30820822544268367  0.7701537917419119  0.8693962412491911  1.0000
  C   C29       1.0  0.3615018647056373  0.9194841385834638  0.43139041685913765  1.0000
  C   C30       1.0  0.400588984755295  0.762705783990782  0.6410496832954137  1.0000
  C   C31       1.0  0.39161785687561973  0.7375122765754369  0.6901932934674732  1.0000
  C   C32       1.0  0.3322881371101758  0.8406768766756655  0.7202001102089141  1.0000
  C   C33       1.0  0.4399922182741206  0.6113098857267333  0.7116081477685936  1.0000
  C   C34       1.0  0.4302336105301592  0.5888279998688759  0.7595635383448991  1.0000
  C   C35       1.0  0.36510827679477126  0.3017900528480054  0.6996021461410818  1.0000
  C   C36       1.0  0.37283646540653603  0.6901104083457098  0.7906360401370092  1.0000
  C   C37       1.0  0.32351019571760287  0.8169385864166758  0.7702246735176458  1.0000
  C   C38       1.0  0.3652075558213852  0.6687765376736365  0.8402349731680372  1.0000
  C   C39       1.0  0.3474554031129956  0.8876305954381962  0.6211839833941892  1.0000
  C   C40       1.0  0.25033896094514313  0.2787515115955514  0.3476702615183668  1.0000
  C   C41       1.0  0.37461769764139774  0.2274567775215033  0.42566477491903487  1.0000
  C   C42       1.0  0.23950930094040507  0.3027498037681369  0.2975238945232234  1.0000
  C   C43       1.0  0.21907503595432595  0.35076555729965964  0.19532091355769404  1.0000
  C   C44       1.0  0.12612353475999066  0.3345848222987797  0.22097736052636205  1.0000
  C   C45       1.0  0.13579303484298322  0.31192412995076074  0.26983054611235957  1.0000
  C   C46       1.0  0.3414425426260125  0.3309136542719173  0.7981979767732951  1.0000
  C   C47       1.0  0.20917368282466953  0.37689871649435974  0.14523516911522447  1.0000
  C   C48       1.0  0.30116743691760217  0.393860876355383  0.12176568640457217  1.0000
  C   C49       1.0  0.4481327729110234  0.2800196126688235  0.34953312904770667  1.0000
  C   C50       1.0  0.4402499135320923  0.3059623515118517  0.2997064951780643  1.0000
  C   C51       1.0  0.33467053949284054  0.3170992544863083  0.2729038277212864  1.0000
  C   C52       1.0  0.5356477531212818  0.3221743104579248  0.27434045687259356  1.0000
  C   C53       1.0  0.7260015253977414  0.9018297429589028  0.433920016187386  1.0000
  C   C54       1.0  0.5212469153671436  0.34949646278776914  0.225039419810784  1.0000
  C   C55       1.0  0.4177648860239955  0.3582258910474962  0.19789670143507712  1.0000
  C   C56       1.0  0.3236286654751693  0.3416175184413888  0.22206084544981752  1.0000
  C   C57       1.0  0.32867163240926084  0.3492303446171761  0.8477956547139269  1.0000
  C   C58       1.0  0.4041763269894005  0.3843471238834297  0.14774683597975263  1.0000
  C   C59       1.0  0.35424567477689106  0.26724402275893777  0.3734333479154443  1.0000
  C   C60       1.0  0.7770573866640264  0.880468193951934  0.3869300767717191  1.0000
  C   C61       1.0  0.8091264661481576  0.755323602010236  0.2764348374463594  1.0000
  C   C62       1.0  0.8278010938997867  0.7348613936348798  0.22752774740006734  1.0000
  C   C63       1.0  0.8764956887041042  0.9059201857048435  0.21712878118552228  1.0000
  C   C64       1.0  0.8562971794819422  0.924888493996015  0.2656139937690369  1.0000
  C   C65       1.0  0.3768969409746318  0.2718005298760104  0.606904897593523  1.0000
  C   C66       1.0  0.8227713342264877  0.8498560067515797  0.2951495909410367  1.0000
  C   C67       1.0  0.8604953848419328  0.812000963276752  0.1979278022751813  1.0000
  C   C68       1.0  0.374050887484536  0.285690258185369  0.6497889760673912  1.0000
  C   C69       1.0  0.8788376238084298  0.7926215538142288  0.14903305425678326  1.0000
  C   C70       1.0  0.800060370895757  0.868850107654154  0.3444570416927845  1.0000
  C   C71       1.0  0.895590706072262  0.7777574006521918  0.10625511522425765  1.0000
  C   C72       1.0  0.32650433492376874  0.9052731264984716  0.3840913879876736  1.0000
  C   C73       1.0  0.264860525352418  0.9521673982056883  0.25595865290252107  1.0000
  C   C74       1.0  0.27565004302128665  0.9210090982681012  0.20879620736409513  1.0000
  C   C75       1.0  0.4112216699129547  0.6972454470551669  0.23602742908405352  1.0000
  C   C76       1.0  0.40083508272266505  0.7283850905598896  0.2831805464932414  1.0000
  C   C77       1.0  0.2433037623222703  0.37848715004653843  0.7183982088021421  1.0000
  C   C78       1.0  0.3276566081011938  0.856450737961971  0.2939066591005356  1.0000
  C   C79       1.0  0.3139776570462515  0.36965772239594946  0.8901587151085975  1.0000
  C   C80       1.0  0.3493331257489841  0.7930638437053262  0.19806563396343072  1.0000
  C   C81       1.0  0.35591960650617  0.7636668829241556  0.14977866409216734  1.0000
  C   C82       1.0  0.32215704768587017  0.8862377838332807  0.3421075811828373  1.0000
  C   C83       1.0  0.3522594686542603  0.7460356602983397  0.10757547623231996  1.0000
  C   C84       1.0  0.9532022052682267  0.7703135080428964  0.9219934426138747  1.0000
  C   C85       1.0  0.28555388410347854  0.4215790160410222  0.9358696528749842  1.0000
  C   C86       1.0  0.2969489413156551  0.7454362177367673  0.9216600408227791  1.0000
  C   C87       1.0  0.9448319304905727  0.7565916035934566  0.059195475217968876  1.0000
  C   C88       1.0  0.2838750990991414  0.4341220717483196  0.06946709904466528  1.0000
  C   C89       1.0  0.22940203911818463  0.3941070526233689  0.7672612795407047  1.0000
  C   C90       1.0  0.731302787249177  0.7857270720599702  0.6549786897856007  1.0000
  C   C91       1.0  0.31509419365882957  0.7337585487489022  0.06037888850455177  1.0000
  C   C92       1.0  0.9691643940708445  0.054449932281009694  0.6450703901467774  1.0000
  C   C93       1.0  0.09835230000538077  0.47150245674338725  0.7869656564177843  1.0000
  C   C94       1.0  0.05115088774921618  0.3871491218723548  0.8094368712667046  1.0000
  C   C95       1.0  0.7173314358964336  0.3548082832173166  0.2823311361145144  1.0000
  C   C96       1.0  0.5822668270253147  0.1846692168878619  0.8134483963874429  1.0000
  C   C97       1.0  0.6447353330053005  0.2624264400540284  0.8206210371417624  1.0000
  C   C98       1.0  0.7780849869794364  0.5659539169449063  0.23347993021369004  1.0000
  C   C99       1.0  0.9172496971974199  0.9782937662692675  0.18354442462273815  1.0000
  C   C100      1.0  0.9153951332134724  0.0897486232259368  0.20369642960424975  1.0000
  N   N1        1.0  0.8760853792712805  0.09905844493341225  0.6833419936094671  1.0000
  N   N2        1.0  0.6373169911319747  0.3088412909360941  0.30068693668327023  1.0000
  N   N3        1.0  0.816294050564494  0.6444616230086596  0.20748523973412594  1.0000
  N   N4        1.0  0.7289189098743801  0.6043816370677959  0.8157685710482167  1.0000
  O   O1        1.0  0.6762871206746367  0.8154677115536799  0.5579969339814566  1.0000
  O   O2        1.0  0.3706769813608162  0.4349423450014598  0.9564172763302136  1.0000
  O   O3        1.0  0.3778482389542004  0.6327425528518943  0.9408909832254079  1.0000
  O   O4        1.0  0.45489091011307187  0.8264199898332478  0.5484712788687176  1.0000
  O   O5        1.0  0.2010657568269422  0.8155933159777081  0.04660822646569326  1.0000
  O   O6        1.0  0.970581701722566  0.835754041742554  0.040017260253854686  1.0000
  O   O7        1.0  0.9638001155855561  0.6553862816385987  0.04097693448043319  1.0000
  O   O8        1.0  0.18270552333402176  0.45467895034639133  0.04703677108036427  1.0000
  O   O9        1.0  0.3685768159670175  0.45269239071046036  0.050276687030112996  1.0000
  O   O10       1.0  0.39708085051857733  0.6400603725175316  0.036987417002983095  1.0000
  O   O11       1.0  0.1723229583349023  0.6607076869477879  0.9945503795022501  1.0000
  O   O12       1.0  0.28874000245484405  0.21358277951460994  0.4466667726580268  1.0000
  O   O13       1.0  0.2810308987806636  0.025169615277171403  0.5497571810767141  1.0000
  O   O14       1.0  0.30828480328130337  0.21276570787990326  0.5417418165898411  1.0000
  O   O15       1.0  0.5008208238566354  0.19980468791344924  0.5405403608288779  1.0000
  O   O16       1.0  0.7021809680962362  0.9830798150439223  0.5471614875298484  1.0000
  O   O17       1.0  0.7026282807345082  0.8220005848227036  0.4541353126276275  1.0000
  O   O18       1.0  0.47454344000492915  0.8367765894503875  0.44633134069184865  1.0000
  O   O19       1.0  0.27898936135913033  0.015081897813537595  0.45359741671401094  1.0000
  O   O20       1.0  0.4796556783244981  0.20221394583444408  0.4461018265215556  1.0000
  O   O21       1.0  0.7025189470136655  0.00602260082053619  0.45105491074879456  1.0000
  O   O22       1.0  0.4957156931496839  0.9963599036831144  0.4985849562122409  1.0000
  O   O23       1.0  0.2079117582848724  0.8331933119190894  0.943472762328099  1.0000
  O   O24       1.0  0.9838377038798286  0.8440502436409292  0.9379508990306886  1.0000
  O   O25       1.0  0.966392767788676  0.6705082787570263  0.945733150612156  1.0000
  O   O26       1.0  0.17403395613099804  0.4572819117023386  0.9515505981598407  1.0000
  O   O27       1.0  0.6624717081353638  0.6494583837875537  0.5063399738509771  1.0000
  O   O28       1.0  0.004823912828527505  0.007291380103360692  0.9921182429074802  1.0000
