data_image0
_chemical_formula_structural       CoH28C26N4Cl2O8
_chemical_formula_sum              "Co1 H28 C26 N4 Cl2 O8"
_cell_length_a       8.908226847313593
_cell_length_b       10.396306330560085
_cell_length_c       11.42065681402333
_cell_angle_alpha    109.81356627936697
_cell_angle_beta     91.03889896038892
_cell_angle_gamma    113.99858083874356

_space_group_name_H-M_alt    "P 1"
_space_group_IT_number       1

loop_
  _space_group_symop_operation_xyz
  'x, y, z'

loop_
  _atom_site_type_symbol
  _atom_site_label
  _atom_site_symmetry_multiplicity
  _atom_site_fract_x
  _atom_site_fract_y
  _atom_site_fract_z
  _atom_site_occupancy
  Co  Co1       1.0  0.5000012459770032  0.49999729866525666  0.4999992731261499  1.0000
  H   H1        1.0  0.055404750962175356  0.90236017285433  0.6633332166457037  1.0000
  H   H2        1.0  0.9446029474262045  0.09764355529788558  0.33667086087779546  1.0000
  H   H3        1.0  0.9353971721425725  0.005548222288425109  0.7096636833333035  1.0000
  H   H4        1.0  0.06459835260861987  0.9944483357287056  0.2903380492680583  1.0000
  H   H5        1.0  0.26951888528029133  0.07164883687027408  0.8551063261719276  1.0000
  H   H6        1.0  0.7304861071976417  0.9283615048847338  0.14489717666680943  1.0000
  H   H7        1.0  0.07090972183431188  0.9927741284033691  0.8944450606058607  1.0000
  H   H8        1.0  0.9290951605486129  0.007238435009327289  0.10556176487862248  1.0000
  H   H9        1.0  0.24527207770368875  0.3132746567599511  0.8889558160806812  1.0000
  H   H10       1.0  0.7547313768801516  0.6867322828132459  0.11104398086398959  1.0000
  H   H11       1.0  0.04340855741258309  0.2350750995368429  0.9245754997804383  1.0000
  H   H12       1.0  0.9565980830544518  0.764936422742288  0.07542838630661919  1.0000
  H   H13       1.0  0.1440380373824084  0.37716550868576354  0.5341714313839175  1.0000
  H   H14       1.0  0.8559651045879021  0.622838039549059  0.465834304806762  1.0000
  H   H15       1.0  0.9691965067306823  0.19122883263245433  0.6197947160843356  1.0000
  H   H16       1.0  0.03080830302508279  0.8087859375962266  0.38021980587495097  1.0000
  H   H17       1.0  0.38267142664420817  0.08282134000997843  0.6590049479171113  1.0000
  H   H18       1.0  0.6173223175421754  0.9171762680457293  0.3409970997842393  1.0000
  H   H19       1.0  0.5421987289991036  0.2735251676122132  0.5710783926871911  1.0000
  H   H20       1.0  0.4577929721553887  0.726467901232745  0.4289195885878882  1.0000
  H   H21       1.0  0.6039220429138012  0.3946756729457305  0.259361490135923  1.0000
  H   H22       1.0  0.3960841502391119  0.6053145907765513  0.7406366023339146  1.0000
  H   H23       1.0  0.4844935283423195  0.29696380055193566  0.032192617484724885  1.0000
  H   H24       1.0  0.5155184862941057  0.7030524300119082  0.9678040312213553  1.0000
  H   H25       1.0  0.0241409290275527  0.2973406276012724  0.14538434102454534  1.0000
  H   H26       1.0  0.97586714941648  0.7026664651742608  0.8546216701452776  1.0000
  H   H27       1.0  0.16209343265134632  0.39874544946562207  0.36571837217830694  1.0000
  H   H28       1.0  0.837916108934749  0.6012471545265259  0.6342866101488625  1.0000
  C   C1        1.0  0.06365282441567639  0.016362189115703498  0.7139397057884336  1.0000
  C   C2        1.0  0.9363502800867848  0.9836413739608216  0.2860616565731745  1.0000
  C   C3        1.0  0.14664680010758957  0.0730762538396164  0.852329249983292  1.0000
  C   C4        1.0  0.8533537535408441  0.9269316833719687  0.1476734636426968  1.0000
  C   C5        1.0  0.16607508720551323  0.23351768441434473  0.9307094046915834  1.0000
  C   C6        1.0  0.8339321535071774  0.7664927591727279  0.06928976975030567  1.0000
  C   C7        1.0  0.1925305757731479  0.3082651564177254  0.5602055328971146  1.0000
  C   C8        1.0  0.8074635409753126  0.691735819229642  0.43979757368473565  1.0000
  C   C9        1.0  0.0956570315179306  0.20449621317951033  0.6109959452767412  1.0000
  C   C10       1.0  0.9043404036894384  0.7955071146110769  0.3890105520991938  1.0000
  C   C11       1.0  0.16041682045352698  0.1207742728840699  0.6500859327390174  1.0000
  C   C12       1.0  0.8395790693661808  0.8792256556930483  0.3499159839770413  1.0000
  C   C13       1.0  0.3238351418861568  0.14513069879570392  0.6326862829496206  1.0000
  C   C14       1.0  0.6761536658264972  0.8548633647193071  0.36731548977258643  1.0000
  C   C15       1.0  0.414219190254677  0.2509358146360654  0.5820213113523067  1.0000
  C   C16       1.0  0.5857852847826662  0.7490633456519193  0.4179743031997419  1.0000
  C   C17       1.0  0.4758645522754462  0.371284166007861  0.229728310582125  1.0000
  C   C18       1.0  0.5241366267837079  0.6287126332318849  0.7702665374732829  1.0000
  C   C19       1.0  0.4073896234304186  0.3167346172468655  0.10294427834897844  1.0000
  C   C20       1.0  0.5926244968707974  0.6832760784062516  0.8970576566870249  1.0000
  C   C21       1.0  0.24236895341113032  0.2891906661884107  0.06699754154598027  1.0000
  C   C22       1.0  0.7576320978815331  0.7108184110204618  0.9330046578464032  1.0000
  C   C23       1.0  0.15335740794510846  0.3165825712825523  0.16461198535593977  1.0000
  C   C24       1.0  0.8466543192428446  0.6834202086631294  0.8353874486707296  1.0000
  C   C25       1.0  0.2295610164739159  0.3721324882602772  0.2900268092601408  1.0000
  C   C26       1.0  0.7704472122173129  0.627862317641096  0.709974474870151  1.0000
  N   N1        1.0  0.35119770941873435  0.3335082923686982  0.54634732577761  1.0000
  N   N2        1.0  0.6488046499595653  0.6664885355245146  0.4536519188229845  1.0000
  N   N3        1.0  0.38923364140621425  0.4003867015155365  0.32359778575889203  1.0000
  N   N4        1.0  0.6107712613325446  0.599605755210959  0.676399232811512  1.0000
  Cl  Cl1       1.0  0.2734415015676248  0.7436856426143166  0.6103805642192838  1.0000
  Cl  Cl2       1.0  0.7265393889909928  0.256295856275358  0.3896084495582882  1.0000
  O   O1        1.0  0.3069433830416912  0.6090612585527355  0.5519254340084672  1.0000
  O   O2        1.0  0.6930423413892158  0.3909260035669888  0.4480680521598046  1.0000
  O   O3        1.0  0.22613600969921077  0.7832930398798157  0.5093528421490773  1.0000
  O   O4        1.0  0.7738870485853652  0.21671021360607767  0.4906354470831359  1.0000
  O   O5        1.0  0.13671486145803155  0.7018126816485264  0.679139563896136  1.0000
  O   O6        1.0  0.863235127529833  0.2981554331740384  0.3208213655957408  1.0000
  O   O7        1.0  0.42302874450560063  0.8696206064531894  0.6962609302388997  1.0000
  O   O8        1.0  0.5769328574580044  0.1303522263461474  0.30375410905951833  1.0000
