data_image0
_chemical_formula_structural       Cd2H38C40S2N10O14
_chemical_formula_sum              "Cd2 H38 C40 S2 N10 O14"
_cell_length_a       10.280618540630789
_cell_length_b       10.237278654906278
_cell_length_c       11.735753018604374
_cell_angle_alpha    102.29584350325722
_cell_angle_beta     110.87748538287187
_cell_angle_gamma    101.95370915819038

_space_group_name_H-M_alt    "P 1"
_space_group_IT_number       1

loop_
  _space_group_symop_operation_xyz
  'x, y, z'

loop_
  _atom_site_type_symbol
  _atom_site_label
  _atom_site_symmetry_multiplicity
  _atom_site_fract_x
  _atom_site_fract_y
  _atom_site_fract_z
  _atom_site_occupancy
  Cd  Cd1       1.0  0.03568046778116241  0.3779157456401521  0.37866576429391335  1.0000
  Cd  Cd2       1.0  0.9643200284516381  0.6220838824859031  0.6213357638170862  1.0000
  H   H1        1.0  0.5751214003464254  0.43687757512159225  0.05709241583607401  1.0000
  H   H2        1.0  0.4248846375749196  0.5631231200629188  0.9429119126705462  1.0000
  H   H3        1.0  0.2977765554142522  0.40062163683042945  0.021385210345435723  1.0000
  H   H4        1.0  0.7022267249850671  0.5993801464026164  0.9786133459828861  1.0000
  H   H5        1.0  0.07599847742894644  0.8372710901154932  0.26647626142509756  1.0000
  H   H6        1.0  0.9240030732561093  0.16272855980018622  0.7335238984283734  1.0000
  H   H7        1.0  0.2654695051690084  0.2900470522335397  0.7497185648291236  1.0000
  H   H8        1.0  0.7345251384326656  0.7099504912824486  0.250276461656874  1.0000
  H   H9        1.0  0.17149399615409067  0.6856341274111982  0.3447431091374114  1.0000
  H   H10       1.0  0.8285065060094678  0.3143655092064749  0.6552575703373194  1.0000
  H   H11       1.0  0.2640601189641743  0.7168913168646114  0.5116693974787767  1.0000
  H   H12       1.0  0.7359397138681417  0.28310621671693076  0.48833066862731317  1.0000
  H   H13       1.0  0.4331703169014459  0.6920283386500045  0.406439961177071  1.0000
  H   H14       1.0  0.5668288080057523  0.30797024164320425  0.5935600825983371  1.0000
  H   H15       1.0  0.4936330656087976  0.8657854546392446  0.513243229135199  1.0000
  H   H16       1.0  0.5063660592984006  0.13421312565395738  0.4867568146402023  1.0000
  H   H17       1.0  0.40248322528065467  0.8326184887068279  0.34439866492219545  1.0000
  H   H18       1.0  0.5975169422172825  0.16738009639277612  0.6556017078682146  1.0000
  H   H19       1.0  0.5054708038939566  0.8261059550775512  0.7865135717531686  1.0000
  H   H20       1.0  0.4945296774680158  0.17389685676274522  0.2134851528507298  1.0000
  H   H21       1.0  0.617691687081681  0.8799641298067654  0.9548669340471179  1.0000
  H   H22       1.0  0.3823074110931728  0.12003761721745583  0.04513200349371968  1.0000
  H   H23       1.0  0.7756680265469597  0.8613510507803424  0.8394757110508381  1.0000
  H   H24       1.0  0.22433040229664414  0.13864859320775486  0.16052261312135135  1.0000
  H   H25       1.0  0.7028269794612497  0.9716161089554588  0.7513468770256965  1.0000
  H   H26       1.0  0.2971738632986884  0.028384587671887094  0.2486532604970932  1.0000
  H   H27       1.0  0.7633830580000803  0.23265506944920125  0.8866938638417565  1.0000
  H   H28       1.0  0.23662125312846166  0.7673467016070248  0.11330671877410475  1.0000
  H   H29       1.0  0.8774212623943286  0.2807102284878482  0.054835500944967974  1.0000
  H   H30       1.0  0.1225813190199432  0.7192894092510045  0.9451666851960426  1.0000
  H   H31       1.0  0.6822308048158446  0.12332590723075748  0.08444655069440904  1.0000
  H   H32       1.0  0.3177669161026415  0.8766747834689994  0.9155517511470989  1.0000
  H   H33       1.0  0.608778842569457  0.2415481990113761  0.009046515806929353  1.0000
  H   H34       1.0  0.3912237239739866  0.7584546224417181  0.9909528668269729  1.0000
  H   H35       1.0  0.9323969238379205  0.09672292828687291  0.9252990312431777  1.0000
  H   H36       1.0  0.06760359018716137  0.903276725314022  0.07469995095902249  1.0000
  H   H37       1.0  0.8794096363334274  0.0424536553436496  0.03214930208775261  1.0000
  H   H38       1.0  0.12059054302602593  0.9575449467391837  0.9678493734301272  1.0000
  C   C1        1.0  0.7802642096151331  0.44982924453173473  0.30271685742550153  1.0000
  C   C2        1.0  0.2197362925484256  0.5501703920859313  0.6972838220492293  1.0000
  C   C3        1.0  0.62715729340848  0.45149217276804154  0.25664928322364483  1.0000
  C   C4        1.0  0.3728441949596614  0.5485105929289772  0.7433548622128613  1.0000
  C   C5        1.0  0.535783876315655  0.4374427876039703  0.13160226176026407  1.0000
  C   C6        1.0  0.46421833183912736  0.5625589483646111  0.8684002087343856  1.0000
  C   C7        1.0  0.38894904674144465  0.4186016709508422  0.1124034462303172  1.0000
  C   C8        1.0  0.6110514049667232  0.5814010984313925  0.8875995215549112  1.0000
  C   C9        1.0  0.3698399870460989  0.4211185406245264  0.22388970465422636  1.0000
  C   C10       1.0  0.6301604824543502  0.5788842542325412  0.7761107172222026  1.0000
  C   C11       1.0  0.22875965768309214  0.39458316050912157  0.23751231650709315  1.0000
  C   C12       1.0  0.7712428910680699  0.6054196354691329  0.7624896120356084  1.0000
  C   C13       1.0  0.9733070971512775  0.050135740074885915  0.2477113043498279  1.0000
  C   C14       1.0  0.026694832724032874  0.9498618201026832  0.7522877225137352  1.0000
  C   C15       1.0  0.07711621185894299  0.03688834977685221  0.36927010701057134  1.0000
  C   C16       1.0  0.9228797852760451  0.9631102160971492  0.6307289497198242  1.0000
  C   C17       1.0  0.1320947892424797  0.1397838040220094  0.4952170364528429  1.0000
  C   C18       1.0  0.8679001920341206  0.8602115903145774  0.5047827974971072  1.0000
  C   C19       1.0  0.2329712310356342  0.10632045499843912  0.5991472502456077  1.0000
  C   C20       1.0  0.7670279057330872  0.8936781422779917  0.4008510962572701  1.0000
  C   C21       1.0  0.27603526872595546  0.9840101233106466  0.5805146056880375  1.0000
  C   C22       1.0  0.7239645373740087  0.0159905770019151  0.41948435418348134  1.0000
  C   C23       1.0  0.12104364001282164  0.9177705927785669  0.3596779776575119  1.0000
  C   C24       1.0  0.8789544482344027  0.08222799119985072  0.6403208884666185  1.0000
  C   C25       1.0  0.298237719966842  0.19641369462019753  0.7272587934026264  1.0000
  C   C26       1.0  0.7017603801418987  0.803584906341442  0.2727383754489808  1.0000
  C   C27       1.0  0.43536333219497436  0.0546953882772883  0.7911630718897413  1.0000
  C   C28       1.0  0.5646381917577301  0.9453074283694108  0.2088359817291661  1.0000
  C   C29       1.0  0.2599879903394253  0.7609942432092894  0.43377764599917873  1.0000
  C   C30       1.0  0.7400121712277467  0.2390043333986966  0.5662235754275002  1.0000
  C   C31       1.0  0.40606818510853065  0.7903778907542504  0.42367479865200863  1.0000
  C   C32       1.0  0.593933353715009  0.2096217421782072  0.576327058474  1.0000
  C   C33       1.0  0.5924158499757581  0.9122612089722536  0.8678124866902621  1.0000
  C   C34       1.0  0.4075842967205928  0.08774055134998089  0.13218593122931568  1.0000
  C   C35       1.0  0.7283936301184752  0.9479133593795267  0.84235932025085  1.0000
  C   C36       1.0  0.2716072185722282  0.05208734573943019  0.15763996863567803  1.0000
  C   C37       1.0  0.7887146193275001  0.19736383224540083  0.9721238902680938  1.0000
  C   C38       1.0  0.21128726009241922  0.8026368606967298  0.027877424905973797  1.0000
  C   C39       1.0  0.6529729766916005  0.15410687076465027  0.9968170843753372  1.0000
  C   C40       1.0  0.3470282125954894  0.8458948943639866  0.003181662559242704  1.0000
  S   S1        1.0  0.5321312898569275  0.44718944368052155  0.35167943339241253  1.0000
  S   S2        1.0  0.46786570534416677  0.5528122682560551  0.6483213920272135  1.0000
  N   N1        1.0  0.3980114934113672  0.17403858207846673  0.8222558720117377  1.0000
  N   N2        1.0  0.6019886532849837  0.8259631782437681  0.17774254590784017  1.0000
  N   N3        1.0  0.3752886367069621  0.9570570146743337  0.6745572864695504  1.0000
  N   N4        1.0  0.6247125466493627  0.04294474196268539  0.325442309101298  1.0000
  N   N5        1.0  0.2158614012813871  0.8890080360877662  0.45788184542039556  1.0000
  N   N6        1.0  0.784137723625811  0.11099054420544259  0.5421181983550127  1.0000
  N   N7        1.0  0.5423731900756863  0.03464605044198521  0.888427639473136  1.0000
  N   N8        1.0  0.4576272912862861  0.9653567613983112  0.11157108513076242  1.0000
  N   N9        1.0  0.8425810828021909  0.0738822828772072  0.9480669743276025  1.0000
  N   N10       1.0  0.1574190906265045  0.9261163107140078  0.05193254982653879  1.0000
  O   O1        1.0  0.8460408477030228  0.45399639880699266  0.23013580612283147  1.0000
  O   O2        1.0  0.1539548266278672  0.546001132532176  0.7698612466506988  1.0000
  O   O3        1.0  0.839651434757634  0.43319031503614974  0.4144866762367982  1.0000
  O   O4        1.0  0.1603497694002769  0.5668082663782387  0.5855148742048828  1.0000
  O   O5        1.0  0.11214911416701065  0.3311148941872589  0.13891693067663627  1.0000
  O   O6        1.0  0.8878513375411573  0.668887875194976  0.861086037108592  1.0000
  O   O7        1.0  0.24095645153133197  0.4371040991812975  0.3540845314868548  1.0000
  O   O8        1.0  0.7590440506322267  0.5628955374363686  0.645916147987876  1.0000
  O   O9        1.0  0.10024174166882459  0.2527046780037168  0.5201279787848918  1.0000
  O   O10       1.0  0.8997473513920864  0.7472885807731302  0.4798704453576618  1.0000
  O   O11       1.0  0.913407613571266  0.1468913624751735  0.2525295266370903  1.0000
  O   O12       1.0  0.08659637475317078  0.8531093740462126  0.7474690520219128  1.0000
  O   O13       1.0  0.9473679916302657  0.9610427646387125  0.14107519619032874  1.0000
  O   O14       1.0  0.0526304639456896  0.03895371261836541  0.8589242342164314  1.0000
