data_image0
_chemical_formula_structural       Na4H24C24S4N4Cl12O14
_chemical_formula_sum              "Na4 H24 C24 S4 N4 Cl12 O14"
_cell_length_a       6.348492552447558
_cell_length_b       6.349163810616497
_cell_length_c       30.03238623861414
_cell_angle_alpha    92.83215774347201
_cell_angle_beta     93.84610622061668
_cell_angle_gamma    116.70679486388268

_space_group_name_H-M_alt    "P 1"
_space_group_IT_number       1

loop_
  _space_group_symop_operation_xyz
  'x, y, z'

loop_
  _atom_site_type_symbol
  _atom_site_label
  _atom_site_symmetry_multiplicity
  _atom_site_fract_x
  _atom_site_fract_y
  _atom_site_fract_z
  _atom_site_occupancy
  Na  Na1       1.0  0.5934828250713268  0.1443919854377498  0.7362126030301611  1.0000
  Na  Na2       1.0  0.9081241396444213  0.8574544323858717  0.7637718649280245  1.0000
  Na  Na3       1.0  0.4065190004236499  0.855612280244138  0.2637876091077302  1.0000
  Na  Na4       1.0  0.0918792347061057  0.14254984494913  0.2362290388956581  1.0000
  H   H1        1.0  0.5865460614382486  0.9403966212181133  0.5265994395309122  1.0000
  H   H2        1.0  0.9142640628903039  0.0606073299533563  0.9734237617926168  1.0000
  H   H3        1.0  0.41345243585109176  0.05958987246675211  0.473398904063032  1.0000
  H   H4        1.0  0.08572260152080696  0.9393846094719933  0.026576762819232196  1.0000
  H   H5        1.0  0.07785037867563468  0.6448901862328428  0.5427436184123593  1.0000
  H   H6        1.0  0.6015823476314494  0.5348204717115976  0.9572774263763932  1.0000
  H   H7        1.0  0.9221585015134295  0.3551086948467415  0.4572556662721965  1.0000
  H   H8        1.0  0.3984209872338411  0.4651838344526738  0.042724476033861  1.0000
  H   H9        1.0  0.20992801061260746  0.847542248385871  0.6196108954254385  1.0000
  H   H10       1.0  0.7272137604743493  0.5900341251109326  0.8803932779332301  1.0000
  H   H11       1.0  0.7900777679496117  0.15246019564268212  0.38038836779836055  1.0000
  H   H12       1.0  0.2727936210049577  0.40997904128763446  0.1196090983978095  1.0000
  H   H13       1.0  0.3702845140332513  0.6171116286877734  0.7239717548121334  1.0000
  H   H14       1.0  0.392926125929563  0.6464040811396715  0.7759621660762406  1.0000
  H   H15       1.0  0.629725112302232  0.3828890705654829  0.2760292223951026  1.0000
  H   H16       1.0  0.6070771996897192  0.35359664837913124  0.22403870728540198  1.0000
  H   H17       1.0  0.36798814403323377  0.03781050212420921  0.8154157005981659  1.0000
  H   H18       1.0  0.7224757017652124  0.552709762564632  0.6845706911107641  1.0000
  H   H19       1.0  0.6320169029588527  0.9622008632768129  0.18458529011098787  1.0000
  H   H20       1.0  0.2775284977022211  0.4472962752855311  0.31542990806244126  1.0000
  H   H21       1.0  0.32591083247664443  0.25883112859965257  0.8078524766912452  1.0000
  H   H22       1.0  0.9511522271589499  0.5183083798492376  0.6921128524004131  1.0000
  H   H23       1.0  0.6740894797322807  0.7411766828550624  0.1921474070851019  1.0000
  H   H24       1.0  0.04885354748753201  0.4816976504345335  0.30788777273419043  1.0000
  C   C1        1.0  0.9790936191989346  0.011297471645299605  0.6163528215333258  1.0000
  C   C2        1.0  0.894598752215593  0.3627945563084721  0.8836468273013978  1.0000
  C   C3        1.0  0.020906661356214336  0.9887031961282421  0.3836453370079767  1.0000
  C   C4        1.0  0.1054023061397515  0.6372150733199291  0.11635474899762241  1.0000
  C   C5        1.0  0.8023456551041052  0.036883709244897006  0.5897681418482748  1.0000
  C   C6        1.0  0.9470371590329237  0.21283082078403487  0.9102365627035242  1.0000
  C   C7        1.0  0.1976592535256928  0.9631098401970847  0.4102300336531499  1.0000
  C   C8        1.0  0.05295906707674191  0.7871681592656543  0.0897638457386094  1.0000
  C   C9        1.0  0.7238820860926721  0.9200868217000107  0.5467948733460162  1.0000
  C   C10       1.0  0.8734341894934019  0.1774449366586239  0.9532197538813776  1.0000
  C   C11       1.0  0.276115647972766  0.07990144967615719  0.4532034724982453  1.0000
  C   C12       1.0  0.1265557227383169  0.8225540832663614  0.0467808835773482  1.0000
  C   C13       1.0  0.8262151296990649  0.7827970766721606  0.5299647167993413  1.0000
  C   C14       1.0  0.7527333462754557  0.2963364752314419  0.9700495237314897  1.0000
  C   C15       1.0  0.1737834163215268  0.2171929648289179  0.4700336572566358  1.0000
  C   C16       1.0  0.24726210344856278  0.7036642921192924  0.029951219823154004  1.0000
  C   C17       1.0  0.00028699848446924625  0.7539068980754421  0.5559005299701808  1.0000
  C   C18       1.0  0.6976035197976032  0.44424202158764814  0.944111734195289  1.0000
  C   C19       1.0  0.9997187089387296  0.24608843110119955  0.4440980066051594  1.0000
  C   C20       1.0  0.3023967621720942  0.555769395341798  0.0558901772162486  1.0000
  C   C21       1.0  0.07399274422066078  0.8676676078552108  0.598931236794968  1.0000
  C   C22       1.0  0.7682424024988563  0.47494542252745486  0.9010717313494965  1.0000
  C   C23       1.0  0.9260114367547417  0.13233127670402212  0.40106730428100695  1.0000
  C   C24       1.0  0.2317641709410339  0.5250623874909764  0.0989292548590228  1.0000
  S   S1        1.0  0.0930853810787795  0.15450652321153063  0.6717515155884897  1.0000
  S   S2        1.0  0.9823006848246578  0.4213477770994558  0.828241789897703  1.0000
  S   S3        1.0  0.906930651266883  0.8454940688981482  0.3282469025668036  1.0000
  S   S4        1.0  0.017696629151522873  0.5786157172218084  0.171758339885443  1.0000
  N   N1        1.0  0.1788255447033151  0.4338559228743435  0.6713933502630951  1.0000
  N   N2        1.0  0.2619990470500539  0.5073070725649843  0.828571514267253  1.0000
  N   N3        1.0  0.8211762583839005  0.5661447757718323  0.3286061656883774  1.0000
  N   N4        1.0  0.7379948893879201  0.4926972405585844  0.17142890092583937  1.0000
  Cl  Cl1       1.0  0.4069796953707367  0.5605616183320166  0.6365864284066447  1.0000
  Cl  Cl2       1.0  0.42371225898255477  0.7703359422739953  0.8633663220081331  1.0000
  Cl  Cl3       1.0  0.5930237803580383  0.43944616838017936  0.3634131744302991  1.0000
  Cl  Cl4       1.0  0.5762722487888752  0.2296719832836089  0.1366346336029878  1.0000
  Cl  Cl5       1.0  0.6771591615055427  0.2123922400249612  0.6076950405868403  1.0000
  Cl  Cl6       1.0  0.10467226265149072  0.06976125934338738  0.8922938133141614  1.0000
  Cl  Cl7       1.0  0.3228441982686903  0.7876012977638921  0.39230244322880037  1.0000
  Cl  Cl8       1.0  0.8953207736148343  0.930237764668334  0.10770754179174702  1.0000
  Cl  Cl9       1.0  0.7403267704414986  0.6539400826070221  0.4756158970367608  1.0000
  Cl  Cl10      1.0  0.6783300458406671  0.2646981308591663  0.024395160694489  1.0000
  Cl  Cl11      1.0  0.2596686120592437  0.34604998363657563  0.5243827579586124  1.0000
  Cl  Cl12      1.0  0.32166387743556163  0.735306191874159  0.9756055873607963  1.0000
  O   O1        1.0  0.8967334649078254  0.07713316342480431  0.6998804960180819  1.0000
  O   O2        1.0  0.8766492074674587  0.19681840584679128  0.800114273757508  1.0000
  O   O3        1.0  0.10326281384883637  0.922865778185866  0.3001185809752799  1.0000
  O   O4        1.0  0.12335565917590686  0.8031895078355689  0.19989001511152793  1.0000
  O   O5        1.0  0.2797258343722646  0.08866671871242458  0.6843796406328266  1.0000
  O   O6        1.0  0.9038275205040874  0.5953300969615967  0.81562677791964  1.0000
  O   O7        1.0  0.7202665571258889  0.9113339965028118  0.3156187209636769  1.0000
  O   O8        1.0  0.09615385790245777  0.40467066160858434  0.18437106908486814  1.0000
  O   O9        1.0  0.4741121203651346  0.7242536273354787  0.7499733239093871  1.0000
  O   O10       1.0  0.5258943200427383  0.2757435296245917  0.2500272380508193  1.0000
  O   O11       1.0  0.3293072402826026  0.11978312891962868  0.7919101421423775  1.0000
  O   O12       1.0  0.828152668888201  0.5377927791289068  0.7080723471079935  1.0000
  O   O13       1.0  0.6706898465134756  0.8802211690711701  0.2080903249735115  1.0000
  O   O14       1.0  0.17185468093732942  0.4622132435884865  0.2919283039880085  1.0000
