data_image0
_chemical_formula_structural       Cd2H28C42N4O12
_chemical_formula_sum              "Cd2 H28 C42 N4 O12"
_cell_length_a       8.925506697269775
_cell_length_b       9.86922520560288
_cell_length_c       12.281543566881489
_cell_angle_alpha    91.66272509839655
_cell_angle_beta     103.88658218141289
_cell_angle_gamma    115.42750688785726

_space_group_name_H-M_alt    "P 1"
_space_group_IT_number       1

loop_
  _space_group_symop_operation_xyz
  'x, y, z'

loop_
  _atom_site_type_symbol
  _atom_site_label
  _atom_site_symmetry_multiplicity
  _atom_site_fract_x
  _atom_site_fract_y
  _atom_site_fract_z
  _atom_site_occupancy
  Cd  Cd1       1.0  0.18710325305490022  0.4728167793229261  0.02621699508262761  1.0000
  Cd  Cd2       1.0  0.8128947830073943  0.5271828522627899  0.9737835458922319  1.0000
  H   H1        1.0  0.11203872426391112  0.6248588050873779  0.436357888175877  1.0000
  H   H2        1.0  0.887965677020418  0.37514648659012556  0.5636414388696736  1.0000
  H   H3        1.0  0.2786717817421546  0.1820658772405466  0.04142635475896127  1.0000
  H   H4        1.0  0.7213239518083371  0.8179360078434073  0.9585713824155847  1.0000
  H   H5        1.0  0.29249423407735975  0.0026040003197281  0.17833738704727858  1.0000
  H   H6        1.0  0.7075055268113886  0.9973944512936795  0.8216561061140695  1.0000
  H   H7        1.0  0.29780817685136185  0.0655289816335909  0.3783025197934364  1.0000
  H   H8        1.0  0.7021932991362193  0.9344638172829819  0.6216944222154552  1.0000
  H   H9        1.0  0.26933032752607033  0.4759391890512816  0.2831421323899193  1.0000
  H   H10       1.0  0.7306676964279788  0.5240559342177634  0.7168632044597274  1.0000
  H   H11       1.0  0.28928600385823705  0.436959185811027  0.47477275240681394  1.0000
  H   H12       1.0  0.7107114353360656  0.5630347415718261  0.5252226875722954  1.0000
  H   H13       1.0  0.19828329351916102  0.1097551326236825  0.521749613006854  1.0000
  H   H14       1.0  0.801718772602108  0.8902411061682259  0.4782531991390968  1.0000
  H   H15       1.0  0.06667367441095001  0.0534715782388986  0.6812768099235881  1.0000
  H   H16       1.0  0.9333307214994306  0.9465314694494467  0.3187265438554406  1.0000
  H   H17       1.0  0.04603038052523802  0.14697557727291163  0.8660799392894702  1.0000
  H   H18       1.0  0.9539722794032244  0.8530263199605345  0.13392064426989944  1.0000
  H   H19       1.0  0.3455081879320616  0.594100215975935  0.8387873446132376  1.0000
  H   H20       1.0  0.6544904281287387  0.40590054031167716  0.1612116916596307  1.0000
  H   H21       1.0  0.36810255102569306  0.5229372252264923  0.6502781095622012  1.0000
  H   H22       1.0  0.6318926021862127  0.4770635300709715  0.3497203179163009  1.0000
  H   H23       1.0  0.09254469987187261  0.6597182874678111  0.7072850245771676  1.0000
  H   H24       1.0  0.9074550768661068  0.34028472839278123  0.2927126310878023  1.0000
  H   H25       1.0  0.4766148494127336  0.0821494229726767  0.6488872822377871  1.0000
  H   H26       1.0  0.5233889587445759  0.9178502204324772  0.3511159021904291  1.0000
  H   H27       1.0  0.3693474249082698  0.04258649117105049  0.9722940199371166  1.0000
  H   H28       1.0  0.6306448468135882  0.9574154081765228  0.02770555163717596  1.0000
  C   C1        1.0  0.2799819874582781  0.2054410024076745  0.1289413582512964  1.0000
  C   C2        1.0  0.7200172089411155  0.7945608836664276  0.8710569877176226  1.0000
  C   C3        1.0  0.288871826534745  0.10651020149513361  0.2062501615769534  1.0000
  C   C4        1.0  0.7111302382261686  0.8934860169584058  0.7937493929768564  1.0000
  C   C5        1.0  0.2892521751967365  0.1413588547492282  0.3168468381162342  1.0000
  C   C6        1.0  0.7107516305799494  0.8586407530637813  0.6831506455257211  1.0000
  C   C7        1.0  0.27885709723005897  0.27499511148307937  0.3478519689618338  1.0000
  C   C8        1.0  0.7211443868521812  0.7249999720993756  0.6521474614978899  1.0000
  C   C9        1.0  0.27411197824870476  0.36908966147245076  0.2647878679744835  1.0000
  C   C10       1.0  0.7258918221540398  0.6309077023514078  0.735213642400943  1.0000
  C   C11       1.0  0.2688927819665992  0.3197805389716707  0.4587761095686247  1.0000
  C   C12       1.0  0.7311092824542271  0.6802156743972817  0.5412226305871428  1.0000
  C   C13       1.0  0.22814302336160353  0.22936078071960248  0.5384576682918549  1.0000
  C   C14       1.0  0.7718590555480986  0.7706399765581652  0.4615419767753863  1.0000
  C   C15       1.0  0.21691007429751605  0.280275632429813  0.6474781853395584  1.0000
  C   C16       1.0  0.7830891163878418  0.7197240045705441  0.3525233729647966  1.0000
  C   C17       1.0  0.12809115852251554  0.17486789026335003  0.71195091560638  1.0000
  C   C18       1.0  0.8719103481432454  0.8251340218938169  0.2880519082156353  1.0000
  C   C19       1.0  0.11820826869780633  0.2252421089044248  0.8156028356941718  1.0000
  C   C20       1.0  0.8817955461937999  0.7747597988282564  0.18439957959272849  1.0000
  C   C21       1.0  0.2828966110564579  0.4758688818764796  0.799161137919654  1.0000
  C   C22       1.0  0.7171037399659852  0.5241330096122642  0.2008382253787602  1.0000
  C   C23       1.0  0.29455624259629337  0.43473284503545534  0.6940082933735425  1.0000
  C   C24       1.0  0.7054418002003048  0.5652690508777881  0.305991478460001  1.0000
  C   C25       1.0  0.22169053335581873  0.8408112496967843  0.8481990856534694  1.0000
  C   C26       1.0  0.7783028855746181  0.15918838056873597  0.15180064359555703  1.0000
  C   C27       1.0  0.18937034128347832  0.7768352826985919  0.7369731021088697  1.0000
  C   C28       1.0  0.8106271123997003  0.22316318859308382  0.2630232427817134  1.0000
  C   C29       1.0  0.27839022410926634  0.8645846208827805  0.6643504785604151  1.0000
  C   C30       1.0  0.7216147369706505  0.13541500251405134  0.33564965120711315  1.0000
  C   C31       1.0  0.40441908127486675  0.014944131279925402  0.7043227815152733  1.0000
  C   C32       1.0  0.5955829909005318  0.9850543616703151  0.29567763269329106  1.0000
  C   C33       1.0  0.4380116846471863  0.0786688931623232  0.8158213252319797  1.0000
  C   C34       1.0  0.5619875212072144  0.9213352979160377  0.18418276677991935  1.0000
  C   C35       1.0  0.34475335061225104  0.9917146194304463  0.8862181298600832  1.0000
  C   C36       1.0  0.6552394862791502  0.0082838556256135  0.11377821770270906  1.0000
  C   C37       1.0  0.11908096785588634  0.7535832859896202  0.9251488073449962  1.0000
  C   C38       1.0  0.8809159065089675  0.24641407076934027  0.07485067104364868  1.0000
  C   C39       1.0  0.5697991946338236  0.24049697460753794  0.8600562360794156  1.0000
  C   C40       1.0  0.43019595993843757  0.7595038010282948  0.1399454489912273  1.0000
  C   C41       1.0  0.23911923576741154  0.8043516649189897  0.5436918645169797  1.0000
  C   C42       1.0  0.760880517094158  0.19564233939284748  0.4563161972956067  1.0000
  N   N1        1.0  0.2741844952891483  0.3349477848852159  0.1584200364179438  1.0000
  N   N2        1.0  0.7258123868302704  0.665051851455047  0.8415811160234908  1.0000
  N   N3        1.0  0.19571681057315257  0.3733048254107061  0.8591959629973758  1.0000
  N   N4        1.0  0.8042864293538159  0.626698196524629  0.1408031158600025  1.0000
  O   O1        1.0  0.04702972972923196  0.6060193308268111  0.9014550143570831  1.0000
  O   O2        1.0  0.9529671510298314  0.39398028517508277  0.09854288049220371  1.0000
  O   O3        1.0  0.10110430217890358  0.8245304957319918  0.0030456500627807233  1.0000
  O   O4        1.0  0.8988931535448047  0.17546800606723423  0.996955581216028  1.0000
  O   O5        1.0  0.5723265020566471  0.2974351834192461  0.9565003608104662  1.0000
  O   O6        1.0  0.42766807115675226  0.7025644471763216  0.0434995713700204  1.0000
  O   O7        1.0  0.6709133225659374  0.312344001609361  0.8027824274841109  1.0000
  O   O8        1.0  0.32907953690899205  0.6876613020214108  0.19721731344098  1.0000
  O   O9        1.0  0.2868152202717412  0.8813503701823323  0.4708695287618667  1.0000
  O   O10       1.0  0.7131984135758672  0.11865489871261296  0.5291273497451598  1.0000
  O   O11       1.0  0.13987776461531348  0.6509602495627007  0.5187739247649361  1.0000
  O   O12       1.0  0.8601260485758503  0.34904163274701006  0.4812244185317739  1.0000
