data_image0
_chemical_formula_structural       Zn2H88C112N8O24
_chemical_formula_sum              "Zn2 H88 C112 N8 O24"
_cell_length_a       11.756609769449073
_cell_length_b       11.947900298905383
_cell_length_c       24.805376240053967
_cell_angle_alpha    90.52430518722366
_cell_angle_beta     90.00023972234801
_cell_angle_gamma    119.47123540485191

_space_group_name_H-M_alt    "P 1"
_space_group_IT_number       1

loop_
  _space_group_symop_operation_xyz
  'x, y, z'

loop_
  _atom_site_type_symbol
  _atom_site_label
  _atom_site_symmetry_multiplicity
  _atom_site_fract_x
  _atom_site_fract_y
  _atom_site_fract_z
  _atom_site_occupancy
  Zn  Zn1       1.0  0.5000029995365834  0.500002065376627  0.9999997799009318  1.0000
  Zn  Zn2       1.0  9.847813233926754e-08  0.5000014468128883  0.4999995389098684  1.0000
  H   H1        1.0  0.33907683333992383  0.6924297580943346  0.15590948913694544  1.0000
  H   H2        1.0  0.6466575009516619  0.30757942029151764  0.34408883896143283  1.0000
  H   H3        1.0  0.6609247224487262  0.3075741127423868  0.8440881731886306  1.0000
  H   H4        1.0  0.35334395218548303  0.692422544050835  0.6559108333809929  1.0000
  H   H5        1.0  0.13845204777462067  0.18799496751854858  0.13598433702455986  1.0000
  H   H6        1.0  0.9504563463045133  0.8120103252646447  0.3640124701395918  1.0000
  H   H7        1.0  0.8615476943860898  0.8120069772331532  0.8640129164132728  1.0000
  H   H8        1.0  0.049546439755062  0.18799260375005386  0.6359876082223577  1.0000
  H   H9        1.0  0.17449273833165074  0.030018837048224598  0.0683196736403033  1.0000
  H   H10       1.0  0.1444695376625021  0.9699871270850907  0.4316795903719778  1.0000
  H   H11       1.0  0.8255049311551022  0.9699840658727652  0.9316771795127676  1.0000
  H   H12       1.0  0.8555303300487864  0.030016769910524505  0.5683212971558617  1.0000
  H   H13       1.0  0.4750375910843658  0.09984293008527349  0.8958315044350227  1.0000
  H   H14       1.0  0.3751919812271395  0.9001581985900271  0.6041693670668734  1.0000
  H   H15       1.0  0.5249634856344302  0.9001599826066029  0.10416655817282819  1.0000
  H   H16       1.0  0.6248069218018415  0.09984376904458968  0.3958307084235597  1.0000
  H   H17       1.0  0.0662359401512447  0.4537122332914904  0.11697780687279649  1.0000
  H   H18       1.0  0.61253071860979  0.5462902810944996  0.38302140366928933  1.0000
  H   H19       1.0  0.9337638167302982  0.5462897408706268  0.8830230749194425  1.0000
  H   H20       1.0  0.38746929077517933  0.4537087957420028  0.6169778569180052  1.0000
  H   H21       1.0  0.35433709034616356  0.41714006702973444  0.21092657907164633  1.0000
  H   H22       1.0  0.9371981465940493  0.5828575228717625  0.28907121411237563  1.0000
  H   H23       1.0  0.6456626616284354  0.582861897328911  0.789073093269124  1.0000
  H   H24       1.0  0.06280234349643617  0.41714251537741376  0.710928049343124  1.0000
  H   H25       1.0  0.9350045535474365  0.4220260691503339  0.19930265777702513  1.0000
  H   H26       1.0  0.5129795456429636  0.5779729194883957  0.300696908658928  1.0000
  H   H27       1.0  0.06499546238013211  0.5779730207574687  0.8006982154122254  1.0000
  H   H28       1.0  0.4870191340908788  0.4220251992114044  0.6993027522098101  1.0000
  H   H29       1.0  0.22682833227790417  0.38894228179121637  0.29331364995424986  1.0000
  H   H30       1.0  0.8378829080709949  0.6110516992276516  0.20668229297966426  1.0000
  H   H31       1.0  0.7731707140604058  0.6110548689521095  0.7066852017461257  1.0000
  H   H32       1.0  0.16211758038384255  0.3889483357536959  0.7933165673253552  1.0000
  H   H33       1.0  0.07043296322758857  0.30579366997349666  0.3467924448142909  1.0000
  H   H34       1.0  0.7646360410520926  0.6942064086875845  0.15320973681781414  1.0000
  H   H35       1.0  0.9295659837305195  0.6942015808111109  0.653209223203916  1.0000
  H   H36       1.0  0.23536323185264513  0.30579459752620863  0.8467903358052309  1.0000
  H   H37       1.0  0.9384775159876214  0.3249590701023807  0.3704741247186973  1.0000
  H   H38       1.0  0.6135191337942558  0.6750475684450165  0.12952476231187393  1.0000
  H   H39       1.0  0.06152397453606548  0.6750361643186552  0.6295255275495392  1.0000
  H   H40       1.0  0.38648050735060474  0.32495247308013125  0.8704749042932886  1.0000
  H   H41       1.0  0.3148778596897087  0.7848822516383719  0.33569251941282363  1.0000
  H   H42       1.0  0.529994202958413  0.21511965268828698  0.16430927433150794  1.0000
  H   H43       1.0  0.685118051547775  0.21511203122235406  0.6643083394337026  1.0000
  H   H44       1.0  0.47000543982209564  0.7848803921046825  0.8356907954241491  1.0000
  H   H45       1.0  0.3619573102125385  0.7000144999222471  0.3825121488534506  1.0000
  H   H46       1.0  0.6619418040651155  0.2999876058462975  0.11748901831502677  1.0000
  H   H47       1.0  0.638041855133757  0.29998458999369865  0.6174887243349758  1.0000
  H   H48       1.0  0.3380605012889575  0.7000143617557271  0.8825110571787106  1.0000
  H   H49       1.0  0.2387813151657596  0.7407094586104607  0.4010013103368378  1.0000
  H   H50       1.0  0.49806925095548843  0.25928962495545704  0.09899915750302307  1.0000
  H   H51       1.0  0.761214113730567  0.25928385956976296  0.5989991424909815  1.0000
  H   H52       1.0  0.5019312407706451  0.7407104165615409  0.901000509102971  1.0000
  H   H53       1.0  0.38908241229708557  0.9925306626103918  0.0484908513274789  1.0000
  H   H54       1.0  0.3965486524495532  0.007462175391687299  0.4515084372623546  1.0000
  H   H55       1.0  0.6109163815377983  0.007469385458556099  0.9515096215778411  1.0000
  H   H56       1.0  0.603448490694504  0.9925311689148375  0.5484952407710394  1.0000
  H   H57       1.0  0.20582166418860479  0.028685038911504496  0.9047259323545374  1.0000
  H   H58       1.0  0.17714033772667642  0.9713224721026278  0.5952724750107092  1.0000
  H   H59       1.0  0.7941785701271582  0.9713178901276363  0.09527414600493957  1.0000
  H   H60       1.0  0.8228578353646582  0.0286814379805804  0.4047300251174376  1.0000
  H   H61       1.0  0.2888317254877252  0.759519642076981  0.033087934449127894  1.0000
  H   H62       1.0  0.5293124352822929  0.24047383937158168  0.46691058230572924  1.0000
  H   H63       1.0  0.7111649989444897  0.24048137069690506  0.9669129444724189  1.0000
  H   H64       1.0  0.47068724815604657  0.7595194820357277  0.53309027367672  1.0000
  H   H65       1.0  0.1045669444574957  0.7926121504744689  0.8881850818330077  1.0000
  H   H66       1.0  0.3119644694997561  0.2073940808369201  0.6118137584398227  1.0000
  H   H67       1.0  0.8954306321916404  0.2073888655590963  0.11181620023985059  1.0000
  H   H68       1.0  0.6880406125289155  0.7926117389433072  0.3881871348285839  1.0000
  H   H69       1.0  0.11419443698974872  0.5436744235877242  0.0198643258428746  1.0000
  H   H70       1.0  0.5705287542639041  0.4563193515759992  0.4801312363240129  1.0000
  H   H71       1.0  0.8858078683643242  0.4563275440143003  0.9801357496508628  1.0000
  H   H72       1.0  0.4294823402502672  0.543672975626329  0.5198655852968911  1.0000
  H   H73       1.0  0.26193965329677127  0.5862435611075794  0.9846112966698115  1.0000
  H   H74       1.0  0.675700675792612  0.4137480677221106  0.5153884245221149  1.0000
  H   H75       1.0  0.7380599878480824  0.4137564804175682  0.015388369935358494  1.0000
  H   H76       1.0  0.324305556521189  0.5862481444099855  0.48461324637091957  1.0000
  H   H77       1.0  0.04591276332087089  0.14903773859164454  0.9999687755091812  1.0000
  H   H78       1.0  0.8968705011863491  0.8509595866038993  0.5000281458340295  1.0000
  H   H79       1.0  0.9540869886537351  0.8509642257670011  3.08968315892003e-05  1.0000
  H   H80       1.0  0.10312696136175252  0.14903950006051764  0.4999723242022539  1.0000
  H   H81       1.0  0.11965770404928121  0.21035378027553975  0.9355653729080797  1.0000
  H   H82       1.0  0.9092965153138196  0.7896398515965541  0.5644336393306232  1.0000
  H   H83       1.0  0.880342303700047  0.7896452932931409  0.06443348452872039  1.0000
  H   H84       1.0  0.09069913851328691  0.2103573187863148  0.4355676312693787  1.0000
  H   H85       1.0  0.9530621065631592  0.1706619541609058  0.9471425223564648  1.0000
  H   H86       1.0  0.7823885309063526  0.8293287331464468  0.5528543659169924  1.0000
  H   H87       1.0  0.04693897669822187  0.8293409716022637  0.052857152853348986  1.0000
  H   H88       1.0  0.2176047144862707  0.17066362036957367  0.4471456808904718  1.0000
  C   C1        1.0  0.39393753194378434  0.6943584850330922  0.12041351399174967  1.0000
  C   C2        1.0  0.6995805401091671  0.30564581851702854  0.3795853105370668  1.0000
  C   C3        1.0  0.6060660981544715  0.305644430902163  0.8795849517690683  1.0000
  C   C4        1.0  0.30041921350107975  0.6943561491094388  0.6204147649541909  1.0000
  C   C5        1.0  0.3804718793907611  0.5819110770210544  0.0921843776707121  1.0000
  C   C6        1.0  0.7985626708292841  0.4180904812849279  0.4078141210823602  1.0000
  C   C7        1.0  0.6195290930408818  0.4180899259086176  0.9078152918035015  1.0000
  C   C8        1.0  0.20143623056404175  0.5819114830818676  0.5921855512575789  1.0000
  C   C9        1.0  0.2992849802662861  0.45454360200159266  0.10892173643859586  1.0000
  C   C10       1.0  0.8447457096449541  0.5454602144324882  0.39107673403103854  1.0000
  C   C11       1.0  0.7007152491425259  0.5454593172340765  0.8910771324694051  1.0000
  C   C12       1.0  0.15525622092641106  0.4545427047868884  0.6089221348786182  1.0000
  C   C13       1.0  0.2906095331114286  0.344102965260511  0.0842986375927239  1.0000
  C   C14       1.0  0.9465053706561477  0.6558999628101531  0.41570032649243416  1.0000
  C   C15       1.0  0.7093927624287488  0.6558989827345628  0.9156990189980757  1.0000
  C   C16       1.0  0.05349257096180785  0.34410008199911596  0.5842997432615673  1.0000
  C   C17       1.0  0.20453824186817118  0.21404356326868876  0.10197614892946659  1.0000
  C   C18       1.0  0.9904937786220669  0.7859607195175328  0.3980215676732043  1.0000
  C   C19       1.0  0.7954602814711504  0.7859593461798011  0.8980215105254101  1.0000
  C   C20       1.0  0.009505976623834978  0.21404125137676283  0.6019789109685475  1.0000
  C   C21       1.0  0.22246609615216068  0.13408883151932116  0.06755254982829938  1.0000
  C   C22       1.0  0.08837264306988868  0.865916239206598  0.43244549396980847  1.0000
  C   C23       1.0  0.777534506403718  0.8659131328311741  0.9324471225132952  1.0000
  C   C24       1.0  0.9116262583234374  0.13408572516019027  0.5675541783701306  1.0000
  C   C25       1.0  0.3207005672967115  0.21482250221630755  0.028959318681003796  1.0000
  C   C26       1.0  0.10587433631354777  0.7851834056102194  0.471041665385627  1.0000
  C   C27       1.0  0.6793039248323608  0.7851804365855697  0.97104196913407  1.0000
  C   C28       1.0  0.8941232386999404  0.21481760715551695  0.5289592135367441  1.0000
  C   C29       1.0  0.3672608906121225  0.1694663196253643  0.9864619272501328  1.0000
  C   C30       1.0  0.19779089261646016  0.8305375341635892  0.5135378607972638  1.0000
  C   C31       1.0  0.6327422620519272  0.8305356414328672  0.013537341943454396  1.0000
  C   C32       1.0  0.8022042463898982  0.1694654112635661  0.4864642333097036  1.0000
  C   C33       1.0  0.46658443406025896  0.24785299654681844  0.950213619586975  1.0000
  C   C34       1.0  0.21872886006936204  0.7521487569401799  0.5497878950722564  1.0000
  C   C35       1.0  0.5334179821235523  0.7521508938887039  0.049786461642369786  1.0000
  C   C36       1.0  0.7812700495022042  0.24785322376573762  0.45021379302013986  1.0000
  C   C37       1.0  0.5116216259263099  0.2005088135087902  0.9057483297786388  1.0000
  C   C38       1.0  0.3111093886652228  0.7994906459304899  0.5942512998114893  1.0000
  C   C39       1.0  0.4883816342961893  0.7994950638472885  0.0942501388495671  1.0000
  C   C40       1.0  0.6888898858751702  0.2005103635511247  0.40574917596205023  1.0000
  C   C41       1.0  0.2190344641765662  0.435564203540082  0.158103041358082  1.0000
  C   C42       1.0  0.7834751838382132  0.564440010340526  0.341895691855342  1.0000
  C   C43       1.0  0.7809639565112506  0.5644367994140326  0.8418966281136446  1.0000
  C   C44       1.0  0.2165256777636842  0.4355590697556552  0.6581039718832642  1.0000
  C   C45       1.0  0.10120412806400485  0.4381916423028898  0.15534803718716006  1.0000
  C   C46       1.0  0.6630147345631272  0.5618071660373474  0.34465084464896717  1.0000
  C   C47       1.0  0.8987978106856004  0.5618112932556086  0.844652847474954  1.0000
  C   C48       1.0  0.3369851623564628  0.43818998469782844  0.6553480070522324  1.0000
  C   C49       1.0  0.2613561303123149  0.41636761130469324  0.2081509767847365  1.0000
  C   C50       1.0  0.8449895969448846  0.5836298427192972  0.29184824328705616  1.0000
  C   C51       1.0  0.7386418096699927  0.5836324302367544  0.7918486898187779  1.0000
  C   C52       1.0  0.15501041898268406  0.41636924718849855  0.7081526299021944  1.0000
  C   C53       1.0  0.026836320559404183  0.42041512165842215  0.20135538065253653  1.0000
  C   C54       1.0  0.6064195422211327  0.5795801340584461  0.29864335956686006  1.0000
  C   C55       1.0  0.9731622532516367  0.5795810840113589  0.7986454839320769  1.0000
  C   C56       1.0  0.39358143021051  0.4204208688712327  0.7013563099073465  1.0000
  C   C57       1.0  0.18859523501446782  0.39992171523015696  0.25487867198562947  1.0000
  C   C58       1.0  0.7886707885292452  0.6000740876975357  0.24512001088474727  1.0000
  C   C59       1.0  0.8114062197583322  0.6000802523800175  0.7451214035072837  1.0000
  C   C60       1.0  0.2113295956384461  0.39992403752161454  0.7548804562866278  1.0000
  C   C61       1.0  0.07028460929709011  0.40100507880434577  0.251164827481439  1.0000
  C   C62       1.0  0.6692817454573401  0.5989920428417647  0.24883402466035415  1.0000
  C   C63       1.0  0.9297117826458957  0.598990165469047  0.7488360342333067  1.0000
  C   C64       1.0  0.3307181547335388  0.4010051144290684  0.7511656333418272  1.0000
  C   C65       1.0  0.027715989523379416  0.3699897102765632  0.3462570253782785  1.0000
  C   C66       1.0  0.657724333178969  0.6300127467196859  0.15374299795066546  1.0000
  C   C67       1.0  0.9722857210241429  0.6300093665436464  0.6537422352106645  1.0000
  C   C68       1.0  0.34227530796589173  0.36998729480546194  0.8462566686545042  1.0000
  C   C69       1.0  0.12327074250539033  0.4937481362412797  0.37496585635950896  1.0000
  C   C70       1.0  0.6295233357544135  0.5062546304711688  0.12503342899477585  1.0000
  C   C71       1.0  0.8767280936229724  0.5062451917098302  0.6250358059230903  1.0000
  C   C72       1.0  0.37047848725849525  0.49374637245036024  0.8749662404802618  1.0000
  C   C73       1.0  0.28150504184282715  0.713301487813709  0.3676556508393886  1.0000
  C   C74       1.0  0.5682017214912207  0.28670036366683854  0.13234534130263137  1.0000
  C   C75       1.0  0.7184917167046334  0.28669278850321694  0.6323444017069875  1.0000
  C   C76       1.0  0.4317987702349129  0.7132996778501591  0.8676543253033626  1.0000
  C   C77       1.0  0.3050820862965579  0.027826344008488494  0.9778838394800216  1.0000
  C   C78       1.0  0.27725643002428774  0.9721763827777323  0.52211596249996  1.0000
  C   C79       1.0  0.6949205889332716  0.9721746621727121  0.022116233146334697  1.0000
  C   C80       1.0  0.7227393379038601  0.0278227169742777  0.47788612013663107  1.0000
  C   C81       1.0  0.3259662273849101  0.9493734896092857  0.013403305030564597  1.0000
  C   C82       1.0  0.37659085382873764  0.0506230218546193  0.48659510512506887  1.0000
  C   C83       1.0  0.674034860783415  0.05062944595735531  0.986597579630718  1.0000
  C   C84       1.0  0.6234063919668243  0.9493722289462807  0.5134065628914753  1.0000
  C   C85       1.0  0.2242804672606271  0.9693952119663864  0.9326858985537142  1.0000
  C   C86       1.0  0.254888338287941  0.030613293804833595  0.5673118017458092  1.0000
  C   C87       1.0  0.7757224312643416  0.030609643149638495  0.06731458869433028  1.0000
  C   C88       1.0  0.7451105761905765  0.9693886967045556  0.43269109579805587  1.0000
  C   C89       1.0  0.2698677232843493  0.8169272918663494  0.004472485126754599  1.0000
  C   C90       1.0  0.45294058351142746  0.18307190006426308  0.4955247438620559  1.0000
  C   C91       1.0  0.7301325143027029  0.18307564370844182  0.9955283995336969  1.0000
  C   C92       1.0  0.5470622432059854  0.8169243055647751  0.5044761207266859  1.0000
  C   C93       1.0  0.1677349179978832  0.8380487041749304  0.9230250453855501  1.0000
  C   C94       1.0  0.3296947968825066  0.1619557842781632  0.5769730643405564  1.0000
  C   C95       1.0  0.8322636184266229  0.16195423141616058  0.07697583927325267  1.0000
  C   C96       1.0  0.670305921410055  0.838048112709302  0.42302782318810717  1.0000
  C   C97       1.0  0.19137769845472252  0.7614936990162844  0.9588524167347854  1.0000
  C   C98       1.0  0.42989191620073086  0.23850864178696435  0.5411458104789018  1.0000
  C   C99       1.0  0.8086215793569664  0.23850731700098754  0.041148865339728495  1.0000
  C   C100      1.0  0.5701106498350086  0.7614904448285671  0.45885465956234117  1.0000
  C   C101      1.0  0.15669620229410702  0.5519179719234515  0.9795082461317431  1.0000
  C   C102      1.0  0.6047821978629244  0.44807245679923813  0.5204908921013285  1.0000
  C   C103      1.0  0.8433031847116794  0.4480849636594896  0.020492638527883897  1.0000
  C   C104      1.0  0.3952222126446969  0.5519218129087164  0.47950835415150544  1.0000
  C   C105      1.0  0.09676175076727841  0.42095744207090047  0.9522276622200747  1.0000
  C   C106      1.0  0.6758090227600418  0.5790395711074865  0.5477666690616161  1.0000
  C   C107      1.0  0.903236782385939  0.5790454869845406  0.0477724161377466  1.0000
  C   C108      1.0  0.3241917132912776  0.42095755674477436  0.4522293605869762  1.0000
  C   C109      1.0  0.04978696142998727  0.20745079861217153  0.9656615818941743  1.0000
  C   C110      1.0  0.8423322850236018  0.7925470216853157  0.5343364996620534  1.0000
  C   C111      1.0  0.9502141201957455  0.7925521238831763  0.03433769016514529  1.0000
  C   C112      1.0  0.15766565986565692  0.2074530296596038  0.46566437639292946  1.0000
  N   N1        1.0  0.4649229601451736  0.6197044508496744  0.0491131604087087  1.0000
  N   N2        1.0  0.8452190844507683  0.38029874893240395  0.45088708696798097  1.0000
  N   N3        1.0  0.5350801941545242  0.3802975134763856  0.9508865119353656  1.0000
  N   N4        1.0  0.15477933787270362  0.6197022572895392  0.5491129856542398  1.0000
  N   N5        1.0  0.3599692902909907  0.3417039429717619  0.04009805361835109  1.0000
  N   N6        1.0  0.018265005250185613  0.658303382779401  0.45990208003464517  1.0000
  N   N7        1.0  0.6400350811944479  0.6582970533896743  0.9599008095581848  1.0000
  N   N8        1.0  0.9817329380034251  0.3416966652976896  0.5400983928698508  1.0000
  O   O1        1.0  0.9888173561205775  0.38387407242935007  0.2938911052609966  1.0000
  O   O2        1.0  0.6049409536499085  0.6161216003066202  0.20610900026240128  1.0000
  O   O3        1.0  0.011176040759622271  0.6161134805345085  0.7061097335088532  1.0000
  O   O4        1.0  0.3950583176191884  0.38387940263935144  0.7938906692101496  1.0000
  O   O5        1.0  0.14347043096854162  0.4971228201791719  0.42364188355159627  1.0000
  O   O6        1.0  0.646353333146955  0.502880553252119  0.07635744065818527  1.0000
  O   O7        1.0  0.8565241489821602  0.5028705012770232  0.5763589724258862  1.0000
  O   O8        1.0  0.353649822788384  0.4971214143417626  0.9236426348363832  1.0000
  O   O9        1.0  0.182761319030547  0.5948181211524428  0.34236909055168485  1.0000
  O   O10       1.0  0.5879409006278138  0.4051844805579137  0.15763101850782138  1.0000
  O   O11       1.0  0.8172392149890655  0.40517520024672393  0.6576317654315886  1.0000
  O   O12       1.0  0.41206007016818086  0.5948165191039365  0.842368247815898  1.0000
  O   O13       1.0  0.1334271255571906  0.6336536293859965  0.9454233831117661  1.0000
  O   O14       1.0  0.49977739566310936  0.3663408926860683  0.5545732201570741  1.0000
  O   O15       1.0  0.8665732228596068  0.3663512290222926  0.05457750728429288  1.0000
  O   O16       1.0  0.5002246847601768  0.6336572227133174  0.44542603756448057  1.0000
  O   O17       1.0  0.05827824826833718  0.39698056324833436  0.9056054433026471  1.0000
  O   O18       1.0  0.6612958825004895  0.603011202139811  0.5943904318690798  1.0000
  O   O19       1.0  0.9417145931332839  0.6030194881454705  0.0943954327473762  1.0000
  O   O20       1.0  0.3386962369083549  0.39698400296043007  0.4056055920356413  1.0000
  O   O21       1.0  0.0941924172241642  0.3347983647546258  0.9874623661071025  1.0000
  O   O22       1.0  0.7593973046360034  0.6652017376389239  0.5125344742877614  1.0000
  O   O23       1.0  0.9058112161453876  0.6652045577162795  0.012536905954696897  1.0000
  O   O24       1.0  0.24060536568688928  0.33479925873880495  0.4874643888871191  1.0000
