data_image0
_chemical_formula_structural       Mg6H42C66S6N12O18
_chemical_formula_sum              "Mg6 H42 C66 S6 N12 O18"
_cell_length_a       6.77980233847183
_cell_length_b       36.469650171875465
_cell_length_c       36.4771383045344
_cell_angle_alpha    119.61823353939974
_cell_angle_beta     93.50770456193473
_cell_angle_gamma    93.5828579474367

_space_group_name_H-M_alt    "P 1"
_space_group_IT_number       1

loop_
  _space_group_symop_operation_xyz
  'x, y, z'

loop_
  _atom_site_type_symbol
  _atom_site_label
  _atom_site_symmetry_multiplicity
  _atom_site_fract_x
  _atom_site_fract_y
  _atom_site_fract_z
  _atom_site_occupancy
  Mg  Mg1       1.0  0.5400320128376349  0.3195568511083239  0.6863739843058881  1.0000
  Mg  Mg2       1.0  0.22053085609223197  0.3668278218819196  0.6804828851107844  1.0000
  Mg  Mg3       1.0  0.853816229649354  0.3137113239734646  0.6332487734419631  1.0000
  Mg  Mg4       1.0  0.7886332635767417  0.670078223522168  0.36377381372390977  1.0000
  Mg  Mg5       1.0  0.11873213407151448  0.6936614404294233  0.32987420577123333  1.0000
  Mg  Mg6       1.0  0.4250494127311981  0.6361721004588006  0.30629703715028006  1.0000
  H   H1        1.0  0.47618566268920404  0.9267719457112662  0.5171839869314142  1.0000
  H   H2        1.0  0.549046322685527  0.5903780652515708  0.07307116938833508  1.0000
  H   H3        1.0  0.9584966869841837  0.482833577531764  0.40964607062152686  1.0000
  H   H4        1.0  0.48434090379952005  0.00016096339128779998  0.5278869012306089  1.0000
  H   H5        1.0  0.48422319179860557  0.5276950954286833  0.9997579927683165  1.0000
  H   H6        1.0  0.9565675662598565  0.47216504745991017  0.4723249713850421  1.0000
  H   H7        1.0  0.6143803945854743  0.060564080512719394  0.5327510169453404  1.0000
  H   H8        1.0  0.5548302769517051  0.4721398916319118  0.9393713063189753  1.0000
  H   H9        1.0  0.08201944850208777  0.4674203614406237  0.5278735049597216  1.0000
  H   H10       1.0  0.7269350494684801  0.12532991208059488  0.550306907134626  1.0000
  H   H11       1.0  0.6017802070498632  0.4249018421472215  0.8745953275391118  1.0000
  H   H12       1.0  0.17714883684937635  0.44986143616778657  0.5750891093014091  1.0000
  H   H13       1.0  0.7756023724473239  0.19996279415463647  0.5906584228635908  1.0000
  H   H14       1.0  0.5755157752818008  0.39065927991764227  0.7999507541681441  1.0000
  H   H15       1.0  0.18504954620559746  0.4093809110946083  0.6093403701935857  1.0000
  H   H16       1.0  0.0676941981396979  0.1998071761121452  0.5478216654411199  1.0000
  H   H17       1.0  0.8673808736512145  0.3480965290100925  0.8003242924662786  1.0000
  H   H18       1.0  0.519570486229128  0.45222031369398513  0.6519490964259732  1.0000
  H   H19       1.0  0.22620372298322175  0.1330333582537477  0.5114130096410108  1.0000
  H   H20       1.0  0.0929996528997563  0.37847844435967903  0.8670311373187972  1.0000
  H   H21       1.0  0.7147182692427877  0.4885907013085387  0.6215646119728506  1.0000
  H   H22       1.0  0.5725620999007077  0.007176569721878001  0.4152475033603906  1.0000
  H   H23       1.0  0.5652828031381035  0.4080507449341226  0.992776551290767  1.0000
  H   H24       1.0  0.154553888851659  0.5849722768257594  0.5920085169725555  1.0000
  H   H25       1.0  0.4658293427979033  0.9299772327253137  0.3715138849539132  1.0000
  H   H26       1.0  0.5358233083536703  0.44150286263135297  0.0699676205593321  1.0000
  H   H27       1.0  0.0913511819565969  0.6286419989274847  0.5584954588327449  1.0000
  H   H28       1.0  0.3734812821842582  0.8873064129816868  0.40479877783163704  1.0000
  H   H29       1.0  0.48635645313937204  0.5174471563635379  0.11261500454542539  1.0000
  H   H30       1.0  0.9668569945187288  0.5952371436009826  0.48251857975537876  1.0000
  H   H31       1.0  0.08429763094105881  0.9001994096109981  0.4435053648233947  1.0000
  H   H32       1.0  0.18422477438900844  0.5432384660714504  0.09982353683285793  1.0000
  H   H33       1.0  0.6394585304879001  0.5565030462883198  0.4567055468029011  1.0000
  H   H34       1.0  0.17169352738824992  0.7935717690211135  0.41811366838825853  1.0000
  H   H35       1.0  0.37842830636344615  0.6244168685860457  0.2064338594026438  1.0000
  H   H36       1.0  0.7533722240386992  0.581937517206974  0.3755623274830101  1.0000
  H   H37       1.0  0.479988814967129  0.8142967040448353  0.3859874724520439  1.0000
  H   H38       1.0  0.6657106375747334  0.571584657032311  0.1857325241637043  1.0000
  H   H39       1.0  0.09272343787728939  0.6138257601510303  0.42810904838136576  1.0000
  H   H40       1.0  0.732584860748439  0.8773631475599971  0.4256642367172604  1.0000
  H   H41       1.0  0.8553197104628155  0.5482309652314257  0.12268156694625534  1.0000
  H   H42       1.0  0.3052248986125718  0.5740903477135645  0.4514643026674464  1.0000
  C   C1        1.0  0.26052211993485513  0.8821103156392597  0.4777061779981014  1.0000
  C   C2        1.0  0.3785496413011131  0.595540648622375  0.11782031790430382  1.0000
  C   C3        1.0  0.7819881634057141  0.5222353576736934  0.40444843002281783  1.0000
  C   C4        1.0  0.42596627131427317  0.9409765711894096  0.46888835199705886  1.0000
  C   C5        1.0  0.4850168785674996  0.5278688849622669  0.05893634803028664  1.0000
  C   C6        1.0  0.9560317224523447  0.5311611756987491  0.47213652607980106  1.0000
  C   C7        1.0  0.48416659913960564  0.9846714455386091  0.49346452765703946  1.0000
  C   C8        1.0  0.4995082273989055  0.5087547034076039  0.015243921182801077  1.0000
  C   C9        1.0  0.9899991716744199  0.5066121400102048  0.4912696793411585  1.0000
  C   C10       1.0  0.5352106053051244  0.0086734151603807  0.474396786811255  1.0000
  C   C11       1.0  0.5266630821862465  0.4656984049555604  0.9912646001639305  1.0000
  C   C12       1.0  0.05957769768535581  0.5257467858545654  0.5343453957339224  1.0000
  C   C13       1.0  0.539720364355226  0.08576004673874849  0.4959272478267211  1.0000
  C   C14       1.0  0.4538131122371  0.4101483354491365  0.9142092785747452  1.0000
  C   C15       1.0  0.043530362432697776  0.504186241207151  0.5898983654450947  1.0000
  C   C16       1.0  0.5112257971751718  0.16187969722908954  0.5490783724427146  1.0000
  C   C17       1.0  0.3492160541863853  0.38720119118729457  0.8381079327944719  1.0000
  C   C18       1.0  0.9623934276141313  0.45101870783661013  0.6128663202598548  1.0000
  C   C19       1.0  0.6191740968932467  0.19938429996560814  0.5810484513394416  1.0000
  C   C20       1.0  0.4196161520760812  0.381659983454945  0.8005911974104692  1.0000
  C   C21       1.0  0.03833525757170971  0.4190665713938273  0.6184262074295932  1.0000
  C   C22       1.0  0.5309733978556537  0.23744560797153721  0.6023892297315571  1.0000
  C   C23       1.0  0.29321720822000685  0.3649559272490918  0.7625767575452684  1.0000
  C   C24       1.0  0.9286534473573625  0.39773777025325074  0.6351594320204229  1.0000
  C   C25       1.0  0.32584457153703283  0.23705287763330324  0.5899294619821094  1.0000
  C   C26       1.0  0.08840701068205453  0.35291372160821777  0.7630152972242856  1.0000
  C   C27       1.0  0.7359110677086349  0.410185793602885  0.6472048148398103  1.0000
  C   C28       1.0  0.2229360387579292  0.19905232994928215  0.5568717609201956  1.0000
  C   C29       1.0  0.02346846095347397  0.3578718558859606  0.8010242359642704  1.0000
  C   C30       1.0  0.6660039271293103  0.44320888668202935  0.6422180326141318  1.0000
  C   C31       1.0  0.3101263004922075  0.16185219523741518  0.5365717910915678  1.0000
  C   C32       1.0  0.14802834873503207  0.3747679287549915  0.8381862308432562  1.0000
  C   C33       1.0  0.7736100108908347  0.4634883210043412  0.625297943042824  1.0000
  C   C34       1.0  0.21318442092626094  0.2737465199838168  0.6105498633135299  1.0000
  C   C35       1.0  0.9391203191145866  0.3368430578084941  0.7263289768574313  1.0000
  C   C36       1.0  0.6024937382315868  0.38954848941290265  0.6632688397964587  1.0000
  C   C37       1.0  0.5309806485623411  0.9888448579679049  0.4301581817917183  1.0000
  C   C38       1.0  0.5421141931416501  0.44128776212117765  0.01109773879599627  1.0000
  C   C39       1.0  0.0985618446579579  0.5700098592748901  0.5587602759946861  1.0000
  C   C40       1.0  0.4694739518287322  0.9454994883276981  0.4059272902591787  1.0000
  C   C41       1.0  0.5240279148526242  0.4603905075727894  0.054437825042754226  1.0000
  C   C42       1.0  0.06121137957077846  0.5942057412666982  0.5396130826371036  1.0000
  C   C43       1.0  0.41627603414462305  0.9212875361799533  0.4244444853805832  1.0000
  C   C44       1.0  0.49511997504819055  0.503125839820875  0.07864788614061526  1.0000
  C   C45       1.0  0.9901300045728122  0.5756271619322249  0.4968665791059054  1.0000
  C   C46       1.0  0.9683540248264678  0.8392994228217531  0.42495192002414944  1.0000
  C   C47       1.0  0.12927496729165708  0.5855801700139337  0.1606944278466216  1.0000
  C   C48       1.0  0.5424090466580651  0.5749277069839849  0.4142826525912327  1.0000
  C   C49       1.0  0.02055127262224236  0.7986450632131294  0.41149291034927443  1.0000
  C   C50       1.0  0.22212993287602958  0.6127524881180476  0.2013533485886967  1.0000
  C   C51       1.0  0.6085824883646113  0.5884557890408004  0.38715391090089213  1.0000
  C   C52       1.0  0.8802508311278531  0.7628430163397724  0.38890144648480895  1.0000
  C   C53       1.0  0.11749489419148772  0.6259685224203863  0.2371342686487239  1.0000
  C   C54       1.0  0.4909897180182625  0.6110388324692905  0.37393086947889037  1.0000
  C   C55       1.0  0.6796655104409554  0.7689011227011591  0.3800871653587168  1.0000
  C   C56       1.0  0.9108160894418376  0.6111072270300963  0.2310913040733453  1.0000
  C   C57       1.0  0.29901871450701384  0.6198191125573375  0.38874175519747217  1.0000
  C   C58       1.0  0.6330990911984885  0.810490439306399  0.393314896034312  1.0000
  C   C59       1.0  0.8225930168204626  0.5827359120251072  0.18951709088575797  1.0000
  C   C60       1.0  0.2386678326863674  0.606514956064295  0.417015375020327  1.0000
  C   C61       1.0  0.7732056774490916  0.8454291325675458  0.41516727046587953  1.0000
  C   C62       1.0  0.9278469332940417  0.569678399588099  0.15458651868431153  1.0000
  C   C63       1.0  0.3566375119428713  0.5846235408592619  0.4300831121169183  1.0000
  C   C64       1.0  0.5200989819613824  0.7337270915707917  0.3576442993089374  1.0000
  C   C65       1.0  0.7863476506638707  0.623850618255979  0.2662599455134115  1.0000
  C   C66       1.0  0.16219218601170848  0.6422907200339267  0.3760280518637914  1.0000
  S   S1        1.0  0.293761940941103  0.853689942072677  0.5012066095398782  1.0000
  S   S2        1.0  0.44035647878576617  0.6474679891959169  0.1461948724020843  1.0000
  S   S3        1.0  0.7920312798498587  0.49867151596659204  0.35253393765363245  1.0000
  S   S4        1.0  0.4249875184874483  0.0812037153405001  0.4524590395483373  1.0000
  S   S5        1.0  0.342904757446739  0.37131145649094316  0.9188319596338206  1.0000
  S   S6        1.0  0.97188486468918  0.5476096318682765  0.6288376371046526  1.0000
  N   N1        1.0  0.3872368295463177  0.9184624040614083  0.4902430371045485  1.0000
  N   N2        1.0  0.4686930258114188  0.5717286717191853  0.08143505983629509  1.0000
  N   N3        1.0  0.8962329699612969  0.5097609139769548  0.4282807612099051  1.0000
  N   N4        1.0  0.5872568525729349  0.05255149417425289  0.5018047780612848  1.0000
  N   N5        1.0  0.5351022642390433  0.4492131795857474  0.9473874527458437  1.0000
  N   N6        1.0  0.08486450744518242  0.498348748469418  0.5508116182623299  1.0000
  N   N7        1.0  0.6034656300808265  0.12441425926670038  0.5324538003909396  1.0000
  N   N8        1.0  0.4790637604703748  0.40799249327236004  0.8755371707370829  1.0000
  N   N9        1.0  0.07127531965837626  0.4676632367651763  0.592021280488048  1.0000
  N   N10       1.0  0.10928055744276582  0.8750700849289997  0.4474528719768217  1.0000
  N   N11       1.0  0.23442846365768588  0.5723168716161451  0.12493644761249106  1.0000
  N   N12       1.0  0.6607013084465551  0.5524760025663512  0.427609657652397  1.0000
  O   O1        1.0  0.03457639773319701  0.2723557797117167  0.5963546934458892  1.0000
  O   O2        1.0  0.761962027392478  0.32398333721345546  0.7277132562260322  1.0000
  O   O3        1.0  0.4381708920506143  0.40376936257186463  0.6761103549825196  1.0000
  O   O4        1.0  0.2968563727128668  0.307388906390308  0.6444232701706627  1.0000
  O   O5        1.0  0.9891852677086277  0.3371427912741964  0.6927059394798223  1.0000
  O   O6        1.0  0.6521757137726354  0.3556279365162355  0.6629748777761862  1.0000
  O   O7        1.0  0.6415716536280556  0.27205835056389555  0.6333884124895521  1.0000
  O   O8        1.0  0.3692068294706345  0.3612919079804584  0.7279429840030647  1.0000
  O   O9        1.0  0.00820819084383831  0.3667386503493261  0.6387770356921437  1.0000
  O   O10       1.0  0.3455003957612348  0.7401704749896821  0.3487761426815086  1.0000
  O   O11       1.0  0.6052806776766531  0.6085081321582421  0.2598256745710259  1.0000
  O   O12       1.0  0.9963165076077801  0.6511730050358648  0.3913317926644453  1.0000
  O   O13       1.0  0.5599672000204876  0.6957246926783824  0.3475019504650165  1.0000
  O   O14       1.0  0.8641110032288069  0.651762856390853  0.30422817007249153  1.0000
  O   O15       1.0  0.21246398767631558  0.6524443707970065  0.3481857678568689  1.0000
  O   O16       1.0  0.9441742051801327  0.7247388778819043  0.37637108154276433  1.0000
  O   O17       1.0  0.21943671895601827  0.6515579527738211  0.275221233700151  1.0000
  O   O18       1.0  0.567697601657173  0.6235954708953811  0.34839226839605436  1.0000
