data_image0
_chemical_formula_structural       Zn2H40C44N4O8
_chemical_formula_sum              "Zn2 H40 C44 N4 O8"
_cell_length_a       6.964791126721365
_cell_length_b       9.367042608990733
_cell_length_c       16.24742395598464
_cell_angle_alpha    90.65332721391097
_cell_angle_beta     102.37524965864066
_cell_angle_gamma    90.61419011531478

_space_group_name_H-M_alt    "P 1"
_space_group_IT_number       1

loop_
  _space_group_symop_operation_xyz
  'x, y, z'

loop_
  _atom_site_type_symbol
  _atom_site_label
  _atom_site_symmetry_multiplicity
  _atom_site_fract_x
  _atom_site_fract_y
  _atom_site_fract_z
  _atom_site_occupancy
  Zn  Zn1       1.0  0.8825757813012486  0.772949910383659  0.19345358759611025  1.0000
  Zn  Zn2       1.0  0.11742789429331423  0.2270443474134681  0.8065476031848604  1.0000
  H   H1        1.0  0.255759628162437  0.10180544065023873  0.4057407187954495  1.0000
  H   H2        1.0  0.7442151773717073  0.8982049582213709  0.5942617542931499  1.0000
  H   H3        1.0  0.0319360945501614  0.17438128887349794  0.3482893411247545  1.0000
  H   H4        1.0  0.9680412583954163  0.8256205535629564  0.65170714284433  1.0000
  H   H5        1.0  0.5590849834409682  0.1182005133808914  0.3520708366033601  1.0000
  H   H6        1.0  0.4409017404130041  0.8818109054768759  0.6479376061400046  1.0000
  H   H7        1.0  0.7456894099087849  0.2507856776652559  0.26192569547278305  1.0000
  H   H8        1.0  0.25429660550026517  0.7492065194791524  0.7380751735915962  1.0000
  H   H9        1.0  0.573180198771567  0.40623658845279215  0.1486827029585456  1.0000
  H   H10       1.0  0.4268201383015723  0.593747002927863  0.8513138184447513  1.0000
  H   H11       1.0  0.0204220363610617  0.29182367635998224  0.2104415740864809  1.0000
  H   H12       1.0  0.9795534973770971  0.7081674941484196  0.7895522194576968  1.0000
  H   H13       1.0  0.2853912344690386  0.5122471573801093  0.07508268486743928  1.0000
  H   H14       1.0  0.7146096859018343  0.48775031733558194  0.9249219799242352  1.0000
  H   H15       1.0  0.10336910312708622  0.37601345671487973  0.046993066992691  1.0000
  H   H16       1.0  0.896624166344708  0.6239851121416252  0.9529986276677603  1.0000
  H   H17       1.0  0.6420584870963282  0.01953425734483011  0.17645125397088887  1.0000
  H   H18       1.0  0.35794512939526874  0.9804696056176927  0.8235382995585352  1.0000
  H   H19       1.0  0.3033338351542412  0.08858736911525261  0.11017509847318507  1.0000
  H   H20       1.0  0.6966758113373641  0.9114196731433423  0.889817463510738  1.0000
  H   H21       1.0  0.261017059658478  0.7027089723833768  0.957200531927249  1.0000
  H   H22       1.0  0.7389952806547412  0.2972937847801519  0.04278731266784059  1.0000
  H   H23       1.0  0.6003604430929742  0.6457263415788077  0.035656910402863694  1.0000
  H   H24       1.0  0.3996372875097051  0.35426794008583323  0.9643413002761534  1.0000
  H   H25       1.0  0.03742280536841489  0.9452171931471655  0.9149405497952685  1.0000
  H   H26       1.0  0.9625847408544813  0.05477917331329963  0.0850388333818444  1.0000
  H   H27       1.0  0.9523720839248212  0.8395588587780267  0.9885364295094801  1.0000
  H   H28       1.0  0.04764290768399349  0.16044174736692443  0.011443014816627798  1.0000
  H   H29       1.0  0.4858346454157072  0.7591571674306581  0.23963591819722294  1.0000
  H   H30       1.0  0.514175447467359  0.24084988097452958  0.760373301805032  1.0000
  H   H31       1.0  0.33464391877802047  0.6420976198582053  0.3441157478470842  1.0000
  H   H32       1.0  0.6653749230366302  0.357947840773413  0.6559086428587406  1.0000
  H   H33       1.0  0.8866626820050243  0.42906283702208003  0.435680750048256  1.0000
  H   H34       1.0  0.11333821237283812  0.5709367719977437  0.5643208488269095  1.0000
  H   H35       1.0  0.022050364873543102  0.565006257650424  0.32850554893160216  1.0000
  H   H36       1.0  0.9779359678449778  0.4349549648316966  0.6714828348471682  1.0000
  H   H37       1.0  0.5973569363809685  0.3560348966867083  0.4888580217746464  1.0000
  H   H38       1.0  0.4026586236282625  0.6439945616542745  0.5111690558629574  1.0000
  H   H39       1.0  0.3614346319509352  0.40707814401020675  0.43380472528640707  1.0000
  H   H40       1.0  0.638589632959942  0.592954477595363  0.5662157455111299  1.0000
  C   C1        1.0  0.0978063013253063  0.967009219565718  0.3055851946719415  1.0000
  C   C2        1.0  0.9021961336295804  0.03298931690428471  0.6944202245960723  1.0000
  C   C3        1.0  0.1646889292600378  0.11575824632371479  0.34244672731295367  1.0000
  C   C4        1.0  0.8352944466125151  0.8842446406493707  0.6575545970998602  1.0000
  C   C5        1.0  0.2769718829224317  0.19749349964239124  0.2880882943458403  1.0000
  C   C6        1.0  0.7230141395596519  0.802500832261451  0.7119107427293158  1.0000
  C   C7        1.0  0.4818876292467422  0.18563642465673524  0.3014914559049159  1.0000
  C   C8        1.0  0.5180941989757669  0.8143654001067305  0.6985078801042801  1.0000
  C   C9        1.0  0.5863466342431353  0.2600526649446807  0.2510177851137385  1.0000
  C   C10       1.0  0.41363345036401  0.7399363542695527  0.7489837772779849  1.0000
  C   C11       1.0  0.4888652502097984  0.3467817983613274  0.1865267671356676  1.0000
  C   C12       1.0  0.5111170771853679  0.6531890542440241  0.813466870187973  1.0000
  C   C13       1.0  0.2839068189820679  0.3580903483046072  0.17124757660236867  1.0000
  C   C14       1.0  0.7160804323366675  0.6418986374328098  0.8287478394985399  1.0000
  C   C15       1.0  0.18011926390427394  0.28335550283474487  0.22241044445941324  1.0000
  C   C16       1.0  0.8198724390853513  0.716631330242592  0.777589038707191  1.0000
  C   C17       1.0  0.17813370061245593  0.44676018142799034  0.09870336173431578  1.0000
  C   C18       1.0  0.8218581062613382  0.553233057065924  0.9012937102828147  1.0000
  C   C19       1.0  0.0240570929629982  0.5428871443060075  0.1230619640030781  1.0000
  C   C20       1.0  0.9759406990417503  0.4571082055351284  0.8769374900540681  1.0000
  C   C21       1.0  0.5515515500156027  0.9524553572595666  0.12772689812233295  1.0000
  C   C22       1.0  0.44844328602621886  0.047540004742984414  0.8722716828474757  1.0000
  C   C23       1.0  0.36173193301891626  0.9905817708092712  0.08931680071458459  1.0000
  C   C24       1.0  0.6382625605595393  0.009412519146707201  0.9106700484951842  1.0000
  C   C25       1.0  0.2507346669087553  0.9020026584911566  0.026605803574433703  1.0000
  C   C26       1.0  0.7492776309223715  0.09799476143229671  0.9733856955482664  1.0000
  C   C27       1.0  0.34005741151866437  0.7772474993335764  0.005230865947993389  1.0000
  C   C28       1.0  0.659952270425933  0.22275527408909568  0.9947672109053088  1.0000
  C   C29       1.0  0.5285571619131915  0.7442809867729282  0.04771442629254348  1.0000
  C   C30       1.0  0.4714450722585326  0.2557218162564823  0.95227930846967  1.0000
  C   C31       1.0  0.043328036980632596  0.9344931939484411  0.9830543016070548  1.0000
  C   C32       1.0  0.9566766099514157  0.06550532011583243  0.016924227384414806  1.0000
  C   C33       1.0  0.5723940159001729  0.6871575358721388  0.2847410008947975  1.0000
  C   C34       1.0  0.42761929270016463  0.3128580425965169  0.7152704017288725  1.0000
  C   C35       1.0  0.4868300219324838  0.6181395261535417  0.34321089710974206  1.0000
  C   C36       1.0  0.5131748296736093  0.3818878350984249  0.6568016919931023  1.0000
  C   C37       1.0  0.597634264280039  0.5229083428933095  0.39925036853735907  1.0000
  C   C38       1.0  0.4023791057223746  0.477108303751848  0.6007622774644472  1.0000
  C   C39       1.0  0.793988724029248  0.5033582806853687  0.39408815447983153  1.0000
  C   C40       1.0  0.2060123522118077  0.49664133083862805  0.6059202309953946  1.0000
  C   C41       1.0  0.8702197122790735  0.5773414131778767  0.33450055405104  1.0000
  C   C42       1.0  0.12978349101887693  0.4226400301436685  0.6654955876106142  1.0000
  C   C43       1.0  0.5087358387895193  0.44840267202602757  0.46361113017143646  1.0000
  C   C44       1.0  0.49129266286303164  0.5516277939599945  0.5364053871644572  1.0000
  N   N1        1.0  0.6340035074942492  0.8304684392513838  0.10854288442722286  1.0000
  N   N2        1.0  0.36600311694628834  0.16953114294145172  0.891453674022557  1.0000
  N   N3        1.0  0.7612557601418644  0.667816968926161  0.2802799967295613  1.0000
  N   N4        1.0  0.23874909707726025  0.33216767273035697  0.71972000312833  1.0000
  O   O1        1.0  0.1612089734315418  0.8571284099847748  0.3440885003154434  1.0000
  O   O2        1.0  0.8388111500448902  0.142873254859154  0.6559172501200123  1.0000
  O   O3        1.0  0.972948946914073  0.9685379639392476  0.23337687971626755  1.0000
  O   O4        1.0  0.027053155081361493  0.031449894635827  0.7666265941523276  1.0000
  O   O5        1.0  0.8482713749929828  0.5020766958849381  0.11163544067420615  1.0000
  O   O6        1.0  0.1517249992828198  0.4979143915424586  0.8883700171541093  1.0000
  O   O7        1.0  0.08950540694692678  0.6653138504999279  0.15649480344271177  1.0000
  O   O8        1.0  0.9104938807218517  0.33468683015910733  0.8435005071850339  1.0000
