data_image0
_chemical_formula_structural       Zn2H82C74N6O16
_chemical_formula_sum              "Zn2 H82 C74 N6 O16"
_cell_length_a       10.60842036502859
_cell_length_b       18.791003874244694
_cell_length_c       19.166030537610638
_cell_angle_alpha    89.55178956690273
_cell_angle_beta     94.12969353770261
_cell_angle_gamma    89.93975183305413

_space_group_name_H-M_alt    "P 1"
_space_group_IT_number       1

loop_
  _space_group_symop_operation_xyz
  'x, y, z'

loop_
  _atom_site_type_symbol
  _atom_site_label
  _atom_site_symmetry_multiplicity
  _atom_site_fract_x
  _atom_site_fract_y
  _atom_site_fract_z
  _atom_site_occupancy
  Zn  Zn1       1.0  0.510161377844554  0.41888576312521764  0.501635090487717  1.0000
  Zn  Zn2       1.0  0.5167716342245469  0.5862321414202468  0.5018024152599949  1.0000
  H   H1        1.0  0.4390614860743439  0.6232655024240543  0.7220392293699333  1.0000
  H   H2        1.0  0.5974591164260019  0.4076857749666445  0.27212764520974986  1.0000
  H   H3        1.0  0.3398974594881138  0.5811913564874374  0.2969443980501723  1.0000
  H   H4        1.0  0.39206860555699297  0.3965652611250121  0.7072370906011967  1.0000
  H   H5        1.0  0.17442978285415478  0.4489816956172916  0.9271428920263031  1.0000
  H   H6        1.0  0.5465824117896432  0.5393932415572704  0.0719232800120011  1.0000
  H   H7        1.0  0.1811161974053022  0.43870760301966516  0.0563666761083468  1.0000
  H   H8        1.0  0.5398767042068114  0.5502929274022322  0.9430380080865317  1.0000
  H   H9        1.0  0.5159733281124517  0.17045094275933081  0.6171032057812766  1.0000
  H   H10       1.0  0.32365841853844296  0.8322766956909932  0.44370697535546083  1.0000
  H   H11       1.0  0.4740989372033225  0.169006631280574  0.39257376035167363  1.0000
  H   H12       1.0  0.6814249357895433  0.8370717256781005  0.5634451646059799  1.0000
  H   H13       1.0  0.015025764871410302  0.6603938242222539  0.3683248142059056  1.0000
  H   H14       1.0  0.0110559852611587  0.5864852617360085  0.3113869767121854  1.0000
  H   H15       1.0  0.8907009104967044  0.6519200445755544  0.3021553487694675  1.0000
  H   H16       1.0  0.8059959020152191  0.5459015473307147  0.36193883269493904  1.0000
  H   H17       1.0  0.8138654847583948  0.6182369285133192  0.41853189611924074  1.0000
  H   H18       1.0  0.009808569179298801  0.39337894455029226  0.6754048805985207  1.0000
  H   H19       1.0  0.005993684208071697  0.3217224340757667  0.615885444817934  1.0000
  H   H20       1.0  0.13114440577804487  0.3285349326009737  0.6823089717719453  1.0000
  H   H21       1.0  0.20700301472865593  0.36730518923553035  0.56683825514326  1.0000
  H   H22       1.0  0.21364146442632403  0.4370191362981685  0.6266539439656498  1.0000
  H   H23       1.0  0.9133442994801156  0.3801089340448413  0.32615675733730837  1.0000
  H   H24       1.0  0.9011196787612406  0.4683921784317987  0.2932030612028028  1.0000
  H   H25       1.0  0.005460808573026599  0.4074173405779078  0.2571481857602648  1.0000
  H   H26       1.0  0.12855739149387796  0.49124074726057637  0.3367304222369113  1.0000
  H   H27       1.0  0.1435568600232884  0.4035818874764203  0.3678164929578783  1.0000
  H   H28       1.0  0.12385125082850831  0.5168414203976681  0.6941693218510279  1.0000
  H   H29       1.0  0.1076140123773968  0.605494983615678  0.662688922841866  1.0000
  H   H30       1.0  0.019563315834531598  0.5761919314507367  0.7327688146111058  1.0000
  H   H31       1.0  0.8776626533144947  0.5805030354997031  0.623207997322659  1.0000
  H   H32       1.0  0.8951889827800341  0.4925963921390134  0.6534733168391041  1.0000
  H   H33       1.0  0.0589655283951913  0.3039291194298456  0.4105616348067754  1.0000
  H   H34       1.0  0.0884254634602328  0.2877066404776656  0.5013552716042327  1.0000
  H   H35       1.0  0.967741244256352  0.23990198035468782  0.4530980965052435  1.0000
  H   H36       1.0  0.8675650080998165  0.3343134078913366  0.5212398303815888  1.0000
  H   H37       1.0  0.8407010961264445  0.35153376814930937  0.4319047850837805  1.0000
  H   H38       1.0  0.9229592044139562  0.6953579561515754  0.4918494706189449  1.0000
  H   H39       1.0  0.9658943779528781  0.6827021368678602  0.582308092759277  1.0000
  H   H40       1.0  0.04718183568937209  0.7461016313395987  0.5337458636364544  1.0000
  H   H41       1.0  0.17927789157366897  0.6364965696717279  0.5544678997960517  1.0000
  H   H42       1.0  0.14232264963902  0.6527420872773034  0.46566943411171013  1.0000
  H   H43       1.0  0.6839385992864564  0.22188539040309516  0.6828368445062124  1.0000
  H   H44       1.0  0.7706886386238025  0.274893760505762  0.6258341940378143  1.0000
  H   H45       1.0  0.7323231817608259  0.30874433632151  0.7078795045046958  1.0000
  H   H46       1.0  0.5893317209342612  0.36461445699983847  0.6177920371502665  1.0000
  H   H47       1.0  0.5001848250633998  0.30612997206748815  0.6668328420829609  1.0000
  H   H48       1.0  0.17272565982948856  0.7590313337401113  0.3925655940864558  1.0000
  H   H49       1.0  0.28978749074671123  0.7842169593534507  0.3350073412786543  1.0000
  H   H50       1.0  0.20127093465296036  0.7057728166608398  0.3193446245284831  1.0000
  H   H51       1.0  0.4155539633070332  0.6740145393976675  0.3694571944127816  1.0000
  H   H52       1.0  0.30426574597961314  0.6472633881973522  0.4262819178827044  1.0000
  H   H53       1.0  0.40343676286036606  0.22547849519450847  0.2990433495555251  1.0000
  H   H54       1.0  0.26925041382232706  0.2472464626746457  0.3453202401356846  1.0000
  H   H55       1.0  0.31949393252610747  0.30515785410397456  0.27933405112776905  1.0000
  H   H56       1.0  0.38397082913355957  0.3581241099717757  0.39186605902909116  1.0000
  H   H57       1.0  0.5203843012054178  0.3314424126138036  0.35370342010322275  1.0000
  H   H58       1.0  0.8298750222678207  0.7777314205915147  0.6215948184626399  1.0000
  H   H59       1.0  0.701921016288999  0.7690603050747453  0.6763571802772288  1.0000
  H   H60       1.0  0.8242402465537922  0.7045429480804868  0.6797226348577112  1.0000
  H   H61       1.0  0.6374798161741637  0.6542294813605523  0.615186670295749  1.0000
  H   H62       1.0  0.7562403216060288  0.6646692037579668  0.5579138473769305  1.0000
  H   H63       1.0  0.18149121042516467  0.0719609700456729  0.5065836804236383  1.0000
  H   H64       1.0  0.2529778415176125  0.15581613870875094  0.49328838139103937  1.0000
  H   H65       1.0  0.12324840933286647  0.12845845942499073  0.4365520147310277  1.0000
  H   H66       1.0  0.3216086903545943  0.11184060337147629  0.37640301624991673  1.0000
  H   H67       1.0  0.24399587871047143  0.031567361866571296  0.3898112564226111  1.0000
  H   H68       1.0  0.3934911255731777  0.9333150442297012  0.6637391973828456  1.0000
  H   H69       1.0  0.44418221427234517  0.8493765771622674  0.6344024384302782  1.0000
  H   H70       1.0  0.4981284380255317  0.8798757532140371  0.7186887108044004  1.0000
  H   H71       1.0  0.6702346953988892  0.8978462753758834  0.6384418707342192  1.0000
  H   H72       1.0  0.6149091313789938  0.9778050356349155  0.6701110263915666  1.0000
  H   H73       1.0  0.8089465678114178  0.0638001381877089  0.5040796477860068  1.0000
  H   H74       1.0  0.7403746415719394  0.14931783071080668  0.5115599351287725  1.0000
  H   H75       1.0  0.8690322201550698  0.1230612565420515  0.5703670790666564  1.0000
  H   H76       1.0  0.6697393927626719  0.11305014668268142  0.6308804440059318  1.0000
  H   H77       1.0  0.7432029232637163  0.030589170092426288  0.622976367368679  1.0000
  H   H78       1.0  0.5924745455661551  0.9388315328348826  0.3427156769618165  1.0000
  H   H79       1.0  0.5481540883644412  0.8537028009998481  0.3730663921048034  1.0000
  H   H80       1.0  0.4866853404092807  0.8849929498580875  0.2899800217557099  1.0000
  H   H81       1.0  0.319579162831772  0.8996355316804027  0.3733325591872116  1.0000
  H   H82       1.0  0.37052456152014906  0.9806883023824541  0.341341972353014  1.0000
  C   C1        1.0  0.5209334304128247  0.5038425632373985  0.3686350282629931  1.0000
  C   C2        1.0  0.46242430719335903  0.511916363778731  0.6327816100528593  1.0000
  C   C3        1.0  0.27404667758511886  0.4976511568048565  0.48305327726220776  1.0000
  C   C4        1.0  0.7489068053661683  0.49149148073262  0.5136098584842514  1.0000
  C   C5        1.0  0.03524632354814369  0.47052085170243874  0.429376985247643  1.0000
  C   C6        1.0  0.9858241786375642  0.5148245312539643  0.560158590270511  1.0000
  C   C7        1.0  0.9687076611317449  0.4234274366501864  0.4850279219003965  1.0000
  C   C8        1.0  0.050599479270068984  0.5622724295596483  0.5044327495915722  1.0000
  C   C9        1.0  0.9485297675947135  0.5363838913190406  0.4454167228345724  1.0000
  C   C10       1.0  0.0710875212363078  0.4489083398561676  0.543683390583972  1.0000
  C   C11       1.0  0.8848927321265164  0.48910899473390407  0.5009313018550827  1.0000
  C   C12       1.0  0.135261309430625  0.4971051222166879  0.48809183125179334  1.0000
  C   C13       1.0  0.4177965183271154  0.5721818362300936  0.7456497490952714  1.0000
  C   C14       1.0  0.5229270957546034  0.4433791798400647  0.251174434185863  1.0000
  C   C15       1.0  0.3781040256368726  0.5400235708802724  0.2648673670876676  1.0000
  C   C16       1.0  0.3915671286885426  0.4452675804114037  0.7375248272134414  1.0000
  C   C17       1.0  0.3851571032649374  0.5684691743996879  0.8145108710724003  1.0000
  C   C18       1.0  0.4770735452859895  0.4382559912839809  0.18158697284436437  1.0000
  C   C19       1.0  0.33243043486098856  0.5323979763989897  0.19548361322409843  1.0000
  C   C20       1.0  0.3662984146583739  0.44321094768263675  0.8076898583206853  1.0000
  C   C21       1.0  0.3641055308591418  0.5039627187331277  0.8497679228694324  1.0000
  C   C22       1.0  0.3824326291772167  0.4830342815587798  0.15006688027920487  1.0000
  C   C23       1.0  0.4226195328217912  0.5098946763865585  0.7067348298955167  1.0000
  C   C24       1.0  0.4742638265630319  0.49551006092310973  0.2931279158905368  1.0000
  C   C25       1.0  0.2560714574346362  0.46898817885516314  0.9588547262629984  1.0000
  C   C26       1.0  0.46454415190339665  0.5200233604932478  0.04010392141663031  1.0000
  C   C27       1.0  0.25929046317700966  0.46330061244714216  0.0314582360834521  1.0000
  C   C28       1.0  0.46048659961380156  0.526472935178205  0.9677740320609513  1.0000
  C   C29       1.0  0.36417385336650904  0.4882046838556846  0.07250901799383769  1.0000
  C   C30       1.0  0.35676934203512184  0.5003236674343012  0.9265053660296301  1.0000
  C   C31       1.0  0.5268843342911395  0.2703071967664883  0.5636254401959063  1.0000
  C   C32       1.0  0.4224396877108703  0.7342248623386992  0.46061095418750836  1.0000
  C   C33       1.0  0.47586296685281576  0.2701243488520717  0.4426739760940706  1.0000
  C   C34       1.0  0.6000474572083192  0.735568257313055  0.5402942988267013  1.0000
  C   C35       1.0  0.5112552631654522  0.19663257272234347  0.5662366437428545  1.0000
  C   C36       1.0  0.40701459930905765  0.807238722097182  0.4689433974573872  1.0000
  C   C37       1.0  0.48286765637104156  0.1961921378459195  0.44240797407100263  1.0000
  C   C38       1.0  0.6016836376240134  0.8097123909124446  0.5374629352823277  1.0000
  C   C39       1.0  0.4958295795057522  0.15688580502583696  0.5049169121279604  1.0000
  C   C40       1.0  0.5009460383313494  0.8483002838302623  0.5043877311092686  1.0000
  C   C41       1.0  0.4132556648207241  0.040066488269332005  0.4568817799833765  1.0000
  C   C42       1.0  0.5562212370128278  0.9655822463903406  0.5621450254552727  1.0000
  C   C43       1.0  0.5755835582663663  0.039476577255754805  0.5541832950080304  1.0000
  C   C44       1.0  0.4341559596565715  0.966377030556103  0.448669488503448  1.0000
  C   C45       1.0  0.4962470266498542  0.9273868040613139  0.5051871249496926  1.0000
  C   C46       1.0  0.4942367851737187  0.07790476152779038  0.5055225701734756  1.0000
  C   C47       1.0  0.8734749438908407  0.5810315009939799  0.3914599355624801  1.0000
  C   C48       1.0  0.9520860900645047  0.622003733003389  0.3406578549529867  1.0000
  C   C49       1.0  0.14687903047786927  0.4028359037985183  0.5957462662287583  1.0000
  C   C50       1.0  0.0689925748760913  0.3592101852292799  0.6448952437657025  1.0000
  C   C51       1.0  0.07480022118814839  0.4473324870202831  0.35908218370845185  1.0000
  C   C52       1.0  0.9676217965671723  0.42464715612343445  0.3061646576403447  1.0000
  C   C53       1.0  0.9471132852677397  0.537014549421393  0.6308894399604839  1.0000
  C   C54       1.0  0.05559211512586871  0.5601169006018338  0.6828592167173894  1.0000
  C   C55       1.0  0.9162841873948578  0.3494231373786505  0.4745190012261843  1.0000
  C   C56       1.0  0.0133083863051695  0.29227414451734296  0.4590173244262559  1.0000
  C   C57       1.0  0.10009972501212867  0.6369308942940392  0.5140701913554153  1.0000
  C   C58       1.0  0.0032420643894326005  0.6931056985330741  0.5313512513412633  1.0000
  C   C59       1.0  0.5741021565566626  0.308364158415081  0.6292851561575645  1.0000
  C   C60       1.0  0.6970248927728732  0.276284359549159  0.6632560847007625  1.0000
  C   C61       1.0  0.3460851605315938  0.6950302243824282  0.4040602889685516  1.0000
  C   C62       1.0  0.2471384479985019  0.7386824779172231  0.36085563725409026  1.0000
  C   C63       1.0  0.43564411463475483  0.3107116610617098  0.3767266996850083  1.0000
  C   C64       1.0  0.3529931393533515  0.2693980996179235  0.3223896604647364  1.0000
  C   C65       1.0  0.6919641328053955  0.6950156518031747  0.5890330707067263  1.0000
  C   C66       1.0  0.7657746174403285  0.7394477280231797  0.6443224008964563  1.0000
  C   C67       1.0  0.2980554124270681  0.07384710937152758  0.4173069253884449  1.0000
  C   C68       1.0  0.2094033124383401  0.1097296842800972  0.46643094217904485  1.0000
  C   C69       1.0  0.5882833799045598  0.9337850851876299  0.6348141831782356  1.0000
  C   C70       1.0  0.47433328445271167  0.8966533473069801  0.6642842457712843  1.0000
  C   C71       1.0  0.6916926472823092  0.0725084395219042  0.5926979645504317  1.0000
  C   C72       1.0  0.7823267066100286  0.10415007642897933  0.5415529726952213  1.0000
  C   C73       1.0  0.4005005385848365  0.9361587308536344  0.37595847712850616  1.0000
  C   C74       1.0  0.5136183312153264  0.9010932604816093  0.3439927339691663  1.0000
  N   N1        1.0  0.5040181887030712  0.30713172352250945  0.5027599069835276  1.0000
  N   N2        1.0  0.5139772299860113  0.6978303830010761  0.4996215940897811  1.0000
  N   N3        1.0  0.37087690145605007  0.6369993838479074  0.850749567824721  1.0000
  N   N4        1.0  0.5323388189451065  0.3814268489903441  0.1401234924611146  1.0000
  N   N5        1.0  0.23035801594711805  0.5816124465117909  0.17005342109958113  1.0000
  N   N6        1.0  0.350545758672382  0.3714391978960733  0.8382723630606818  1.0000
  O   O1        1.0  0.5662126405089791  0.44897020487065487  0.40020031172333853  1.0000
  O   O2        1.0  0.4999429798184493  0.571467623575117  0.6105881752372966  1.0000
  O   O3        1.0  0.45449655003949363  0.45348661330844914  0.6001239479203662  1.0000
  O   O4        1.0  0.5072211005500691  0.565367320285162  0.39369209849134273  1.0000
  O   O5        1.0  0.32691123000692096  0.43906339095328667  0.4673495452820902  1.0000
  O   O6        1.0  0.6973808464139779  0.5529077112643107  0.507616068707925  1.0000
  O   O7        1.0  0.6944832651234164  0.4341368485759673  0.5313544341185263  1.0000
  O   O8        1.0  0.33166039144423815  0.5558679886739242  0.49662918157954283  1.0000
  O   O9        1.0  0.44997135240831193  0.683861314899886  0.8407495105604068  1.0000
  O   O10       1.0  0.2793270245723249  0.6432757876734668  0.886707673869381  1.0000
  O   O11       1.0  0.647780417353566  0.3712349778128257  0.1499762104148843  1.0000
  O   O12       1.0  0.45886853962653606  0.3467688573789473  0.1005731989442182  1.0000
  O   O13       1.0  0.14386772569608297  0.5569693172016699  0.13068342500504568  1.0000
  O   O14       1.0  0.23684841072983426  0.6437160795452216  0.19151877665135686  1.0000
  O   O15       1.0  0.2702484382735548  0.33259977725383294  0.8075921934470072  1.0000
  O   O16       1.0  0.4198479147939622  0.3549358193393246  0.8903992224503979  1.0000
