data_image0
_chemical_formula_structural       Zn2H32C40N4O12
_chemical_formula_sum              "Zn2 H32 C40 N4 O12"
_cell_length_a       8.308997219370964
_cell_length_b       10.277667139599103
_cell_length_c       11.96912070213503
_cell_angle_alpha    106.6674043023801
_cell_angle_beta     103.58058625680539
_cell_angle_gamma    103.28320554991109

_space_group_name_H-M_alt    "P 1"
_space_group_IT_number       1

loop_
  _space_group_symop_operation_xyz
  'x, y, z'

loop_
  _atom_site_type_symbol
  _atom_site_label
  _atom_site_symmetry_multiplicity
  _atom_site_fract_x
  _atom_site_fract_y
  _atom_site_fract_z
  _atom_site_occupancy
  Zn  Zn1       1.0  0.20192005127449167  0.556239546051174  0.6763986301724572  1.0000
  Zn  Zn2       1.0  0.7980790921047997  0.4437605288973004  0.3236004216673649  1.0000
  H   H1        1.0  0.8635159700112071  0.6061096709104137  0.621994927836255  1.0000
  H   H2        1.0  0.1364848266645993  0.3938914840407294  0.37800549174856  1.0000
  H   H3        1.0  0.5837869618511107  0.5374136251353789  0.6678958352923701  1.0000
  H   H4        1.0  0.4162125961732385  0.4625875284662089  0.3321043797872818  1.0000
  H   H5        1.0  0.5612224970802729  0.3987980836486218  0.8077854765174379  1.0000
  H   H6        1.0  0.4387778843127563  0.6012019996583576  0.1922146169120893  1.0000
  H   H7        1.0  0.0918307034175214  0.40250725500886386  0.8361381067579075  1.0000
  H   H8        1.0  0.9081672000348748  0.5974928326079693  0.16386241474584304  1.0000
  H   H9        1.0  0.06181605625818778  0.33671931372803243  0.013146775320301247  1.0000
  H   H10       1.0  0.9381851491412546  0.6632796922753814  0.9868523593745523  1.0000
  H   H11       1.0  0.9773065069542851  0.20122093902960364  0.8621447291218727  1.0000
  H   H12       1.0  0.022693043873204078  0.7987770009890556  0.13785471199707192  1.0000
  H   H13       1.0  0.98025550343813  0.10914631791170144  0.03913572859432432  1.0000
  H   H14       1.0  0.019746117244075375  0.8908537597358761  0.9608637322558169  1.0000
  H   H15       1.0  0.8172788133068778  0.18766663357052243  0.0673622737039707  1.0000
  H   H16       1.0  0.1827211521656694  0.8123323851012504  0.9326383306548107  1.0000
  H   H17       1.0  0.7849416517433738  0.9789172653013127  0.11463963165248  1.0000
  H   H18       1.0  0.21505749163591759  0.021082809647161603  0.8853594201873348  1.0000
  H   H19       1.0  0.6172183985509037  0.7490226118024881  0.12297435916168112  1.0000
  H   H20       1.0  0.3827815753939277  0.2509796064343064  0.8770253449887164  1.0000
  H   H21       1.0  0.38180274195731567  0.5661188837467395  0.9320933670632243  1.0000
  H   H22       1.0  0.6181968154293145  0.4338822768638054  0.0679076851009697  1.0000
  H   H23       1.0  0.4899891066558482  0.8179056172997509  0.7258623946328554  1.0000
  H   H24       1.0  0.5100096208029542  0.18209339301351693  0.274137168136221  1.0000
  H   H25       1.0  0.1711994683644633  0.07150859594483451  0.7041104435912615  1.0000
  H   H26       1.0  0.828800913666285  0.928491480353188  0.29588881275371653  1.0000
  H   H27       1.0  0.30054316963137495  0.1908614876886575  0.4123494881731133  1.0000
  H   H28       1.0  0.6994613370773877  0.8091364437103012  0.5876490967973922  1.0000
  H   H29       1.0  0.31700154844641304  0.9464457919632282  0.3160210509863433  1.0000
  H   H30       1.0  0.6829934526725836  0.05355003576322301  0.6839813097292691  1.0000
  H   H31       1.0  0.26095804005490914  0.7657827673629498  0.41705039998619503  1.0000
  H   H32       1.0  0.7390423315904185  0.23421413039691433  0.5829522678208007  1.0000
  C   C1        1.0  0.849722448933207  0.5470328618699158  0.6833329407985644  1.0000
  C   C2        1.0  0.1502771084534231  0.45296829874062894  0.31666811136562956  1.0000
  C   C3        1.0  0.6950800627073832  0.5091410650199537  0.7102444691069109  1.0000
  C   C4        1.0  0.30491991059973605  0.4908611602257979  0.2897560721280286  1.0000
  C   C5        1.0  0.6821854459435811  0.43195869513904483  0.7877831461458839  1.0000
  C   C6        1.0  0.317815350732225  0.568042459812098  0.21221727343893093  1.0000
  C   C7        1.0  0.8262648113983174  0.3925269358576245  0.8361848269256383  1.0000
  C   C8        1.0  0.17373433198097388  0.6074731390908498  0.16381422491417652  1.0000
  C   C9        1.0  0.9776954365824652  0.4337770653170028  0.8059002975791856  1.0000
  C   C10       1.0  0.02230453736236634  0.5662251529197918  0.19409940657121183  1.0000
  C   C11       1.0  0.9437203408150338  0.2530105266429744  0.9437287625765691  1.0000
  C   C12       1.0  0.05627714863002358  0.7469884753117814  0.056269758602795296  1.0000
  C   C13       1.0  0.8734935572797297  0.14389338103519125  0.9962125903286816  1.0000
  C   C14       1.0  0.12650682475101874  0.8561066952628313  0.0037866660162962974  1.0000
  C   C15       1.0  0.6553892187356993  0.9119990540322791  0.9168045513647555  1.0000
  C   C16       1.0  0.34461116265733693  0.08800102927470024  0.0831955420647716  1.0000
  C   C17       1.0  0.6890394777410905  0.894905621801286  0.031047498527989704  1.0000
  C   C18       1.0  0.3109592497177189  0.10509338851198183  0.9689520642410797  1.0000
  C   C19       1.0  0.5908277053123924  0.7682939702445994  0.036490348898816236  1.0000
  C   C20       1.0  0.4091710227841219  0.2317050330597113  0.9635083767857111  1.0000
  C   C21       1.0  0.4611035621660308  0.6660234986483504  0.9315584789434367  1.0000
  C   C22       1.0  0.5388968198647176  0.33397657764967204  0.06844077740154833  1.0000
  C   C23       1.0  0.5212705326742793  0.805234868254047  0.8149896712058933  1.0000
  C   C24       1.0  0.47872819414681095  0.19476414906817754  0.1850107286477254  1.0000
  C   C25       1.0  0.17262138560011675  0.799059215393115  0.6261069871356781  1.0000
  C   C26       1.0  0.8273781717865134  0.20094194521742287  0.3738940650285229  1.0000
  C   C27       1.0  0.20860659253379762  0.9063835059728476  0.5650101848185685  1.0000
  C   C28       1.0  0.7913954415180412  0.09361766434575715  0.4349921134404937  1.0000
  C   C29       1.0  0.20509774764198596  0.044839902387849406  0.6198133335778451  1.0000
  C   C30       1.0  0.7949042883229892  0.9551612469038918  0.3801864534275837  1.0000
  C   C31       1.0  0.2409901575590467  0.14807594521337825  0.56647087052297  1.0000
  C   C32       1.0  0.7590139476229324  0.8519273487162381  0.4335297732981971  1.0000
  C   C33       1.0  0.2765216963439983  0.11073464019855815  0.4547278554697058  1.0000
  C   C34       1.0  0.7234819857206463  0.889264375512923  0.5452725253200158  1.0000
  C   C35       1.0  0.28374468016823334  0.9734684208315728  0.40073375378293713  1.0000
  C   C36       1.0  0.7162602386347319  0.026530617256320006  0.5992693427655809  1.0000
  C   C37       1.0  0.2517302874309877  0.8721538153338104  0.45617260933448733  1.0000
  C   C38       1.0  0.7482729780754555  0.12784414275141395  0.5438291194690308  1.0000
  C   C39       1.0  0.2434552640816392  0.29641506420244923  0.631653306944763  1.0000
  C   C40       1.0  0.7565442945804222  0.7035860823901817  0.3683460710503467  1.0000
  N   N1        1.0  0.9876809203541299  0.5096297807198839  0.731095679565918  1.0000
  N   N2        1.0  0.012319875683964289  0.4903713812402089  0.26890557710343904  1.0000
  N   N3        1.0  0.42530334611119264  0.6861923609675034  0.8229819500600966  1.0000
  N   N4        1.0  0.5746957966303794  0.31380772098992793  0.1770179388642674  1.0000
  O   O1        1.0  0.8087129543635996  0.3140830499117514  0.9094683345616658  1.0000
  O   O2        1.0  0.19128618901569175  0.6859170250367229  0.09053071727814913  1.0000
  O   O3        1.0  0.7423474111246551  0.025405307161626912  0.894144676544876  1.0000
  O   O4        1.0  0.2576517316169173  0.9745947747957971  0.1058552123794884  1.0000
  O   O5        1.0  0.13296775381580528  0.8315095549997127  0.7228794656494983  1.0000
  O   O6        1.0  0.8670375809076417  0.16849054772339403  0.2771231199697651  1.0000
  O   O7        1.0  0.19182687813200525  0.67605843022713  0.5739477882074695  1.0000
  O   O8        1.0  0.8081739172683698  0.3239427387419198  0.42605430554643675  1.0000
  O   O9        1.0  0.2618763557115784  0.33710994057310023  0.7452844045056608  1.0000
  O   O10       1.0  0.738114117745205  0.6628901179195454  0.254712378713478  1.0000
  O   O11       1.0  0.22850850414531015  0.3789260720670671  0.5685301628121522  1.0000
  O   O12       1.0  0.7714922944436394  0.6210750618572123  0.43146774551902917  1.0000
