data_image0
_chemical_formula_structural       Ag4H68C40S4N8O16
_chemical_formula_sum              "Ag4 H68 C40 S4 N8 O16"
_cell_length_a       6.762696832473318
_cell_length_b       10.12129469355788
_cell_length_c       19.117910836460545
_cell_angle_alpha    89.99976763174435
_cell_angle_beta     94.19276729754388
_cell_angle_gamma    89.99894358102357

_space_group_name_H-M_alt    "P 1"
_space_group_IT_number       1

loop_
  _space_group_symop_operation_xyz
  'x, y, z'

loop_
  _atom_site_type_symbol
  _atom_site_label
  _atom_site_symmetry_multiplicity
  _atom_site_fract_x
  _atom_site_fract_y
  _atom_site_fract_z
  _atom_site_occupancy
  Ag  Ag1       1.0  0.8331348969138122  0.8678034790251419  0.7347685253196163  1.0000
  Ag  Ag2       1.0  0.6668661486612849  0.367798030254626  0.2652290218403338  1.0000
  Ag  Ag3       1.0  0.1668526214105199  0.13219261006989314  0.2652346654905459  1.0000
  Ag  Ag4       1.0  0.3331523913510708  0.6321881785442542  0.7347649884907812  1.0000
  H   H1        1.0  0.7802120974990316  0.7350455081319326  0.8775569292276163  1.0000
  H   H2        1.0  0.7198183957175887  0.23504747840731005  0.12245365971539714  1.0000
  H   H3        1.0  0.21982141311338677  0.264957496804584  0.12245000062018363  1.0000
  H   H4        1.0  0.2801958584518118  0.7649525625842986  0.877554368887772  1.0000
  H   H5        1.0  0.985891670443479  0.6348199253469815  0.9058898197956258  1.0000
  H   H6        1.0  0.5141240207486392  0.1348530496890703  0.09411121230638032  1.0000
  H   H7        1.0  0.014131401757858004  0.3651633193506428  0.09411162430445333  1.0000
  H   H8        1.0  0.4858797523720925  0.8651627996499729  0.9058876679502393  1.0000
  H   H9        1.0  0.7230357323860233  0.6181868271839834  0.9903529445768132  1.0000
  H   H10       1.0  0.7769864459917742  0.11820384447769783  0.009651944092631499  1.0000
  H   H11       1.0  0.2769844104413224  0.38180530966122467  0.009651566387610402  1.0000
  H   H12       1.0  0.22302775987878226  0.8818090407367621  0.9903518987243491  1.0000
  H   H13       1.0  0.5476042898827845  0.5707306956033237  0.9219704450366425  1.0000
  H   H14       1.0  0.9524015642036544  0.07071955309691451  0.078034149078583  1.0000
  H   H15       1.0  0.4524069086035283  0.42928120162621763  0.0780296627875146  1.0000
  H   H16       1.0  0.0476037399481726  0.9292785119314504  0.9219689531955028  1.0000
  H   H17       1.0  0.9170777510940554  0.41280892495090155  0.9738723338287375  1.0000
  H   H18       1.0  0.5829099931999124  0.9128393647626257  0.0261206048617311  1.0000
  H   H19       1.0  0.0829037105878356  0.5871713559660421  0.02611972446986501  1.0000
  H   H20       1.0  0.41708633050510713  0.08718043669404808  0.9738749549437387  1.0000
  H   H21       1.0  0.6687258886029781  0.37156849397353403  0.9872619986274319  1.0000
  H   H22       1.0  0.831264619686536  0.871576516711947  0.01273162128402561  1.0000
  H   H23       1.0  0.3312570855531193  0.6284275951791473  0.012732711976333603  1.0000
  H   H24       1.0  0.1687257495280861  0.12843142859566112  0.987261700759419  1.0000
  H   H25       1.0  0.5953058766097216  0.34145565799762784  0.8583429560923153  1.0000
  H   H26       1.0  0.9046693139775857  0.8414361916223072  0.14165558649900595  1.0000
  H   H27       1.0  0.404674156009861  0.6585582154497231  0.14165377492086156  1.0000
  H   H28       1.0  0.0953107189779914  0.1585559454754275  0.8583411445462517  1.0000
  H   H29       1.0  0.7990977385989099  0.24188019746742387  0.8873792907884097  1.0000
  H   H30       1.0  0.7008507206399345  0.7418839655188663  0.11260521749536423  1.0000
  H   H31       1.0  0.2008510442380569  0.7581188559560204  0.11260673834593153  1.0000
  H   H32       1.0  0.2991203139992252  0.25811903983846934  0.8873824014346213  1.0000
  H   H33       1.0  0.8588160343878641  0.3575621290336386  0.7767648765943138  1.0000
  H   H34       1.0  0.6411229661152476  0.8575538591305335  0.22322333108193967  1.0000
  H   H35       1.0  0.14113574968335743  0.6424468045197785  0.2232243642988153  1.0000
  H   H36       1.0  0.35883624957844523  0.1424353140570886  0.7767676606229588  1.0000
  H   H37       1.0  0.03335457643150621  0.4096497137100601  0.8443602217023741  1.0000
  H   H38       1.0  0.46661799131683784  0.9096719369904777  0.1556254762923999  1.0000
  H   H39       1.0  0.9666120285219862  0.5903374834120356  0.15562885824171965  1.0000
  H   H40       1.0  0.533366405247584  0.09033205630128552  0.8443640383146377  1.0000
  H   H41       1.0  0.6536849176682437  0.5591431405736246  0.795134860341179  1.0000
  H   H42       1.0  0.846299031070494  0.05911244718760861  0.20486713176642726  1.0000
  H   H43       1.0  0.34630703615575004  0.4408816009612123  0.20486739265682274  1.0000
  H   H44       1.0  0.15369290541843844  0.9408668456223099  0.7951335516359495  1.0000
  H   H45       1.0  0.9108824168462775  0.45693290664873154  0.6771698676886688  1.0000
  H   H46       1.0  0.5891189227251061  0.956926429760145  0.3228348139006202  1.0000
  H   H47       1.0  0.08910959743909072  0.5430700985161678  0.3228376175504551  1.0000
  H   H48       1.0  0.4108848807332209  0.04307163528268631  0.6771666824867781  1.0000
  H   H49       1.0  0.7021430764543553  0.5662541133066128  0.6664834357301785  1.0000
  H   H50       1.0  0.7978792130849687  0.0662516274383265  0.33352052360922363  1.0000
  H   H51       1.0  0.29787408886814865  0.43374889173421144  0.3335199563284378  1.0000
  H   H52       1.0  0.20213049699255245  0.9337434735314718  0.666479024794839  1.0000
  H   H53       1.0  0.096826395176592  0.7328237240247262  0.5091142301513758  1.0000
  H   H54       1.0  0.40318593320769486  0.2328178776786203  0.49088956610099654  1.0000
  H   H55       1.0  0.9031923307509545  0.26719311320378847  0.4908959999825557  1.0000
  H   H56       1.0  0.5968163394791903  0.767181175404737  0.5091077082937334  1.0000
  H   H57       1.0  0.917433601127371  0.6620379469057909  0.4464024641088928  1.0000
  H   H58       1.0  0.5825753846824568  0.16203419512061862  0.5536040982331443  1.0000
  H   H59       1.0  0.08257922428516201  0.3379759262983839  0.5536102372380256  1.0000
  H   H60       1.0  0.41743135988475905  0.8379737500725144  0.4463953777040005  1.0000
  H   H61       1.0  0.7463203206835445  0.42181814627747366  0.5760485118670148  1.0000
  H   H62       1.0  0.753688041210566  0.9218061044050359  0.423956941507143  1.0000
  H   H63       1.0  0.25367164533352593  0.5781957270784873  0.42395478758883354  1.0000
  H   H64       1.0  0.24632467014703255  0.0781959126470539  0.5760458186600916  1.0000
  H   H65       1.0  0.7085620846060295  0.476121035604301  0.48753668435634273  1.0000
  H   H66       1.0  0.791449040550184  0.9761009817875532  0.5124681941768827  1.0000
  H   H67       1.0  0.2914580397866118  0.523896789660185  0.5124662569074516  1.0000
  H   H68       1.0  0.20855917477002353  0.0238990592741359  0.4875302715540999  1.0000
  C   C1        1.0  0.8284407192897447  0.6319457491304448  0.8861467909621368  1.0000
  C   C2        1.0  0.6715736385946727  0.1319552370545409  0.11385944564447935  1.0000
  C   C3        1.0  0.17157647620235392  0.36805033978897234  0.11385921721120704  1.0000
  C   C4        1.0  0.3284331241017925  0.8680467800371405  0.8861415999641341  1.0000
  C   C5        1.0  0.7059142515524286  0.564345187809849  0.9402222642748019  1.0000
  C   C6        1.0  0.794091781650991  0.0643507637509728  0.059780779003247624  1.0000
  C   C7        1.0  0.29409402395423717  0.4356509011679465  0.05978143367106272  1.0000
  C   C8        1.0  0.20591497501766307  0.9356522413586392  0.9402197433830044  1.0000
  C   C9        1.0  0.7637757951235074  0.418823919827318  0.9501606238776648  1.0000
  C   C10       1.0  0.7362177182509203  0.9188307389601034  0.04983453487074742  1.0000
  C   C11       1.0  0.23621458628418426  0.5811731573014143  0.049833744623633415  1.0000
  C   C12       1.0  0.26377711698422257  0.08117621830038502  0.9501604655088018  1.0000
  C   C13       1.0  0.7504037211614616  0.34503330648178837  0.8802107582386401  1.0000
  C   C14       1.0  0.7495624025010416  0.8450305505663142  0.11978232421378013  1.0000
  C   C15       1.0  0.24956144897681304  0.6549706869025798  0.11978247122391393  1.0000
  C   C16       1.0  0.2504205415312768  0.1549694906600934  0.8802097702796349  1.0000
  C   C17       1.0  0.8746462376627167  0.41200152675231294  0.8264879177710188  1.0000
  C   C18       1.0  0.6253148322903712  0.9119977645928258  0.17350332487998094  1.0000
  C   C19       1.0  0.1253129958242241  0.5880034546834736  0.17350464357325995  1.0000
  C   C20       1.0  0.3746577452522218  0.087997336608673  0.8264895624946862  1.0000
  C   C21       1.0  0.8096380749859693  0.5556742549841048  0.8169984595202353  1.0000
  C   C22       1.0  0.6903489279201765  0.05566620954071061  0.18300204557944266  1.0000
  C   C23       1.0  0.19035385503224234  0.4443346783045925  0.18300170061748136  1.0000
  C   C24       1.0  0.30964447297320424  0.9443269154894128  0.8169971043637789  1.0000
  C   C25       1.0  0.8647946264249811  0.5607272115194634  0.6731370229402958  1.0000
  C   C26       1.0  0.635220432791485  0.06072065540375601  0.3268678180426151  1.0000
  C   C27       1.0  0.1352181149494882  0.43927776957013986  0.32686835332708614  1.0000
  C   C28       1.0  0.36478779458434474  0.9392774096220861  0.6731316941330976  1.0000
  C   C29       1.0  0.9577997294211189  0.6320764891683414  0.6138130793816289  1.0000
  C   C30       1.0  0.5422116532750182  0.13207446505602152  0.3861925611871727  1.0000
  C   C31       1.0  0.04221899685770581  0.3679176236946589  0.38619715078584715  1.0000
  C   C32       1.0  0.4578069466947099  0.867922611897342  0.6138066813369394  1.0000
  C   C33       1.0  0.025246516913853212  0.6408903007494972  0.4908415967184256  1.0000
  C   C34       1.0  0.4747671710083666  0.1408845075709237  0.5091624347001587  1.0000
  C   C35       1.0  0.9747677611071527  0.3591225844405771  0.5091685247494057  1.0000
  C   C36       1.0  0.5252425149121009  0.8591175095182354  0.49083502081007435  1.0000
  C   C37       1.0  0.820899153526476  0.4591836763416526  0.5312066120379627  1.0000
  C   C38       1.0  0.6791035871546214  0.959173108401778  0.46879705269518723  1.0000
  C   C39       1.0  0.17910618047421423  0.5408282208990302  0.46879910632022626  1.0000
  C   C40       1.0  0.32089723287796806  0.04082989674336091  0.5312028015742457  1.0000
  S   S1        1.0  0.9507971649468061  0.6436130550226267  0.753738984897524  1.0000
  S   S2        1.0  0.5492153077136805  0.14360807027594552  0.24626351851790676  1.0000
  S   S3        1.0  0.0492229776819926  0.35639192602916847  0.24626552604794238  1.0000
  S   S4        1.0  0.4507795517396147  0.8563880188016101  0.7537335747613059  1.0000
  N   N1        1.0  0.9199375778501065  0.5849446399234709  0.5482398042322887  1.0000
  N   N2        1.0  0.5800797039033087  0.0849436701175534  0.45176556092064873  1.0000
  N   N3        1.0  0.08007368688101478  0.4150603411724774  0.4517660590320247  1.0000
  N   N4        1.0  0.4199389440903545  0.9150583468990092  0.5482378673634047  1.0000
  N   N5        1.0  0.8739387250277775  0.129197350594751  0.6828902661184773  1.0000
  N   N6        1.0  0.6260771827421012  0.6291875428647915  0.3171144451912441  1.0000
  N   N7        1.0  0.12606648861526543  0.8708214627978208  0.317104987811419  1.0000
  N   N8        1.0  0.3739341300282319  0.37082139027846484  0.6828956038344602  1.0000
  O   O1        1.0  0.0650725301969075  0.7311872961093188  0.6268905356060018  1.0000
  O   O2        1.0  0.4349384019911895  0.23119484116359962  0.3731163685588258  1.0000
  O   O3        1.0  0.9349669655489594  0.2687900203622249  0.3731212481637628  1.0000
  O   O4        1.0  0.5650757560997948  0.7687972957333927  0.6268832885215475  1.0000
  O   O5        1.0  0.871089445464257  0.10157910714868727  0.748600378186602  1.0000
  O   O6        1.0  0.6289169556915795  0.6015628538126805  0.2514057307573978  1.0000
  O   O7        1.0  0.12891880588535543  0.8984238979484829  0.25140122686543986  1.0000
  O   O8        1.0  0.3710720695067807  0.3984223670910437  0.7485995891764008  1.0000
  O   O9        1.0  0.8656314462404924  0.03289367761180981  0.6394799277812668  1.0000
  O   O10       1.0  0.6344037839927593  0.5328923379015862  0.360528605596521  1.0000
  O   O11       1.0  0.1343471824360023  0.9670846272453916  0.3605235689321803  1.0000
  O   O12       1.0  0.3656652867382847  0.4670830023971179  0.6394771007839639  1.0000
  O   O13       1.0  0.8845430279738694  0.24578818461519356  0.6625693967286356  1.0000
  O   O14       1.0  0.6154633084776296  0.7457862436091817  0.33743168616842933  1.0000
  O   O15       1.0  0.11546219845787682  0.7541812279787337  0.33742690371598644  1.0000
  O   O16       1.0  0.3845242463953795  0.25417921698101514  0.6625746440123736  1.0000
