data_image0
_chemical_formula_structural       Gd4H40C56N4O34
_chemical_formula_sum              "Gd4 H40 C56 N4 O34"
_cell_length_a       10.236342911618586
_cell_length_b       12.16337622653722
_cell_length_c       13.0585
_cell_angle_alpha    74.04634143373391
_cell_angle_beta     75.48173323973099
_cell_angle_gamma    70.92475479602538

_space_group_name_H-M_alt    "P 1"
_space_group_IT_number       1

loop_
  _space_group_symop_operation_xyz
  'x, y, z'

loop_
  _atom_site_type_symbol
  _atom_site_label
  _atom_site_symmetry_multiplicity
  _atom_site_fract_x
  _atom_site_fract_y
  _atom_site_fract_z
  _atom_site_occupancy
  Gd  Gd1       1.0  0.7974914639248497  0.7823386505497892  0.8969090379380589  1.0000
  Gd  Gd2       1.0  0.20251085603946006  0.21766064071935892  0.10308930920010079  1.0000
  Gd  Gd3       1.0  0.19272327225390035  0.7174297975425005  0.051255371269696995  1.0000
  Gd  Gd4       1.0  0.8072770294397316  0.2825694937266547  0.9487456698344658  1.0000
  H   H1        1.0  0.7206167388539485  0.0154383007755996  0.9676315413414328  1.0000
  H   H2        1.0  0.2793832718294454  0.9845618804117464  0.032369329113464615  1.0000
  H   H3        1.0  0.8771632831575858  0.9580672360325053  0.9745467074567601  1.0000
  H   H4        1.0  0.12283672752580801  0.0419329451548407  0.025452631428656503  1.0000
  H   H5        1.0  0.3145634802649226  0.5333573391019755  0.2301983474568914  1.0000
  H   H6        1.0  0.6854375395538099  0.4666428420853634  0.7698015589073748  1.0000
  H   H7        1.0  0.3067158239552795  0.4624869241338985  0.14396974132793616  1.0000
  H   H8        1.0  0.6932851958634528  0.5375132570534475  0.8560309308210705  1.0000
  H   H9        1.0  0.2645784890003713  0.5050543809588461  0.9448953904703217  1.0000
  H   H10       1.0  0.7354231128388378  0.4949440203921185  0.05510562297720871  1.0000
  H   H11       1.0  0.11303195265284678  0.5778728268467859  0.9261788891825233  1.0000
  H   H12       1.0  0.8869683490407851  0.4221264644223695  0.07382138613689898  1.0000
  H   H13       1.0  0.008228435985010708  0.367433872246515  0.43083672318796556  1.0000
  H   H14       1.0  0.9917711475835205  0.6325645291044495  0.5691623895171389  1.0000
  H   H15       1.0  0.8288917836379002  0.4876965266454931  0.5579801307878399  1.0000
  H   H16       1.0  0.1711115454617413  0.5123027646236622  0.44201878382916243  1.0000
  H   H17       1.0  0.660004658803338  0.6749753603277924  0.48057171924804  1.0000
  H   H18       1.0  0.34000039755674283  0.3250248208595465  0.5194273938926557  1.0000
  H   H19       1.0  0.588965512913596  0.0570446459543774  0.17875192488708086  1.0000
  H   H20       1.0  0.41103694315533096  0.9429573150693429  0.8212487751363469  1.0000
  H   H21       1.0  0.7769465285065492  0.8723129393217519  0.21608099231402625  1.0000
  H   H22       1.0  0.2230576548228171  0.1276899116201662  0.7839191404483472  1.0000
  H   H23       1.0  0.4918896742980507  0.6667453968984276  0.32634652866640573  1.0000
  H   H24       1.0  0.5081127817708833  0.3332565641252998  0.673651108218074  1.0000
  H   H25       1.0  0.2910472208685206  0.8445350329112458  0.2938128110841162  1.0000
  H   H26       1.0  0.7089535079399738  0.1554660381942909  0.7061830957071962  1.0000
  H   H27       1.0  0.9729331252471527  0.2523193945818463  0.5861164951052444  1.0000
  H   H28       1.0  0.027067176446479383  0.747679896687302  0.41388531178365895  1.0000
  H   H29       1.0  0.13019059258980553  0.1771560142609019  0.4219283456920166  1.0000
  H   H30       1.0  0.8698107182391654  0.8228432770082463  0.5780732628909887  1.0000
  H   H31       1.0  0.2896376071544893  0.9702537757385841  0.4491623126759237  1.0000
  H   H32       1.0  0.7103624035289045  0.0297464054487619  0.5508377919942332  1.0000
  H   H33       1.0  0.6348866846407901  0.6826242071785131  0.6934716933578357  1.0000
  H   H34       1.0  0.3651136170528417  0.3173750840906422  0.30652934774632  1.0000
  H   H35       1.0  0.4595744355735859  0.8803026248395796  0.6622370083428634  1.0000
  H   H36       1.0  0.5404268752553777  0.1196966664295687  0.3377638344554014  1.0000
  H   H37       1.0  0.17171767101340413  0.7381657813084743  0.6063771839346472  1.0000
  H   H38       1.0  0.8282836398155666  0.2618335099606739  0.3936228930788843  1.0000
  H   H39       1.0  0.3362779972379144  0.533567359795029  0.630859638721283  1.0000
  H   H40       1.0  0.6637233135910563  0.4664319314741263  0.36914043829224846  1.0000
  C   C1        1.0  0.8651561105448238  0.6502311850300373  0.12470917572135674  1.0000
  C   C2        1.0  0.13484650042971677  0.3497672163209202  0.8752901078508016  1.0000
  C   C3        1.0  0.038536682495532694  0.40009920936140014  0.220470099264503  1.0000
  C   C4        1.0  0.9614639102083373  0.5998991919895573  0.779528815134711  1.0000
  C   C5        1.0  0.8535871880324707  0.5965112734368319  0.24400733867787497  1.0000
  C   C6        1.0  0.14641470481696933  0.403486237995935  0.755990782279973  1.0000
  C   C7        1.0  0.943883605854218  0.4874624781612908  0.2879726978186952  1.0000
  C   C8        1.0  0.05611799598499089  0.5125359231896738  0.7120267840593542  1.0000
  C   C9        1.0  0.9352851521535116  0.4511271184271592  0.4003142380693915  1.0000
  C   C10       1.0  0.0647151495401204  0.5488721728419961  0.5996845056805569  1.0000
  C   C11       1.0  0.8362070890255852  0.5179047996353248  0.4706151919173037  1.0000
  C   C12       1.0  0.1637942218033857  0.4820944916338235  0.5293841193114873  1.0000
  C   C13       1.0  0.7415093732282685  0.62223346882638  0.4278563081656158  1.0000
  C   C14       1.0  0.2584943829862354  0.3777676022791567  0.5721413010622243  1.0000
  C   C15       1.0  0.7496298242190776  0.6599410824108602  0.31595960222588093  1.0000
  C   C16       1.0  0.2503742230056645  0.3400590987764787  0.6840381776512245  1.0000
  C   C17       1.0  0.5608812945779819  0.9740982223232352  0.21476550124501154  1.0000
  C   C18       1.0  0.4391194342305127  0.025902848782301605  0.7852350002547297  1.0000
  C   C19       1.0  0.6674573348941807  0.8722266172572333  0.23459633831563298  1.0000
  C   C20       1.0  0.33254613031009234  0.127775343766487  0.7654041634018967  1.0000
  C   C21       1.0  0.5061251494282217  0.7561038622822879  0.29848686425707877  1.0000
  C   C22       1.0  0.4938760064951354  0.2438989886596303  0.701511566068767  1.0000
  C   C23       1.0  0.3959965933531819  0.8552763454753104  0.2798207858763746  1.0000
  C   C24       1.0  0.6040042715599442  0.1447273953847912  0.7201759422307318  1.0000
  C   C25       1.0  0.4175842392529816  0.9711784007389213  0.2390026803806719  1.0000
  C   C26       1.0  0.5824156165247985  0.0288253401211875  0.7609950118170659  1.0000
  C   C27       1.0  0.4749621470476341  0.8009210322938074  0.006039391540951968  1.0000
  C   C28       1.0  0.5250352633446129  0.19908092872991287  0.99396076844247  1.0000
  C   C29       1.0  0.5184453197372818  0.6910713106464641  0.9545609234630773  1.0000
  C   C30       1.0  0.4815526726754413  0.3089288705408819  0.045438812034134884  1.0000
  C   C31       1.0  0.1082345076207716  0.8798069404072564  0.8168660139416773  1.0000
  C   C32       1.0  0.8917675213332998  0.12019324078008961  0.183135225686172  1.0000
  C   C33       1.0  0.9493843304106591  0.1452907135996284  0.7897264146639315  1.0000
  C   C34       1.0  0.050614671137395775  0.8547094675877176  0.21027465409685675  1.0000
  C   C35       1.0  0.12092861703939659  0.9698764504256445  0.7112775270584066  1.0000
  C   C36       1.0  0.8790726937895743  0.0301228408435108  0.28872254995511776  1.0000
  C   C37       1.0  0.0363697641592253  0.0884792262112626  0.6968843658274366  1.0000
  C   C38       1.0  0.9636312556595001  0.9115209549760834  0.3031163063215699  1.0000
  C   C39       1.0  0.0405615398439636  0.1613795445727675  0.5928480153009373  1.0000
  C   C40       1.0  0.9594400619952378  0.8386188567781971  0.4071529981465929  1.0000
  C   C41       1.0  0.12837282700399302  0.12022705767134309  0.5027853222917571  1.0000
  C   C42       1.0  0.8716294929603096  0.8797722335978121  0.497215322200617  1.0000
  C   C43       1.0  0.2175129017720252  0.0046880890296208  0.5174069918245863  1.0000
  C   C44       1.0  0.7824881180467074  0.9953120921577252  0.48259291453967984  1.0000
  C   C45       1.0  0.21340081434269115  0.9319712750027804  0.6206323007510903  1.0000
  C   C46       1.0  0.7865987692258402  0.0680271263481771  0.37936834352348825  1.0000
  C   C47       1.0  0.5340915122792894  0.6900265466903548  0.6745718463553559  1.0000
  C   C48       1.0  0.46591008955991237  0.3099718546606098  0.32543069866164853  1.0000
  C   C49       1.0  0.4393598821298356  0.799430419324068  0.6578182076108946  1.0000
  C   C50       1.0  0.5606404195637964  0.2005688719450873  0.34218283349326123  1.0000
  C   C51       1.0  0.2757852239855795  0.7188554464843051  0.6250544719444164  1.0000
  C   C52       1.0  0.7242163778536295  0.2811429548666524  0.3749465415031139  1.0000
  C   C53       1.0  0.36682849137854834  0.6075320203128385  0.6396571999640059  1.0000
  C   C54       1.0  0.6331728194504224  0.3924672709563096  0.36034364283426606  1.0000
  C   C55       1.0  0.5011927680078614  0.5853935254780183  0.6687820651559518  1.0000
  C   C56       1.0  0.4988085428211095  0.4146057657911371  0.33121877764232016  1.0000
  N   N1        1.0  0.641080185858037  0.7643978998214038  0.27836114848019383  1.0000
  N   N2        1.0  0.3589225612211352  0.2356031712841329  0.7216366590535513  1.0000
  N   N3        1.0  0.31052624153696945  0.8145002939686351  0.6347284624475122  1.0000
  N   N4        1.0  0.6894750692919942  0.18549899730052033  0.3652723803507527  1.0000
  O   O1        1.0  0.9647111321076381  0.6979254605527103  0.0794540373705671  1.0000
  O   O2        1.0  0.03528988771108744  0.3020747206346286  0.9205451032089655  1.0000
  O   O3        1.0  0.7693778280691533  0.6555644647480534  0.07702526558482246  1.0000
  O   O4        1.0  0.23062218261424058  0.3444357164392855  0.922974073300601  1.0000
  O   O5        1.0  0.03135020620596409  0.4181040341995299  0.12032975571995048  1.0000
  O   O6        1.0  0.9686503864979059  0.5818943671514276  0.8796691586792562  1.0000
  O   O7        1.0  0.11998358600202862  0.3050372582921099  0.26570803252712943  1.0000
  O   O8        1.0  0.8800164246813653  0.6949629228952361  0.734291306358287  1.0000
  O   O9        1.0  0.3140833617393072  0.0655086578679516  0.22616377385150346  1.0000
  O   O10       1.0  0.6859188033193888  0.9344941930739594  0.7738352239531848  1.0000
  O   O11       1.0  0.5646045452554206  0.8551695552924059  0.99437576973677  1.0000
  O   O12       1.0  0.4353945923972661  0.1448332956495122  0.005621525631383389  1.0000
  O   O13       1.0  0.3475244350269335  0.8296022056680741  0.054047571243401586  1.0000
  O   O14       1.0  0.6524749936359909  0.1703997553556533  0.9459521921282316  1.0000
  O   O15       1.0  0.644476778633461  0.6639501638608323  0.9033581286509289  1.0000
  O   O16       1.0  0.3555229410396948  0.3360509072447044  0.09664103958522928  1.0000
  O   O17       1.0  0.4274924271438608  0.6386577989574889  0.9644240362880225  1.0000
  O   O18       1.0  0.5725085926748719  0.3613423822298572  0.03557587007624358  1.0000
  O   O19       1.0  0.010754183664083443  0.8310420933009368  0.832242927795022  1.0000
  O   O20       1.0  0.9892498635606586  0.1689580878864092  0.1677571494362979  1.0000
  O   O21       1.0  0.19607805217567184  0.8546676414327408  0.8784617476269502  1.0000
  O   O22       1.0  0.8039225405281983  0.1453307599182168  0.12153946412647793  1.0000
  O   O23       1.0  0.9637557831728572  0.09325096755083  0.8874414192946816  1.0000
  O   O24       1.0  0.036241782125003404  0.9067474338001347  0.11255962159168574  1.0000
  O   O25       1.0  0.8677249190670082  0.24986233045679276  0.7671206665997803  1.0000
  O   O26       1.0  0.13227538262662358  0.7501369608123554  0.23288037450438276  1.0000
  O   O27       1.0  0.5846029907495875  0.4810256998865654  0.686738417190405  1.0000
  O   O28       1.0  0.41539832007937605  0.5189735913825899  0.3132616598231195  1.0000
  O   O29       1.0  0.7905626563655088  0.9364119667753316  0.981802310602973  1.0000
  O   O30       1.0  0.2094376453281228  0.0635873244938168  0.0181971989317091  1.0000
  O   O31       1.0  0.2634329773846104  0.5377259475010661  0.1712208646626152  1.0000
  O   O32       1.0  0.7365680424341221  0.4622742336862729  0.8287798074863844  1.0000
  O   O33       1.0  0.19969877634273558  0.5845685713150601  0.9421444184149834  1.0000
  O   O34       1.0  0.8003028254964732  0.41542983003590456  0.057856595032546886  1.0000
