data_image0
_chemical_formula_structural       Zn6H30C42Cl6O24
_chemical_formula_sum              "Zn6 H30 C42 Cl6 O24"
_cell_length_a       18.536656750789565
_cell_length_b       18.745796342320066
_cell_length_c       18.879801033937916
_cell_angle_alpha    108.56807775667056
_cell_angle_beta     108.36385994997907
_cell_angle_gamma    108.49673489783825

_space_group_name_H-M_alt    "P 1"
_space_group_IT_number       1

loop_
  _space_group_symop_operation_xyz
  'x, y, z'

loop_
  _atom_site_type_symbol
  _atom_site_label
  _atom_site_symmetry_multiplicity
  _atom_site_fract_x
  _atom_site_fract_y
  _atom_site_fract_z
  _atom_site_occupancy
  Zn  Zn1       1.0  0.0621307640709858  0.0026098486207217987  0.5660761661505236  1.0000
  Zn  Zn2       1.0  0.932616777991768  0.986430874153889  0.43514568647047025  1.0000
  Zn  Zn3       1.0  0.501842541184466  0.5516965996007173  0.5736446403999482  1.0000
  Zn  Zn4       1.0  0.4935242139748581  0.43630579348015164  0.43671980871894805  1.0000
  Zn  Zn5       1.0  0.9540908552276974  0.44211449600258124  0.009106341435163675  1.0000
  Zn  Zn6       1.0  0.0654358374328793  0.5606142111737424  0.9920557697437364  1.0000
  H   H1        1.0  0.6879768434273927  0.7535681534328302  0.5811329807145074  1.0000
  H   H2        1.0  0.2609494889554682  0.2026977197419555  0.5515284742174276  1.0000
  H   H3        1.0  0.9111652314505675  0.6324476883201341  0.15950980723107483  1.0000
  H   H4        1.0  0.9744409785527496  0.24284128382246442  0.8316105512864529  1.0000
  H   H5        1.0  0.05260747051346459  0.7757703745478962  0.1617755743298944  1.0000
  H   H6        1.0  0.054327904280768224  0.37023490543761256  0.774358691531383  1.0000
  H   H7        1.0  0.8868256041774744  0.7457922876276367  0.24219196477443464  1.0000
  H   H8        1.0  0.021050715152632876  0.15916230650004337  0.7341052032226048  1.0000
  H   H9        1.0  0.27793422609721563  0.8970212613776524  0.3867910187865748  1.0000
  H   H10       1.0  0.2756574225295834  0.9898117594473558  0.38317900149783685  1.0000
  H   H11       1.0  0.32143224585568203  0.9912216425594308  0.48186674209334535  1.0000
  H   H12       1.0  0.27387706650065974  0.18158355143661709  0.3604291230579052  1.0000
  H   H13       1.0  0.17622943078442424  0.9811134037530349  0.4485976674095513  1.0000
  H   H14       1.0  0.17671125799487433  0.8892816183386002  0.4528995148223134  1.0000
  H   H15       1.0  0.11670506196829669  0.8136549059232079  0.29527323184402127  1.0000
  H   H16       1.0  0.11692751766615551  0.9055464374826554  0.29063695895820985  1.0000
  H   H17       1.0  0.8008645633365176  0.10381630658301327  0.6556021038283008  1.0000
  H   H18       1.0  0.7810856717025487  0.19302379670965308  0.6735569014878069  1.0000
  H   H19       1.0  0.6979705977183885  0.09001291691582478  0.59462774789305  1.0000
  H   H20       1.0  0.7578601500679767  0.17226348057730684  0.5275463978727971  1.0000
  H   H21       1.0  0.7785315449047515  0.08424937600761948  0.5096823835701657  1.0000
  H   H22       1.0  0.9034048598585329  0.21741133305287966  0.5474489601127177  1.0000
  H   H23       1.0  0.1544167359882847  0.49349342222511416  0.24837097794692659  1.0000
  H   H24       1.0  0.9061268311692814  0.2680121834659273  0.6459267119745961  1.0000
  H   H25       1.0  0.7981199903446949  0.4596001995734298  0.7703762262858265  1.0000
  H   H26       1.0  0.3642354572043088  0.5128626502734333  0.2867827491134136  1.0000
  H   H27       1.0  0.6371573385676186  0.5215857331072158  0.7860766772222834  1.0000
  H   H28       1.0  0.7186016107100172  0.6339004725040097  0.45141678568884214  1.0000
  H   H29       1.0  0.27868827211926117  0.31638435183250374  0.5103789294017391  1.0000
  H   H30       1.0  0.8754882164700247  0.7663135566772821  0.5506897895780727  1.0000
  C   C1        1.0  0.9948091813003828  0.8884931048400373  0.3712511381308731  1.0000
  C   C2        1.0  0.11065391848904942  0.5023361988152856  0.13160855724213158  1.0000
  C   C3        1.0  0.015523637114476673  0.6418890928393067  0.09170846918712534  1.0000
  C   C4        1.0  0.03397512224702124  0.4088059996713439  0.8856106963500213  1.0000
  C   C5        1.0  0.2615569371801029  0.5390612569420198  0.22951117396023352  1.0000
  C   C6        1.0  0.7164614334811005  0.46297339211612604  0.8245012212150019  1.0000
  C   C7        1.0  0.17753115465938404  0.5138124585908982  0.20821511043615715  1.0000
  C   C8        1.0  0.785844322510897  0.4556114890401871  0.822112098417897  1.0000
  C   C9        1.0  0.32155016826321503  0.5377813044317177  0.3000839985194474  1.0000
  C   C10       1.0  0.6610042929537913  0.47760130728102007  0.7627235391609735  1.0000
  C   C11       1.0  0.33439141496740626  0.5642706762235574  0.38054435286398564  1.0000
  C   C12       1.0  0.9569923074034463  0.10449488211715867  0.5765680106480319  1.0000
  C   C13       1.0  0.6361650536937873  0.44403876771637113  0.6790458789891007  1.0000
  C   C14       1.0  0.9169710439591655  0.881665863711248  0.535420392761097  1.0000
  C   C15       1.0  0.13367162213815925  0.10374821553891417  0.511568510861949  1.0000
  C   C16       1.0  0.7194789169228528  0.7373274713629028  0.5428889125111456  1.0000
  C   C17       1.0  0.2589115355907552  0.20707758947646224  0.41144181323213064  1.0000
  C   C18       1.0  0.6941295018278735  0.6546617338171145  0.4953252011361757  1.0000
  C   C19       1.0  0.2976599478384543  0.2911196318167057  0.4627762230088735  1.0000
  C   C20       1.0  0.781640241536408  0.8074004776027336  0.541721316700141  1.0000
  C   C21       1.0  0.19270179724696845  0.14855831113232645  0.42043379770554185  1.0000
  C   C22       1.0  0.856258267703076  0.8134837251154747  0.5421191776067716  1.0000
  C   C23       1.0  0.016333711894034823  0.837239478292041  0.3102706185709893  1.0000
  C   C24       1.0  0.1995252378091834  0.15611084182713597  0.4962429540888353  1.0000
  C   C25       1.0  0.9557664887518911  0.6988433524306996  0.182335918106496  1.0000
  C   C26       1.0  0.9942644587599646  0.2619341988789188  0.7888786438442142  1.0000
  C   C27       1.0  0.010529154034209419  0.71259192432192  0.14904619712802974  1.0000
  C   C28       1.0  0.02780333565094386  0.34527336904321965  0.8103328080782294  1.0000
  C   C29       1.0  0.9500166995857455  0.7625169458178503  0.24470256935015308  1.0000
  C   C30       1.0  0.9893730196556164  0.1962187822667828  0.7180961029840562  1.0000
  C   C31       1.0  0.10842556582725382  0.8691678327641127  0.32598023520645125  1.0000
  C   C32       1.0  0.18152821815514375  0.9244307425720633  0.4163570110153076  1.0000
  C   C33       1.0  0.2688405340435054  0.9519292909754424  0.41707728090835877  1.0000
  C   C34       1.0  0.9481831103999742  0.173154396725387  0.6349993264770363  1.0000
  C   C35       1.0  0.8907992884839261  0.206552991311291  0.5972189796960878  1.0000
  C   C36       1.0  0.7943419187129875  0.1455869459086756  0.5591051997608293  1.0000
  C   C37       1.0  0.7671646963690364  0.13245801192775278  0.6242890028305582  1.0000
  C   C38       1.0  0.39969957663471684  0.5514794493294273  0.43934590449490685  1.0000
  C   C39       1.0  0.5863158562714331  0.4723042602825273  0.624752963104392  1.0000
  C   C40       1.0  0.6249345039649156  0.5875896912136936  0.4948696176983349  1.0000
  C   C41       1.0  0.36745052937423844  0.35626215182747234  0.4624570972849541  1.0000
  C   C42       1.0  0.8569259040348881  0.45730133874072004  0.887233868693237  1.0000
  Cl  Cl1       1.0  0.281929898029766  0.6126353597907366  0.42111785831699694  1.0000
  Cl  Cl2       1.0  0.6589267234742663  0.36750148287913476  0.6264470889625215  1.0000
  Cl  Cl3       1.0  0.7509650792890099  0.8859301264274178  0.5425186220824545  1.0000
  Cl  Cl4       1.0  0.10587876420172646  0.06901341464015327  0.3253064740251404  1.0000
  Cl  Cl5       1.0  0.3076539148333667  0.5663113963001293  0.16913041498518316  1.0000
  Cl  Cl6       1.0  0.6921522752468121  0.466438869812883  0.9064737591911156  1.0000
  O   O1        1.0  0.03863895771840476  0.9128722672848467  0.4489769104771143  1.0000
  O   O2        1.0  0.012058110510871174  0.08198834569371627  0.6077503213299738  1.0000
  O   O3        1.0  0.9972653326972603  0.9138137852720758  0.5865365036077393  1.0000
  O   O4        1.0  0.055332509850934686  0.07801704770065498  0.464391775866787  1.0000
  O   O5        1.0  0.8863380275520996  0.9022557930356782  0.47956092317198085  1.0000
  O   O6        1.0  0.16194237408193857  0.08784558687150927  0.5738005311319301  1.0000
  O   O7        1.0  0.42535805040382246  0.5911595614691404  0.5188916748592122  1.0000
  O   O8        1.0  0.5656199399653444  0.43716536849093035  0.5471422991343715  1.0000
  O   O9        1.0  0.42460540579289585  0.5008902755949689  0.4048115473020675  1.0000
  O   O10       1.0  0.5691341555266616  0.5310612935418315  0.6610815479885518  1.0000
  O   O11       1.0  0.6008589780843676  0.60872697310981  0.5509383946334553  1.0000
  O   O12       1.0  0.9083881006867784  0.07252120780184157  0.49658925878107163  1.0000
  O   O13       1.0  0.393540093414316  0.3350311785660691  0.4068988468391056  1.0000
  O   O14       1.0  0.5922709491569619  0.5114881333703137  0.43504610620766493  1.0000
  O   O15       1.0  0.39838589370906863  0.43144405103739547  0.5203525647597973  1.0000
  O   O16       1.0  0.8415871317180077  0.41247312610234826  0.9251805522980592  1.0000
  O   O17       1.0  0.13062991696075696  0.5445523468345711  0.09395305746594579  1.0000
  O   O18       1.0  0.9310724629944501  0.5048359622105278  0.9003227668696285  1.0000
  O   O19       1.0  0.033608595931681876  0.4474597688250411  0.10855778463684378  1.0000
  O   O20       1.0  0.973335432856537  0.5667402144364002  0.07855428485584073  1.0000
  O   O21       1.0  0.08001556849145426  0.4874104387568677  0.9059910453043545  1.0000
  O   O22       1.0  0.06600822327516201  0.6624566446787057  0.05908090761445815  1.0000
  O   O23       1.0  0.9947419626325598  0.384618735930644  0.9246110659368016  1.0000
  O   O24       1.0  0.93265809809931  0.9049245772704707  0.34092156859017575  1.0000
