data_image0
_chemical_formula_structural       Cu2H44C38O14
_chemical_formula_sum              "Cu2 H44 C38 O14"
_cell_length_a       8.22358172896632
_cell_length_b       9.162898110617324
_cell_length_c       13.62855843447762
_cell_angle_alpha    70.33575978952533
_cell_angle_beta     84.66167158440257
_cell_angle_gamma    73.97038099595163

_space_group_name_H-M_alt    "P 1"
_space_group_IT_number       1

loop_
  _space_group_symop_operation_xyz
  'x, y, z'

loop_
  _atom_site_type_symbol
  _atom_site_label
  _atom_site_symmetry_multiplicity
  _atom_site_fract_x
  _atom_site_fract_y
  _atom_site_fract_z
  _atom_site_occupancy
  Cu  Cu1       1.0  0.4383443967525338  0.3422847041109377  0.45162530664166667  1.0000
  Cu  Cu2       1.0  0.9381171541507882  0.7939367983692094  0.5483440768376153  1.0000
  H   H1        1.0  0.5943789934836446  0.4921336125336918  0.5214470888749928  1.0000
  H   H2        1.0  0.09400366532129568  0.01389744189768282  0.4785117676556609  1.0000
  H   H3        1.0  0.34546272961297564  0.25141722565530966  0.2312885730704721  1.0000
  H   H4        1.0  0.8457488385920796  0.482212987095053  0.7686669064998383  1.0000
  H   H5        1.0  0.1412636385899688  0.22762766999029077  0.12180551948637229  1.0000
  H   H6        1.0  0.6417248429161121  0.34864737741610696  0.8782904424187946  1.0000
  H   H7        1.0  0.8831726618610459  0.3601693946121429  0.00936913282926344  1.0000
  H   H8        1.0  0.3836077452920464  0.36856400297884995  0.9908192129998737  1.0000
  H   H9        1.0  0.6931513113438398  0.6174248000543159  0.01814199407430541  1.0000
  H   H10       1.0  0.19344747540372242  0.6345398508642646  0.9819455547564643  1.0000
  H   H11       1.0  0.7669822920922088  0.7505267215358201  0.13449263891050114  1.0000
  H   H12       1.0  0.2669523162838771  0.8841596703112059  0.8654102856121425  1.0000
  H   H13       1.0  0.02377709346163925  0.617696217508886  0.2458896190271815  1.0000
  H   H14       1.0  0.5238015098696777  0.8629269184737751  0.754026796288876  1.0000
  H   H15       1.0  0.5087853890522851  0.5666187948469174  0.22330479454087276  1.0000
  H   H16       1.0  0.008702828851497214  0.7896174282076559  0.7766946771392467  1.0000
  H   H17       1.0  0.5292257728309904  0.3979131188478745  0.18130750134672266  1.0000
  H   H18       1.0  0.029192182572202813  0.5788632230635998  0.8187637987767501  1.0000
  H   H19       1.0  0.37067628318609286  0.5811873283693316  0.12393871993214124  1.0000
  H   H20       1.0  0.8704615037682261  0.7047750062409576  0.8760218167781416  1.0000
  H   H21       1.0  0.8678291707644092  0.11735662819224754  0.2752380124317  1.0000
  H   H22       1.0  0.3678392645699873  0.392657385252846  0.7248150359103391  1.0000
  H   H23       1.0  0.741082525465572  0.17108133268480696  0.11215581438353439  1.0000
  H   H24       1.0  0.24043564206289156  0.28334296188404534  0.8878563294886774  1.0000
  H   H25       1.0  0.5477923420865451  0.11967830265180618  0.004162963423617296  1.0000
  H   H26       1.0  0.04727832556512377  0.12357451194240093  0.9957259201468032  1.0000
  H   H27       1.0  0.3777453812471522  0.9235821855180147  0.0872357541825649  1.0000
  H   H28       1.0  0.8779861257297554  0.010032528341099531  0.9125827149867618  1.0000
  H   H29       1.0  0.4103791151774702  0.7717655607896247  0.27843219053266205  1.0000
  H   H30       1.0  0.9109375104854112  0.04980387185214146  0.7213624949120429  1.0000
  H   H31       1.0  0.6081249577559548  0.817076848125609  0.3837007213153709  1.0000
  H   H32       1.0  0.10864923065517475  0.2006064270204247  0.6162576989453399  1.0000
  H   H33       1.0  0.03557830486276712  0.8620173156189351  0.21948027346660115  1.0000
  H   H34       1.0  0.535333640416482  0.08125586181811423  0.7805395050518554  1.0000
  H   H35       1.0  0.158326613344819  0.736234729780307  0.33437531947065924  1.0000
  H   H36       1.0  0.6583412604122219  0.07046695576164538  0.6657179198453136  1.0000
  H   H37       1.0  0.14176855720400985  0.9490319500973357  0.2861815056775824  1.0000
  H   H38       1.0  0.6419228088637112  0.2348466557218668  0.7140788217275613  1.0000
  H   H39       1.0  0.7895980707400413  0.4176520930037739  0.3483813603636037  1.0000
  H   H40       1.0  0.28900130656934664  0.7662884167377225  0.6516814567502961  1.0000
  H   H41       1.0  0.8434972100358706  0.4991248247902433  0.4397642729094144  1.0000
  H   H42       1.0  0.3429671022809871  0.9391822057136777  0.5602378265502778  1.0000
  H   H43       1.0  0.8352488591499141  0.2931483810689102  0.48059110576369324  1.0000
  H   H44       1.0  0.3348607271540871  0.773957819112681  0.5195040163744622  1.0000
  C   C1        1.0  0.20264946983844118  0.2296008285238002  0.3708542767724338  1.0000
  C   C2        1.0  0.7027595071132497  0.6001183544688897  0.6291638321268705  1.0000
  C   C3        1.0  0.24966299766324337  0.3353532770479645  0.2631049819367632  1.0000
  C   C4        1.0  0.7498756147977232  0.597944186612054  0.7369033205189267  1.0000
  C   C5        1.0  0.09793860815003093  0.414641639332423  0.19129457369279382  1.0000
  C   C6        1.0  0.5981808072251553  0.6052314167466973  0.8087703423741813  1.0000
  C   C7        1.0  0.05826431472164728  0.3422705448777775  0.12436587949925128  1.0000
  C   C8        1.0  0.5586178478156898  0.4657920286480036  0.8757211289705039  1.0000
  C   C9        1.0  0.9130909467338383  0.4155400118207027  0.06241451358495444  1.0000
  C   C10       1.0  0.4134891862904483  0.4770053154810935  0.9377246684759939  1.0000
  C   C11       1.0  0.806997096195971  0.5618294282720271  0.06623119191426947  1.0000
  C   C12       1.0  0.3072790764294666  0.6270979300918713  0.9338379101369156  1.0000
  C   C13       1.0  0.8482441460713798  0.6360759402021047  0.13119719808778993  1.0000
  C   C14       1.0  0.3482985568029022  0.7664161957182286  0.8687446198973132  1.0000
  C   C15       1.0  0.9924903489103372  0.5621900879797792  0.1935731478858712  1.0000
  C   C16       1.0  0.4925794970776139  0.7550206903779966  0.8063867330943068  1.0000
  C   C17       1.0  0.4388932370181635  0.5017919806740636  0.1961318312940817  1.0000
  C   C18       1.0  0.9388317010170726  0.6975634433892279  0.8038806421696733  1.0000
  C   C19       1.0  0.716015499957841  0.0794626880040921  0.41088270382463316  1.0000
  C   C20       1.0  0.2162411125629831  0.4905352313298223  0.5890939084047419  1.0000
  C   C21       1.0  0.8071636474598308  0.022106928786435293  0.32144383792954295  1.0000
  C   C22       1.0  0.30727325141053546  0.3436619672750467  0.6785764564055297  1.0000
  C   C23       1.0  0.6848265987783931  0.9993631308440243  0.2549297589865275  1.0000
  C   C24       1.0  0.18494634598059184  0.25419382994130024  0.7450463273256105  1.0000
  C   C25       1.0  0.66803242691482  0.08348905644620426  0.1480654924938563  1.0000
  C   C26       1.0  0.16772242861245704  0.23148807470211327  0.8518890588425022  1.0000
  C   C27       1.0  0.5578509958446103  0.05612195545172942  0.08780658689272507  1.0000
  C   C28       1.0  0.057609369070576094  0.14363961945760906  0.91209435788209  1.0000
  C   C29       1.0  0.46277891719552133  0.9456870250582129  0.13436015989498165  1.0000
  C   C30       1.0  0.9629182442762175  0.07949645816676539  0.8655129471731159  1.0000
  C   C31       1.0  0.48074288096375994  0.8606052836818349  0.24115449106002967  1.0000
  C   C32       1.0  0.9811363136682871  0.10135882782085988  0.7587209697001853  1.0000
  C   C33       1.0  0.591364504914722  0.8865103221678792  0.3010111571339421  1.0000
  C   C34       1.0  0.09174174025999095  0.18728510573512833  0.6989435310457921  1.0000
  C   C35       1.0  0.07583981368114938  0.8556351689316839  0.29615937293132777  1.0000
  C   C36       1.0  0.5758663379766062  0.15163783473122552  0.703938016040567  1.0000
  C   C37       1.0  0.7784241917345083  0.41552511900714956  0.4293791553164609  1.0000
  C   C38       1.0  0.27793290508061813  0.8451430586084854  0.5706622731295353  1.0000
  O   O1        1.0  0.2661000708145453  0.22797692502816586  0.4532286968719887  1.0000
  O   O2        1.0  0.7660445525898256  0.681100546568622  0.5467604695362523  1.0000
  O   O3        1.0  0.10489667308890202  0.14458264641211838  0.37155590803786953  1.0000
  O   O4        1.0  0.6051204721334784  0.5156931454455104  0.6284836887167273  1.0000
  O   O5        1.0  0.3241401065213836  0.44995610825094445  0.27761533283756273  1.0000
  O   O6        1.0  0.8242523457819287  0.7271420954688138  0.7223510071096156  1.0000
  O   O7        1.0  0.7592817830434058  0.0043462454650436515  0.504959283346814  1.0000
  O   O8        1.0  0.25980616359001385  0.509558577312326  0.49506237834342665  1.0000
  O   O9        1.0  0.5997259720890113  0.2088157586580549  0.3791734158224712  1.0000
  O   O10       1.0  0.09974415828722273  0.5880969764824896  0.6207231319528572  1.0000
  O   O11       1.0  0.933773744802686  0.8753197330551499  0.36399867311779827  1.0000
  O   O12       1.0  0.4339984793061689  0.23956653699167416  0.6360011445188221  1.0000
  O   O13       1.0  0.6012886452674451  0.46847719018204953  0.452371741541576  1.0000
  O   O14       1.0  0.1008186509051398  0.9210783545586023  0.5475801264151555  1.0000
