data_image0
_chemical_formula_structural       Cu8H48C48Br8N16
_chemical_formula_sum              "Cu8 H48 C48 Br8 N16"
_cell_length_a       12.580674797395345
_cell_length_b       14.011431354013878
_cell_length_c       14.011403466682317
_cell_angle_alpha    78.38188659998062
_cell_angle_beta     63.33280449185699
_cell_angle_gamma    63.33306495935068

_space_group_name_H-M_alt    "P 1"
_space_group_IT_number       1

loop_
  _space_group_symop_operation_xyz
  'x, y, z'

loop_
  _atom_site_type_symbol
  _atom_site_label
  _atom_site_symmetry_multiplicity
  _atom_site_fract_x
  _atom_site_fract_y
  _atom_site_fract_z
  _atom_site_occupancy
  Cu  Cu1       1.0  0.17960711612154512  0.46810203335991935  0.998676383761932  1.0000
  Cu  Cu2       1.0  0.6464235478095333  0.5317342261292025  0.001301982603969572  1.0000
  Cu  Cu3       1.0  0.428290179137136  0.5013274204383007  0.968202250880303  1.0000
  Cu  Cu4       1.0  0.8977314562927534  0.4987062031488064  0.03175752389873316  1.0000
  Cu  Cu5       1.0  0.6464371121938441  0.0012974872807304993  0.5317131191598891  1.0000
  Cu  Cu6       1.0  0.17960437512138608  0.9986865209015504  0.4681191921932069  1.0000
  Cu  Cu7       1.0  0.8977311001493717  0.03174588515923198  0.498706120367224  1.0000
  Cu  Cu8       1.0  0.4282349143589812  0.968235825074693  0.5013432255414827  1.0000
  H   H1        1.0  0.7195672973662184  0.40242894307521465  0.2475496796918718  1.0000
  H   H2        1.0  0.7904240398811738  0.35982494964507333  0.11457066091756486  1.0000
  H   H3        1.0  0.3701848708610457  0.231438875934117  0.07444497778246281  1.0000
  H   H4        1.0  0.3079988608438383  0.36294773066339303  0.1181253976616219  1.0000
  H   H5        1.0  0.3695021228002133  0.5975805067994598  0.7525124879421841  1.0000
  H   H6        1.0  0.2648289817273339  0.6402505323519633  0.8854601062081289  1.0000
  H   H7        1.0  0.6761119698574805  0.7685624229528043  0.9255653376800554  1.0000
  H   H8        1.0  0.7891350788307463  0.6370559592041829  0.8818862423451608  1.0000
  H   H9        1.0  0.2170343538379883  0.2525069548974556  0.9023536428183832  1.0000
  H   H10       1.0  0.15499267089658272  0.38546717880866765  0.8597545973608831  1.0000
  H   H11       1.0  0.6947233241528252  0.425573936231892  0.7314482526869172  1.0000
  H   H12       1.0  0.6762541222248332  0.3819037987480484  0.8629169213432065  1.0000
  H   H13       1.0  0.37191511564867596  0.7475143703883732  0.09762695613206065  1.0000
  H   H14       1.0  0.400248515793436  0.6145203515956865  0.1402004425282399  1.0000
  H   H15       1.0  0.8515611530996949  0.5744410308761941  0.2685808081039838  1.0000
  H   H16       1.0  0.9209026833850942  0.6180935921605267  0.13706953830900684  1.0000
  H   H17       1.0  0.369493896512765  0.7525295486230515  0.5975747722350135  1.0000
  H   H18       1.0  0.2648074534641725  0.8854790310959683  0.6402443898004222  1.0000
  H   H19       1.0  0.6761167456425171  0.925581530056476  0.7685364366583232  1.0000
  H   H20       1.0  0.7891389844839486  0.8819083014002798  0.6370341581715877  1.0000
  H   H21       1.0  0.7195704777299241  0.247527020469775  0.4024413118181728  1.0000
  H   H22       1.0  0.7904189478060034  0.11455252477715308  0.3598456267215581  1.0000
  H   H23       1.0  0.3701777045602769  0.074434943084043  0.23146423632827856  1.0000
  H   H24       1.0  0.30799689226938654  0.11811216072820938  0.36297249838378326  1.0000
  H   H25       1.0  0.3719313261882817  0.09761599924565449  0.7475005847248397  1.0000
  H   H26       1.0  0.40024936649702186  0.14018462503453577  0.6145030066345144  1.0000
  H   H27       1.0  0.8515744146409433  0.2685616849291037  0.5744295673968907  1.0000
  H   H28       1.0  0.9209271437139036  0.13704932085367721  0.6180696629006591  1.0000
  H   H29       1.0  0.2170181946926207  0.9023590048455431  0.25252179751309  1.0000
  H   H30       1.0  0.15496864709157906  0.8597661661864676  0.38548734190045053  1.0000
  H   H31       1.0  0.694706100214603  0.7314644631003374  0.42559341876855683  1.0000
  H   H32       1.0  0.6762364137597249  0.8629336952598051  0.381933242756425  1.0000
  H   H33       1.0  0.6779334147245067  0.24617928431809588  0.2461963462641706  1.0000
  H   H34       1.0  0.8447501672869182  0.1709880635348071  0.17099553658291472  1.0000
  H   H35       1.0  0.4271209959886805  0.223784579276014  0.22379898326072128  1.0000
  H   H36       1.0  0.26479614041439  0.30428775405082575  0.30429246990999564  1.0000
  H   H37       1.0  0.17030812221856476  0.7538168595442939  0.7538120039351455  1.0000
  H   H38       1.0  0.18670364335230977  0.8290280457581005  0.8290327455649518  1.0000
  H   H39       1.0  0.8748283449987823  0.7762303864735712  0.7762099752754708  1.0000
  H   H40       1.0  0.8734515096015587  0.6957327390628263  0.6957210418922488  1.0000
  H   H41       1.0  0.1740398717745324  0.2538642636003345  0.7460933582726953  1.0000
  H   H42       1.0  0.26566492566743705  0.32904150737916626  0.6709251626981896  1.0000
  H   H43       1.0  0.9010348121846479  0.27615213087396734  0.7237005883378134  1.0000
  H   H44       1.0  0.8191275103417655  0.19572462293878348  0.8042451104798901  1.0000
  H   H45       1.0  0.17402936010444148  0.746100625514117  0.25388153504179917  1.0000
  H   H46       1.0  0.26566960829022446  0.6709241812224676  0.32904401041546555  1.0000
  H   H47       1.0  0.9010150185749313  0.7237207585638429  0.2761773724702295  1.0000
  H   H48       1.0  0.8191172670765282  0.8042544267894202  0.19574026811760364  1.0000
  C   C1        1.0  0.9261594510804442  0.3231362406256082  0.18261656816947905  1.0000
  C   C2        1.0  0.16531942793509571  0.3007462386580641  0.16004945596012024  1.0000
  C   C3        1.0  0.7972086484764064  0.33576833821538077  0.19210145782578553  1.0000
  C   C4        1.0  0.29793181492546245  0.28668427440132394  0.14257345372089966  1.0000
  C   C5        1.0  0.43193700024179554  0.6769054923082791  0.8173781550852864  1.0000
  C   C6        1.0  0.6262471564927807  0.6992238924271844  0.8399276778789615  1.0000
  C   C7        1.0  0.3250931458605423  0.6642708705602517  0.8079037367313192  1.0000
  C   C8        1.0  0.7272865295045464  0.7133321425906657  0.857426266894265  1.0000
  C   C9        1.0  0.35876978869066545  0.31741595895866226  0.8230737461713675  1.0000
  C   C10       1.0  0.5754458093175571  0.3399513237063942  0.8007718847275456  1.0000
  C   C11       1.0  0.23927649108726734  0.30793335797861937  0.8356943549400597  1.0000
  C   C12       1.0  0.6906046225882821  0.35743393744042606  0.7866744418927427  1.0000
  C   C13       1.0  0.4992309813920529  0.6825761580913081  0.1769294956753954  1.0000
  C   C14       1.0  0.7160456489575681  0.6600875808307193  0.19923607800208024  1.0000
  C   C15       1.0  0.38290643539031105  0.6920682107759146  0.16427784638696621  1.0000
  C   C16       1.0  0.8345865670546077  0.6425665940893454  0.21332644087167568  1.0000
  C   C17       1.0  0.43192572316512234  0.8174048052648216  0.676891253189801  1.0000
  C   C18       1.0  0.6262492984310275  0.8399444276736573  0.6992029157267298  1.0000
  C   C19       1.0  0.32508353137962587  0.8079247975950777  0.6642638041998694  1.0000
  C   C20       1.0  0.7272907904120705  0.8574452851147922  0.7133027384894534  1.0000
  C   C21       1.0  0.9261611877063772  0.18258980766579208  0.32315524358850206  1.0000
  C   C22       1.0  0.16531808082456223  0.16004087805095674  0.30076672767040685  1.0000
  C   C23       1.0  0.7972108000588278  0.192078472528145  0.33578638693054347  1.0000
  C   C24       1.0  0.29792620204950987  0.14256234702776988  0.28670984154445023  1.0000
  C   C25       1.0  0.4992456801277357  0.17691311989692335  0.6825495678292341  1.0000
  C   C26       1.0  0.7160669249497502  0.1992112744257852  0.6600636189058022  1.0000
  C   C27       1.0  0.3829177960671118  0.16426856898834788  0.6920484677845878  1.0000
  C   C28       1.0  0.8346040375248055  0.21330431046196446  0.6425479051503091  1.0000
  C   C29       1.0  0.3587457173918766  0.823092573077879  0.3174375791554453  1.0000
  C   C30       1.0  0.5754200999659745  0.8007988791792541  0.33997827054588464  1.0000
  C   C31       1.0  0.23925893901050455  0.8357042484702362  0.30795408105114325  1.0000
  C   C32       1.0  0.6905880181754045  0.7866930266591722  0.35745726658380783  1.0000
  C   C33       1.0  0.9847365373021264  0.24742462440925547  0.2474415064101907  1.0000
  C   C34       1.0  0.10676735322704911  0.23596495012148466  0.2359907017478662  1.0000
  C   C35       1.0  0.7762698246467254  0.23299585351480798  0.23301126637277753  1.0000
  C   C36       1.0  0.3255270568972223  0.24214117570022609  0.24215651154644746  1.0000
  C   C37       1.0  0.47963589439861226  0.7526094748896951  0.7525934735608714  1.0000
  C   C38       1.0  0.5787678943148578  0.7640511756705519  0.7640239649562659  1.0000
  C   C39       1.0  0.2422583549167215  0.7670168450112412  0.7670064808053141  1.0000
  C   C40       1.0  0.8099204334773238  0.7578806952093017  0.7578585882954626  1.0000
  C   C41       1.0  0.48218439897448223  0.2526058277809327  0.7473715412065758  1.0000
  C   C42       1.0  0.592748795500704  0.2640389983598014  0.7359888002819232  1.0000
  C   C43       1.0  0.2591843290649225  0.26703886104277785  0.7329324923148022  1.0000
  C   C44       1.0  0.8177407644014425  0.25785043983214  0.7421000663820011  1.0000
  C   C45       1.0  0.4821645963400697  0.747398625865351  0.25263065600871937  1.0000
  C   C46       1.0  0.592725270165325  0.7360147535749061  0.26406276944832296  1.0000
  C   C47       1.0  0.25917405087990647  0.7329417845613547  0.2670568081065809  1.0000
  C   C48       1.0  0.8177193027330034  0.7421180079480789  0.25787655103325613  1.0000
  Br  Br1       1.0  0.031369157322991836  0.5983925286367294  0.9158355284653369  1.0000
  Br  Br2       1.0  0.5453817625981756  0.4015519768733  0.08434265739288822  1.0000
  Br  Br3       1.0  0.1971180616788217  0.5842011955517421  0.09840067703809306  1.0000
  Br  Br4       1.0  0.8797126239803039  0.4158607933616309  0.9014583194811295  1.0000
  Br  Br5       1.0  0.5453664011553913  0.0843295981560033  0.40157418720325927  1.0000
  Br  Br6       1.0  0.031383535197662286  0.9158369269055694  0.5983614606576495  1.0000
  Br  Br7       1.0  0.8797023404315427  0.9014828475830612  0.41584649822400643  1.0000
  Br  Br8       1.0  0.19707964646515558  0.09841861369516638  0.5842063710136216  1.0000
  N   N1        1.0  0.1037693694707259  0.3733919704670113  0.10326478275079863  1.0000
  N   N2        1.0  0.9846609082832887  0.3836449873464715  0.11359310887764465  1.0000
  N   N3        1.0  0.5805409141345166  0.6265833219210035  0.8966821751239706  1.0000
  N   N4        1.0  0.48197911261349463  0.6163541431209579  0.8863704708908315  1.0000
  N   N5        1.0  0.4570861527692073  0.3967164864239834  0.873424392052776  1.0000
  N   N6        1.0  0.3483054337711663  0.3863831737590572  0.8836382601134858  1.0000
  N   N7        1.0  0.7271194008913542  0.6032980278640423  0.12658798243510463  1.0000
  N   N8        1.0  0.6182546808863452  0.6135895061283633  0.11636786387196459  1.0000
  N   N9        1.0  0.5805417642817905  0.8967029224899787  0.6265572173692533  1.0000
  N   N10       1.0  0.48196161668337856  0.8864018667257838  0.616345152885934  1.0000
  N   N11       1.0  0.10376420532284675  0.10325480023065128  0.37341795878439404  1.0000
  N   N12       1.0  0.9846632616533242  0.11357170746044426  0.3836641335453096  1.0000
  N   N13       1.0  0.7271398684820911  0.12656559424767977  0.603276068250736  1.0000
  N   N14       1.0  0.6182702695362964  0.11635288099108716  0.6135638915548968  1.0000
  N   N15       1.0  0.45706460600529647  0.8734489201361129  0.39673916435086914  1.0000
  N   N16       1.0  0.3482858220897146  0.8836573344713583  0.3864043642833935  1.0000
