data_image0
_chemical_formula_structural       Zn4H56C32N8O28
_chemical_formula_sum              "Zn4 H56 C32 N8 O28"
_cell_length_a       6.595092939054886
_cell_length_b       11.184361930500025
_cell_length_c       16.254259184652966
_cell_angle_alpha    106.91601753276156
_cell_angle_beta     90.001998062927
_cell_angle_gamma    89.99912608644989

_space_group_name_H-M_alt    "P 1"
_space_group_IT_number       1

loop_
  _space_group_symop_operation_xyz
  'x, y, z'

loop_
  _atom_site_type_symbol
  _atom_site_label
  _atom_site_symmetry_multiplicity
  _atom_site_fract_x
  _atom_site_fract_y
  _atom_site_fract_z
  _atom_site_occupancy
  Zn  Zn1       1.0  0.2436558317580548  0.7033352818672826  0.8983005809678629  1.0000
  Zn  Zn2       1.0  0.7436504248900134  0.2966827171940523  0.6017006982792594  1.0000
  Zn  Zn3       1.0  0.756359895965069  0.29666984368445537  0.1017037857091623  1.0000
  Zn  Zn4       1.0  0.25633497727753957  0.7033177365397664  0.3983027909601304  1.0000
  H   H1        1.0  0.49558757812250326  0.36768691046716373  0.9533704394740283  1.0000
  H   H2        1.0  0.9955887568156926  0.6323417803915704  0.5466161417612199  1.0000
  H   H3        1.0  0.5043963075796256  0.632303106192616  0.0466255519998029  1.0000
  H   H4        1.0  0.004433035710434301  0.367640637573011  0.4533741158538547  1.0000
  H   H5        1.0  0.2890580465850547  0.2898689252434608  0.8893126961828273  1.0000
  H   H6        1.0  0.7890445046482099  0.7101433987158571  0.6106912429089633  1.0000
  H   H7        1.0  0.710922806576903  0.7101398495528882  0.1106892787923854  1.0000
  H   H8        1.0  0.21097577178561977  0.2898494563280139  0.389306512450986  1.0000
  H   H9        1.0  0.5493662398056571  0.0746865089145032  0.6349666660137813  1.0000
  H   H10       1.0  0.0493662668697965  0.9253009592517859  0.8650457946008387  1.0000
  H   H11       1.0  0.45062371117234074  0.9253026793352035  0.36503286195356577  1.0000
  H   H12       1.0  0.9506327816166761  0.07469561566274759  0.1349520437492515  1.0000
  H   H13       1.0  0.6913135333794641  0.022013843954461303  0.7108240962365002  1.0000
  H   H14       1.0  0.1913194448927271  0.9779988360277443  0.7891791283114314  1.0000
  H   H15       1.0  0.30868551512003967  0.9779855517447374  0.2891748871017796  1.0000
  H   H16       1.0  0.8087023476769064  0.021996733823662903  0.21081606014874407  1.0000
  H   H17       1.0  0.8221017071246736  0.3675177764211596  0.8854888302118553  1.0000
  H   H18       1.0  0.32212273119294815  0.6325150052384741  0.6144874253383675  1.0000
  H   H19       1.0  0.17786246686130622  0.6324806143146517  0.11450750284353722  1.0000
  H   H20       1.0  0.6779020942031548  0.36747324857677904  0.38551192742068  1.0000
  H   H21       1.0  0.7418694750936227  0.4167503190600855  0.7963352571633564  1.0000
  H   H22       1.0  0.24188868884373704  0.5832666281320442  0.7036614918899389  1.0000
  H   H23       1.0  0.2581022805901441  0.583244528452866  0.2036671793060023  1.0000
  H   H24       1.0  0.7581209736642123  0.4167374924064405  0.29634022470068544  1.0000
  H   H25       1.0  0.0439260528838759  0.29314705163776733  0.7534320174488514  1.0000
  H   H26       1.0  0.5439544439039139  0.7068961957633063  0.7465477658854949  1.0000
  H   H27       1.0  0.956047218909731  0.706856116927213  0.24656890479769797  1.0000
  H   H28       1.0  0.4560582512093987  0.2931032705619359  0.25345369214473124  1.0000
  H   H29       1.0  0.954820230705529  0.17269869578259997  0.7954585537491498  1.0000
  H   H30       1.0  0.454793948262015  0.8273546419364803  0.7045394565909504  1.0000
  H   H31       1.0  0.0451530409233314  0.8273062355560371  0.2045390074914124  1.0000
  H   H32       1.0  0.5452141983354437  0.1726319197836546  0.2954657316591991  1.0000
  H   H33       1.0  0.8832007248746694  0.013774617756304501  0.5791815624817929  1.0000
  H   H34       1.0  0.3832115303595032  0.9862316150301284  0.9208170404455132  1.0000
  H   H35       1.0  0.1167846769546088  0.9862199824591826  0.42081221298458615  1.0000
  H   H36       1.0  0.6167860017094284  0.013772364230014501  0.0791797268646306  1.0000
  H   H37       1.0  0.052531988866043405  0.0419306459719095  0.6679274816801026  1.0000
  H   H38       1.0  0.552540078995861  0.9580844362073863  0.8320760566145537  1.0000
  H   H39       1.0  0.9474458314562781  0.9580713762621046  0.3320658413546909  1.0000
  H   H40       1.0  0.4474832297182233  0.041911979703392895  0.1679162140535411  1.0000
  H   H41       1.0  0.9253199736359792  0.5978952057132788  0.7896585249692194  1.0000
  H   H42       1.0  0.425312473903972  0.4021282104964143  0.7103291382628568  1.0000
  H   H43       1.0  0.07468817229395339  0.40211152366348557  0.2103369128026458  1.0000
  H   H44       1.0  0.5746835419208978  0.5978851654944323  0.2896712394476992  1.0000
  H   H45       1.0  0.8270105110173632  0.6698066362857348  0.8823588491583293  1.0000
  H   H46       1.0  0.3270045411101563  0.33019601824060624  0.6176370480836011  1.0000
  H   H47       1.0  0.172997634882158  0.3301953858957845  0.117634474083296  1.0000
  H   H48       1.0  0.6729869261468837  0.6698100417272103  0.3823674938741135  1.0000
  H   H49       1.0  0.1847420120981269  0.9209764321283417  0.02585117092769454  1.0000
  H   H50       1.0  0.6847206106292489  0.0790325863756323  0.4741479470473706  1.0000
  H   H51       1.0  0.8152888783398851  0.07902770603581638  0.9741511644574317  1.0000
  H   H52       1.0  0.31525721006595825  0.9209678143840563  0.5258536861911551  1.0000
  H   H53       1.0  0.9794123750189956  0.856629011715647  0.9895151551446801  1.0000
  H   H54       1.0  0.4794065700694219  0.1433807491454644  0.510489792418575  1.0000
  H   H55       1.0  0.0206003202894678  0.1433733990311836  0.010491778421773297  1.0000
  H   H56       1.0  0.5205757995707572  0.8566187878819421  0.489514140003692  1.0000
  C   C1        1.0  0.356885969016261  0.47145308881244563  0.8769205655091808  1.0000
  C   C2        1.0  0.8569189911364958  0.5285644651893335  0.6230804026154928  1.0000
  C   C3        1.0  0.6430903358640448  0.5285485642474653  0.1230923788600862  1.0000
  C   C4        1.0  0.14311644847203553  0.47144646085936853  0.3769318220198342  1.0000
  C   C5        1.0  0.42361041281981227  0.3480367249554276  0.8899972165543202  1.0000
  C   C6        1.0  0.9235967609784411  0.6519652772292374  0.6099888626529903  1.0000
  C   C7        1.0  0.5763810543199952  0.6519551957642307  0.11000036316297468  1.0000
  C   C8        1.0  0.0764310968106372  0.34802473935442885  0.3900071291207539  1.0000
  C   C9        1.0  0.4965038803618285  0.1746499053950501  0.7641289147990162  1.0000
  C   C10       1.0  0.9964828921512136  0.8253810749759724  0.7358728772697987  1.0000
  C   C11       1.0  0.5034936518848951  0.8253551318760941  0.2358723585053113  1.0000
  C   C12       1.0  0.0035298027149082006  0.1746154116028507  0.2641218679247714  1.0000
  C   C13       1.0  0.6393701155934933  0.1057791559748296  0.6939832499705361  1.0000
  C   C14       1.0  0.1393719843464609  0.8942292439224744  0.8060258125590138  1.0000
  C   C15       1.0  0.3606001238504604  0.8942185299878246  0.30602095012639546  1.0000
  C   C16       1.0  0.8606194825549379  0.10576907611641671  0.1939680460836541  1.0000
  C   C17       1.0  0.7605202174646308  0.3348512224785551  0.8198488316336423  1.0000
  C   C18       1.0  0.26052172682917524  0.6651690444228321  0.6801365005026909  1.0000
  C   C19       1.0  0.2394560868648909  0.6651397462308565  0.180147953884358  1.0000
  C   C20       1.0  0.7394970332824755  0.3348275304575735  0.3198613379818411  1.0000
  C   C21       1.0  0.9079968326928378  0.2431571957734562  0.7639638485375784  1.0000
  C   C22       1.0  0.4079916755138129  0.7568747604217737  0.7360276320209921  1.0000
  C   C23       1.0  0.09197947156308571  0.7568440333884323  0.23603424823846095  1.0000
  C   C24       1.0  0.5920119220432555  0.24311072563281752  0.2639724315542296  1.0000
  C   C25       1.0  0.9666972488819212  0.08676814895866869  0.6270808950064861  1.0000
  C   C26       1.0  0.46669824817989547  0.9132442117591779  0.8729157443994423  1.0000
  C   C27       1.0  0.03328512035941599  0.9132386157875558  0.37291577988900576  1.0000
  C   C28       1.0  0.5333144467815885  0.0867485903105631  0.1270801549596499  1.0000
  C   C29       1.0  0.1171810803602895  0.14611654048538722  0.5800529841548681  1.0000
  C   C30       1.0  0.6171810528697038  0.8539017374638788  0.9199410020480059  1.0000
  C   C31       1.0  0.8828210008141042  0.8538913705498032  0.4199512901178436  1.0000
  C   C32       1.0  0.38285438624006934  0.14609853955914787  0.0800563010354836  1.0000
  N   N1        1.0  0.5619204115792229  0.2784409385383739  0.8239156448492011  1.0000
  N   N2        1.0  0.061927736697875  0.7215867508159947  0.6760750115103633  1.0000
  N   N3        1.0  0.4380558928284016  0.7215557070651928  0.17608466794462882  1.0000
  N   N4        1.0  0.9380910236522482  0.27840904865209376  0.3239282193754676  1.0000
  N   N5        1.0  0.8180696228377614  0.17723487840145677  0.6789431229884356  1.0000
  N   N6        1.0  0.31808821308799656  0.8227818226472009  0.8210552841513561  1.0000
  N   N7        1.0  0.18190061662801327  0.8227750074115222  0.3210652138577288  1.0000
  N   N8        1.0  0.681907802875358  0.17720727727991908  0.1789411506087717  1.0000
  O   O1        1.0  0.2886294158089626  0.553988712068687  0.9432122110332769  1.0000
  O   O2        1.0  0.7886497953397437  0.4460203509707412  0.5567751112118131  1.0000
  O   O3        1.0  0.7113787304331041  0.4460126053501766  0.05678897920852678  1.0000
  O   O4        1.0  0.2113659324960366  0.5539773525755862  0.4432297078450914  1.0000
  O   O5        1.0  0.3704290689092814  0.49174034524450144  0.8043025042846494  1.0000
  O   O6        1.0  0.8704672450796807  0.5082683462594347  0.6956828406567368  1.0000
  O   O7        1.0  0.6295805935510188  0.5082684295019818  0.19569947088705672  1.0000
  O   O8        1.0  0.12953938490088748  0.4917348575726308  0.3043193191167646  1.0000
  O   O9        1.0  0.08312696343870128  0.25652854919117374  0.5768506517396831  1.0000
  O   O10       1.0  0.5831587988183955  0.7434905354334803  0.9231669974896091  1.0000
  O   O11       1.0  0.9168811828814115  0.7434728212149367  0.4231523944512787  1.0000
  O   O12       1.0  0.416846315308227  0.25651108225171987  0.07684470977671509  1.0000
  O   O13       1.0  0.2691525233780396  0.08017709122648141  0.5454253343670814  1.0000
  O   O14       1.0  0.7691583216134887  0.9198258518974923  0.9545728669668277  1.0000
  O   O15       1.0  0.730857138700614  0.9198239259286609  0.45456533883985634  1.0000
  O   O16       1.0  0.23086650360068006  0.08017915000157667  0.0454271692242258  1.0000
  O   O17       1.0  0.3244690643907475  0.12899311402498634  0.7663027976849293  1.0000
  O   O18       1.0  0.8244831331860708  0.8710005587727496  0.73370368355873  1.0000
  O   O19       1.0  0.6755087565123999  0.8709905563133089  0.23369877077131207  1.0000
  O   O20       1.0  0.17553259426385637  0.1290015693701534  0.2662933516329176  1.0000
  O   O21       1.0  0.9559386481627428  0.6473928177066455  0.8508457441331032  1.0000
  O   O22       1.0  0.4559347860289407  0.35265282915996476  0.6491434542502788  1.0000
  O   O23       1.0  0.044072530125610895  0.35262877333810383  0.1491494075494089  1.0000
  O   O24       1.0  0.544056680877091  0.6473726760394101  0.3508585855796084  1.0000
  O   O25       1.0  0.1204868239736427  0.8366876571559843  0.004622526903418106  1.0000
  O   O26       1.0  0.6204666165650821  0.1633216191239555  0.4953769518785762  1.0000
  O   O27       1.0  0.879531936216182  0.1633202185254987  0.9953805101836152  1.0000
  O   O28       1.0  0.3795112041431565  0.8366816024203985  0.5046258263481462  1.0000
