data_image0
_chemical_formula_structural       Cu4H12C16Br4N8Cl4
_chemical_formula_sum              "Cu4 H12 C16 Br4 N8 Cl4"
_cell_length_a       3.846509170802407
_cell_length_b       12.651026452647844
_cell_length_c       13.074475183104129
_cell_angle_alpha    89.9997457266852
_cell_angle_beta     90.00039852574102
_cell_angle_gamma    89.48811645255286

_space_group_name_H-M_alt    "P 1"
_space_group_IT_number       1

loop_
  _space_group_symop_operation_xyz
  'x, y, z'

loop_
  _atom_site_type_symbol
  _atom_site_label
  _atom_site_symmetry_multiplicity
  _atom_site_fract_x
  _atom_site_fract_y
  _atom_site_fract_z
  _atom_site_occupancy
  Cu  Cu1       1.0  0.5544354400949772  0.6788125851459839  0.6593670394965799  1.0000
  Cu  Cu2       1.0  0.5544064407815981  0.178811685054562  0.8406381404739424  1.0000
  Cu  Cu3       1.0  0.4455886025091047  0.321188505523871  0.3406359949886666  1.0000
  Cu  Cu4       1.0  0.445581203639442  0.8211895092439081  0.159356480632816  1.0000
  H   H1        1.0  0.7916930553846199  0.38211320242729846  0.9187596236556462  1.0000
  H   H2        1.0  0.7917358760544391  0.8821215231435886  0.581249746633212  1.0000
  H   H3        1.0  0.20828157640848843  0.6178785435051637  0.08123958655261283  1.0000
  H   H4        1.0  0.20825437274578462  0.11788282552855384  0.41875022841270493  1.0000
  H   H5        1.0  0.3277456836351433  0.28845007065554285  0.6451965420678649  1.0000
  H   H6        1.0  0.32775835691364114  0.788450151789135  0.8548069050319501  1.0000
  H   H7        1.0  0.6722705614749243  0.7115526231353685  0.3547950196697088  1.0000
  H   H8        1.0  0.672270879848895  0.21154697184633872  0.14519612946762095  1.0000
  H   H9        1.0  0.3060243929505262  0.4757695811323757  0.5867578110770283  1.0000
  H   H10       1.0  0.3060176092439519  0.9757726206716769  0.9132485824900131  1.0000
  H   H11       1.0  0.6939736577107711  0.5242363262222868  0.41324598821898934  1.0000
  H   H12       1.0  0.6939674331477192  0.024227000122266404  0.08675139256087051  1.0000
  C   C1        1.0  0.6656966314222572  0.5075180895497908  0.8112543227710634  1.0000
  C   C2        1.0  0.6657057671757441  0.007527238874629902  0.688750324238008  1.0000
  C   C3        1.0  0.3343014025256181  0.4924759611076226  0.18874871170220336  1.0000
  C   C4        1.0  0.3342844860703025  0.9924802715856204  0.3112488859518407  1.0000
  C   C5        1.0  0.6820255433691145  0.4032720745575347  0.8446325843126704  1.0000
  C   C6        1.0  0.6820674639462327  0.9032824409525804  0.6553726349392196  1.0000
  C   C7        1.0  0.3179620888630978  0.5967204248163399  0.15536739075677272  1.0000
  C   C8        1.0  0.31793318651713776  0.0967234590134183  0.3446258104161829  1.0000
  C   C9        1.0  0.42733670731549006  0.3509803512423205  0.6938737974528097  1.0000
  C   C10       1.0  0.42735607391229286  0.8509861620259471  0.8061265240867997  1.0000
  C   C11       1.0  0.572676931293131  0.6490176072611081  0.3061215885377849  1.0000
  C   C12       1.0  0.5726679731201118  0.14901809043545464  0.19387421584426795  1.0000
  C   C13       1.0  0.41598629249332925  0.4550367135718503  0.661024817164105  1.0000
  C   C14       1.0  0.4159908105927101  0.9550416307121381  0.8389765479873221  1.0000
  C   C15       1.0  0.5840065472435755  0.5449613041302541  0.33897362820050614  1.0000
  C   C16       1.0  0.5839942351311435  0.04496036142332121  0.1610226622092483  1.0000
  Br  Br1       1.0  0.05489254147289561  0.6775710249850917  0.5367267900656502  1.0000
  Br  Br2       1.0  0.054879350454513094  0.17757111773119053  0.9632780996406325  1.0000
  Br  Br3       1.0  0.9451210994592858  0.3224285143926266  0.46327700926105575  1.0000
  Br  Br4       1.0  0.9451212921783424  0.8224292491155014  0.03671728633081981  1.0000
  N   N1        1.0  0.536921607867768  0.5354676055020705  0.7190485109352169  1.0000
  N   N2        1.0  0.5369302506068296  0.0354739765921366  0.7809526791795706  1.0000
  N   N3        1.0  0.46306863315444957  0.4645312100404552  0.2809529938210815  1.0000
  N   N4        1.0  0.4630573927355712  0.9645264272528636  0.21904500132517066  1.0000
  N   N5        1.0  0.5629373592744286  0.3237149067269345  0.7857293141487036  1.0000
  N   N6        1.0  0.562967621848941  0.8237203027924809  0.714269886664269  1.0000
  N   N7        1.0  0.4370606756733153  0.6762799343994249  0.2142637772850834  1.0000
  N   N8        1.0  0.43704082266248895  0.17628162273329198  0.2857308532553945  1.0000
  Cl  Cl1       1.0  0.8055526557603231  0.6072444955471211  0.8903526446820467  1.0000
  Cl  Cl2       1.0  0.80555217838333  0.10725165113251478  0.6096564456111937  1.0000
  Cl  Cl3       1.0  0.19444797922580656  0.39275033814417537  0.10965574373562963  1.0000
  Cl  Cl4       1.0  0.19443027201928945  0.8927535101728381  0.3903504130661375  1.0000
