data_image0
_chemical_formula_structural       Sn12H108C78O30
_chemical_formula_sum              "Sn12 H108 C78 O30"
_cell_length_a       9.357489834984674
_cell_length_b       18.889450411388353
_cell_length_c       18.890312944184398
_cell_angle_alpha    117.31761684511558
_cell_angle_beta     99.51170376727575
_cell_angle_gamma    99.50775589830127

_space_group_name_H-M_alt    "P 1"
_space_group_IT_number       1

loop_
  _space_group_symop_operation_xyz
  'x, y, z'

loop_
  _atom_site_type_symbol
  _atom_site_label
  _atom_site_symmetry_multiplicity
  _atom_site_fract_x
  _atom_site_fract_y
  _atom_site_fract_z
  _atom_site_occupancy
  Sn  Sn1       1.0  0.3273700671668038  0.9368149927015282  0.44126855055040437  1.0000
  Sn  Sn2       1.0  0.23795893366482804  0.6687170312449736  0.6670632784860115  1.0000
  Sn  Sn3       1.0  0.3904022241457455  0.5044178001847045  0.06313430141352683  1.0000
  Sn  Sn4       1.0  0.5692895875416897  0.9984288839970293  0.3311981324848716  1.0000
  Sn  Sn5       1.0  0.8861131807896072  0.558785848228396  0.4954523413070716  1.0000
  Sn  Sn6       1.0  0.5706855401175446  0.3328406881932223  0.001655534304560981  1.0000
  Sn  Sn7       1.0  0.6726267493036532  0.06318547471386181  0.5587310414338305  1.0000
  Sn  Sn8       1.0  0.7620487164629708  0.3312790980031651  0.33293785550719684  1.0000
  Sn  Sn9       1.0  0.6095997003280048  0.49558204758451313  0.936865953450855  1.0000
  Sn  Sn10      1.0  0.4307107895914228  0.0015722032698449002  0.6688020353433117  1.0000
  Sn  Sn11      1.0  0.11388626659774564  0.4412133797226829  0.5045474263853506  1.0000
  Sn  Sn12      1.0  0.42931468080040275  0.6671579201626232  0.9983429535353849  1.0000
  H   H1        1.0  0.09783148579022348  0.9194587703882462  0.6984193103903564  1.0000
  H   H2        1.0  0.9627782105096757  0.859831059769512  0.7189788037169648  1.0000
  H   H3        1.0  0.7338541850693262  0.7794222070438938  0.6277809200312134  1.0000
  H   H4        1.0  0.5444175529662588  0.7234079636587938  0.49457742455252424  1.0000
  H   H5        1.0  0.6191827847595874  0.7342501566112247  0.37763577613676336  1.0000
  H   H6        1.0  0.8862546647628663  0.8080032665969696  0.4017993074815748  1.0000
  H   H7        1.0  0.46259404266543674  0.6461041573095799  0.5934689587156184  1.0000
  H   H8        1.0  0.524017713885172  0.7466605468963081  0.6862099411391325  1.0000
  H   H9        1.0  0.39838050950678655  0.7316724599633275  0.5951659006049823  1.0000
  H   H10       1.0  0.06715403185998536  0.7231638747216493  0.7713057812297348  1.0000
  H   H11       1.0  0.24025274763361187  0.7175061322980127  0.8244441668396901  1.0000
  H   H12       1.0  0.08924735145652833  0.6247698172244897  0.7561363657173812  1.0000
  H   H13       1.0  0.4229582018769237  0.8046998396885741  0.35342613263449607  1.0000
  H   H14       1.0  0.38588802252567694  0.8039335838822198  0.4438619614385289  1.0000
  H   H15       1.0  0.23305575776519316  0.7695800439372533  0.3537646790724266  1.0000
  H   H16       1.0  0.10584789676080672  0.009133807682289299  0.43560598858004335  1.0000
  H   H17       1.0  0.27178195687177725  0.06722955494215202  0.4299225916721595  1.0000
  H   H18       1.0  0.15700498659547446  0.9729806977475592  0.33963189392871135  1.0000
  H   H19       1.0  0.17858097239284382  0.7789886281011674  0.08045023036936531  1.0000
  H   H20       1.0  0.10305329117252175  0.8591229994658249  0.14009786647054762  1.0000
  H   H21       1.0  0.9548224569037345  0.8483390817730341  0.22058999386288752  1.0000
  H   H22       1.0  0.8214161582145183  0.7710350885715017  0.27649722757523415  1.0000
  H   H23       1.0  0.8850805703137397  0.6431458970072512  0.2654588158968706  1.0000
  H   H24       1.0  0.07839573056969586  0.5936236513594011  0.1916781004422674  1.0000
  H   H25       1.0  0.8163833830817924  0.9473184118689775  0.3538174460163644  1.0000
  H   H26       1.0  0.7772884617138517  0.93951624740825  0.2532502901554637  1.0000
  H   H27       1.0  0.666490828378727  0.8635008435708259  0.26827871588396585  1.0000
  H   H28       1.0  0.344026917159951  0.04822624494900651  0.27680585741837394  1.0000
  H   H29       1.0  0.5227255624389997  0.10704942768338553  0.28244392973881816  1.0000
  H   H30       1.0  0.4644967330204964  0.1314411950323731  0.3751924255482563  1.0000
  H   H31       1.0  0.6183022794818883  0.5487298966212676  0.1951833245610216  1.0000
  H   H32       1.0  0.5820100451873885  0.6399468194791356  0.19596140588473077  1.0000
  H   H33       1.0  0.4636935551179777  0.5842624333930716  0.23042172463495092  1.0000
  H   H34       1.0  0.09656830052809083  0.42654007587982795  0.9909260808666146  1.0000
  H   H35       1.0  0.20424644300953082  0.3626635208083897  0.9327849740626559  1.0000
  H   H36       1.0  0.1838430093876582  0.3666606330067522  0.027064286806513713  1.0000
  H   H37       1.0  0.39941858080520387  0.3015512076243355  0.2211309698998676  1.0000
  H   H38       1.0  0.24383722400706637  0.28100685324090346  0.14092909251920102  1.0000
  H   H39       1.0  0.10606725174952915  0.37227802476528643  0.1517296941946356  1.0000
  H   H40       1.0  0.04999268031058082  0.5055016734760258  0.22900917590165185  1.0000
  H   H41       1.0  0.24175160250307937  0.6223642803820865  0.3568157929392795  1.0000
  H   H42       1.0  0.48461705982491327  0.5981134215312096  0.4063271029369844  1.0000
  H   H43       1.0  0.8689789779439537  0.4064512578124564  0.05260207590898602  1.0000
  H   H44       1.0  0.837668387241074  0.3136985314221832  0.06041876580997035  1.0000
  H   H45       1.0  0.8030723615576606  0.40473139240446443  0.13644312187758356  1.0000
  H   H46       1.0  0.29563657812990846  0.22852339616795797  0.9517170508750677  1.0000
  H   H47       1.0  0.4157566496720548  0.1754792161810457  0.8929938988503634  1.0000
  H   H48       1.0  0.3330578278178251  0.24380208921564872  0.8685741967044718  1.0000
  H   H49       1.0  0.07008514606236824  0.6465145266731797  0.45127887358410834  1.0000
  H   H50       1.0  0.9425271948481894  0.5560656759453195  0.36000335701063335  1.0000
  H   H51       1.0  0.8799338530141015  0.6462196931273284  0.41566053808448084  1.0000
  H   H52       1.0  0.6702377698127793  0.5644018638385547  0.5733829048323997  1.0000
  H   H53       1.0  0.8417945956785928  0.5701305624801378  0.6372170406910626  1.0000
  H   H54       1.0  0.8173001985074037  0.6604132689096358  0.6332664609237495  1.0000
  H   H55       1.0  0.9021682715310108  0.0805410773142796  0.30158076713006204  1.0000
  H   H56       1.0  0.03722371401996581  0.1401687879382649  0.28102198049565164  1.0000
  H   H57       1.0  0.26614526237391095  0.2205770208457453  0.37221937700943636  1.0000
  H   H58       1.0  0.45558174064648693  0.2765931235132939  0.5054231839519048  1.0000
  H   H59       1.0  0.3808155790515073  0.2657490713065087  0.6223639028836772  1.0000
  H   H60       1.0  0.11374586625663602  0.1919959613260147  0.5982010782310565  1.0000
  H   H61       1.0  0.537406798176164  0.3538956904877324  0.40653067812854715  1.0000
  H   H62       1.0  0.47598421053268686  0.2533393009343428  0.3137897843770219  1.0000
  H   H63       1.0  0.6016195577483359  0.26832800749065205  0.40483448674343947  1.0000
  H   H64       1.0  0.9328464991036257  0.2768353532627757  0.22869407513466913  1.0000
  H   H65       1.0  0.7597470097435064  0.2824937153430796  0.1755564400289558  1.0000
  H   H66       1.0  0.9107531795070756  0.3752294107599354  0.24386349064702262  1.0000
  H   H67       1.0  0.5770400081036797  0.19530124751161543  0.6465738578497165  1.0000
  H   H68       1.0  0.6141101873990351  0.19606750337940326  0.5561374996974563  1.0000
  H   H69       1.0  0.7669432259136714  0.23042042348338754  0.6462356196040062  1.0000
  H   H70       1.0  0.8941486097757692  0.9908660399816469  0.5643932935761881  1.0000
  H   H71       1.0  0.728215943174945  0.9327709125065837  0.5700770889840568  1.0000
  H   H72       1.0  0.8429926035173593  0.027019149949730103  0.660367476899509  1.0000
  H   H73       1.0  0.8214187849283904  0.22101121960135828  0.9195498471510531  1.0000
  H   H74       1.0  0.8969447626488078  0.1408756087618954  0.8599009733736621  1.0000
  H   H75       1.0  0.04517513309732382  0.1516607660471294  0.7794083182688709  1.0000
  H   H76       1.0  0.1785825155304579  0.22896475909768552  0.7235027612731955  1.0000
  H   H77       1.0  0.11491980681937261  0.35685519025962265  0.7345413519313126  1.0000
  H   H78       1.0  0.9216060402412226  0.4063780555079504  0.8083240539305834  1.0000
  H   H79       1.0  0.18361420708693288  0.0526814357668641  0.6461824541600903  1.0000
  H   H80       1.0  0.22271021203113156  0.0604836002609375  0.7467496986929729  1.0000
  H   H81       1.0  0.3335089289983983  0.1364990040702665  0.7317218909846799  1.0000
  H   H82       1.0  0.655972840161283  0.9517736027535193  0.7231942201020445  1.0000
  H   H83       1.0  0.47727342129574885  0.8929510396758146  0.7175568982858421  1.0000
  H   H84       1.0  0.5355033342905103  0.8685592723601732  0.6248084911483857  1.0000
  H   H85       1.0  0.3816963941513124  0.4512699511708008  0.8048156055909529  1.0000
  H   H86       1.0  0.41799033194572394  0.3600542677877385  0.8040387619434454  1.0000
  H   H87       1.0  0.5363075956575045  0.41573803415569444  0.7695782220372178  1.0000
  H   H88       1.0  0.9034303731051097  0.5734597719122405  0.009072849285359957  1.0000
  H   H89       1.0  0.7957547078218496  0.6373369466789358  0.06721550195774742  1.0000
  H   H90       1.0  0.8161587613114847  0.6333410739834733  0.972936808869882  1.0000
  H   H91       1.0  0.6005830336787669  0.6984480204548619  0.7788684457882907  1.0000
  H   H92       1.0  0.756163306788878  0.7189923749278366  0.8590691758005136  1.0000
  H   H93       1.0  0.8939329692243093  0.6277205835291256  0.8482693229935377  1.0000
  H   H94       1.0  0.9500078506530302  0.49449755450839217  0.7709906804627522  1.0000
  H   H95       1.0  0.7582486185266433  0.3776343278508847  0.6431837535971282  1.0000
  H   H96       1.0  0.5153837810166879  0.4018864262661026  0.5936725339071883  1.0000
  H   H97       1.0  0.1310227927551892  0.5935504491777691  0.9473990197674097  1.0000
  H   H98       1.0  0.1623295127497571  0.6863019360879933  0.9395803854980115  1.0000
  H   H99       1.0  0.19692693194330252  0.5952696948905043  0.8635564279303903  1.0000
  H   H100      1.0  0.704363799003204  0.7714776910989087  0.04828311695311526  1.0000
  H   H101      1.0  0.584246204547455  0.8245224909039663  0.10700675614978652  1.0000
  H   H102      1.0  0.6669408458153754  0.7561977585764197  0.13142473344749556  1.0000
  H   H103      1.0  0.9299146112029746  0.3534853210907869  0.5487206745880824  1.0000
  H   H104      1.0  0.05747364604930282  0.4439341717905521  0.6399968091817668  1.0000
  H   H105      1.0  0.12006590430713267  0.3537801545752046  0.5843395394359375  1.0000
  H   H106      1.0  0.3297638446711987  0.43559736424064255  0.42661651085575863  1.0000
  H   H107      1.0  0.15820732879515736  0.4298692852890725  0.36278321417332643  1.0000
  H   H108      1.0  0.18270172596634646  0.33958657885957416  0.3667337939406393  1.0000
  C   C1        1.0  0.13170857731248736  0.8034686222576539  0.6771801775598191  1.0000
  C   C2        1.0  0.027208606952221773  0.8565887694384886  0.6741913175640306  1.0000
  C   C3        1.0  0.9188097652127923  0.8233642180257802  0.590769058506936  1.0000
  C   C4        1.0  0.7681380715089716  0.7841639071710206  0.577304393416135  1.0000
  C   C5        1.0  0.6607482312266129  0.7524767586971918  0.5019413564525975  1.0000
  C   C6        1.0  0.7020246811207969  0.7593152480929605  0.43709070729065036  1.0000
  C   C7        1.0  0.8503459045622179  0.7994644167426443  0.4498917776644332  1.0000
  C   C8        1.0  0.9594361837260411  0.8311435580688808  0.5254146179136043  1.0000
  C   C9        1.0  0.11482152357016434  0.8749608265834042  0.5331260245565161  1.0000
  C   C10       1.0  0.4311409975507133  0.7023114771887365  0.6312061543527603  1.0000
  C   C11       1.0  0.14667552005705897  0.686028704003121  0.7678567276734893  1.0000
  C   C12       1.0  0.34425674830434616  0.8127610925731757  0.39157308990071005  1.0000
  C   C13       1.0  0.19912024874218304  0.005237519012411  0.40719332782130374  1.0000
  C   C14       1.0  0.32836676447348634  0.8737732924382585  0.1964510355978319  1.0000
  C   C15       1.0  0.17080946255183005  0.8175991948000957  0.14331217283891823  1.0000
  C   C16       1.0  0.09576551167252492  0.767393642881295  0.17656164937299929  1.0000
  C   C17       1.0  0.9843422032123075  0.7930978083788816  0.2157934014636567  1.0000
  C   C18       1.0  0.9086084359946653  0.7493232066584241  0.24737774446531083  1.0000
  C   C19       1.0  0.9428715809643933  0.6775647531431019  0.24042209157867223  1.0000
  C   C20       1.0  0.05106280561616231  0.650281376331222  0.2002825507248859  1.0000
  C   C21       1.0  0.12852417135852084  0.6942215271245048  0.1687016791853253  1.0000
  C   C22       1.0  0.24005776878854582  0.6581459464634347  0.12490150415086271  1.0000
  C   C23       1.0  0.7287212650910605  0.9288800038545588  0.29760006833590313  1.0000
  C   C24       1.0  0.4606920032530228  0.08193061373740561  0.3139369425035454  1.0000
  C   C25       1.0  0.5315587336250263  0.5788471559362451  0.18716920451824143  1.0000
  C   C26       1.0  0.19365852463247532  0.40194776997859083  0.9947807775003666  1.0000
  C   C27       1.0  0.45453590730425475  0.3227489529991274  0.12637070115119536  1.0000
  C   C28       1.0  0.35304534529440457  0.32579632087426813  0.1824979540709109  1.0000
  C   C29       1.0  0.32804409923525685  0.40920747864746704  0.232663737414704  1.0000
  C   C30       1.0  0.19085729188849146  0.42272470894234704  0.20695276803137827  1.0000
  C   C31       1.0  0.1589162018224998  0.49809661087245166  0.2507082503561334  1.0000
  C   C32       1.0  0.2650654666292098  0.5628931313595444  0.3224073061985137  1.0000
  C   C33       1.0  0.4005621048041376  0.5500518250971067  0.3496893713469189  1.0000
  C   C34       1.0  0.43407164262526987  0.4745207183398251  0.30581180165727057  1.0000
  C   C35       1.0  0.5818196540839652  0.4668335582004772  0.3418415177858947  1.0000
  C   C36       1.0  0.7997561291095536  0.36868344267762865  0.0710472285991344  1.0000
  C   C37       1.0  0.3786821364129054  0.2320329914019297  0.918091579694682  1.0000
  C   C38       1.0  0.9532261917188763  0.6083841358211545  0.4210821407125778  1.0000
  C   C39       1.0  0.791927266494035  0.5928596413972755  0.5979304847225606  1.0000
  C   C40       1.0  0.8682927273493846  0.1965299859472154  0.32281998699679787  1.0000
  C   C41       1.0  0.9727926977096504  0.1434098387663809  0.32580884699258655  1.0000
  C   C42       1.0  0.08118859871007798  0.17663500976907187  0.4092316792099665  1.0000
  C   C43       1.0  0.23186060229189562  0.21583594043672596  0.4226961247805291  1.0000
  C   C44       1.0  0.3392515262063966  0.24752308888245986  0.498059779764283  1.0000
  C   C45       1.0  0.2979747663783314  0.2406839797352376  0.562910119098234  1.0000
  C   C46       1.0  0.14965307917253065  0.2005360506165559  0.5501090503602271  1.0000
  C   C47       1.0  0.04056249013071781  0.16885628947742504  0.4745864296312874  1.0000
  C   C48       1.0  0.8851785437967337  0.12503964074769414  0.4668754214883605  1.0000
  C   C49       1.0  0.5688609267553701  0.29768837076479576  0.3687925124669319  1.0000
  C   C50       1.0  0.8533250108506606  0.31397052404273745  0.23214259934267983  1.0000
  C   C51       1.0  0.6557414616762501  0.18723999462701355  0.6084269005835026  1.0000
  C   C52       1.0  0.8008757940859041  0.9947635681210942  0.5928064853189454  1.0000
  C   C53       1.0  0.6716336126037349  0.126227794890049  0.8035486028821238  1.0000
  C   C54       1.0  0.8291902947135128  0.18240065296387806  0.8566873753332657  1.0000
  C   C55       1.0  0.9042334720063323  0.23260682453933876  0.8234386493034336  1.0000
  C   C56       1.0  0.015655387012302013  0.2069020391955263  0.7842070280610257  1.0000
  C   C57       1.0  0.09138915400638581  0.2506766411617392  0.7526205676664475  1.0000
  C   C58       1.0  0.05712492551629818  0.3224350945822819  0.7595766612293317  1.0000
  C   C59       1.0  0.9489375715728414  0.34971971087421144  0.7997181464515248  1.0000
  C   C60       1.0  0.8714772894626251  0.3057795600528337  0.8312996360113017  1.0000
  C   C61       1.0  0.7599422984665696  0.3418545209905446  0.8750988831975518  1.0000
  C   C62       1.0  0.2712763250776646  0.0711198437812826  0.7023998318405447  1.0000
  C   C63       1.0  0.539305896905475  0.9180698535884559  0.6860637968491332  1.0000
  C   C64       1.0  0.4684416435080864  0.4211539313306219  0.812830963309942  1.0000
  C   C65       1.0  0.8063418525565285  0.5980533172268425  0.005219919676044266  1.0000
  C   C66       1.0  0.5454658635625478  0.6772527538067833  0.8736319825698968  1.0000
  C   C67       1.0  0.6469544119150543  0.674203526951139  0.8175010647530454  1.0000
  C   C68       1.0  0.6719575152487209  0.5907917494317375  0.7673356782734543  1.0000
  C   C69       1.0  0.8091429291412312  0.5772738992906242  0.7930467785050225  1.0000
  C   C70       1.0  0.8410857226512435  0.5019032368967588  0.7492920045082555  1.0000
  C   C71       1.0  0.7349350642785099  0.43710609668631417  0.6775920208176557  1.0000
  C   C72       1.0  0.5994398196137212  0.44994802273354395  0.6503103541692352  1.0000
  C   C73       1.0  0.5659291982163311  0.5254791294574802  0.6941878351869022  1.0000
  C   C74       1.0  0.41818056694575745  0.5331650500324869  0.6581580287505132  1.0000
  C   C75       1.0  0.20024208081515843  0.6313176445839943  0.9289522325368507  1.0000
  C   C76       1.0  0.621317157143949  0.7679680958316056  0.08190849946151961  1.0000
  C   C77       1.0  0.04677464912272455  0.39161571197615064  0.5789174961315949  1.0000
  C   C78       1.0  0.20807357445934124  0.40714020627715547  0.4020702108180743  1.0000
  O   O1        1.0  0.08608089149404932  0.7251648503350127  0.6200749844607002  1.0000
  O   O2        1.0  0.24965154826088554  0.832661810817555  0.7347217069956355  1.0000
  O   O3        1.0  0.22632696171105962  0.8824886666562364  0.5873671900441834  1.0000
  O   O4        1.0  0.12530139053622252  0.9034103020614879  0.48382436548066476  1.0000
  O   O5        1.0  0.4567469280645326  0.0037881647790599  0.5634096559887637  1.0000
  O   O6        1.0  0.36090197194246804  0.8950033400895662  0.2747666538864592  1.0000
  O   O7        1.0  0.41718814689870265  0.9021752386142341  0.1673232544516026  1.0000
  O   O8        1.0  0.34415453945148045  0.7048969023211525  0.11749698991849293  1.0000
  O   O9        1.0  0.22187608293022282  0.5803655378619227  0.09632246205831764  1.0000
  O   O10       1.0  0.45287588608761103  0.5594862545219286  0.9960608181328536  1.0000
  O   O11       1.0  0.46597595168511685  0.3798399678924441  0.1051304170684446  1.0000
  O   O12       1.0  0.5148748380384093  0.2651943178510692  0.09800514246040136  1.0000
  O   O13       1.0  0.6390822365447307  0.4126326709676463  0.29513400918737887  1.0000
  O   O14       1.0  0.6417048101564475  0.5161858229937052  0.41957338170706737  1.0000
  O   O15       1.0  0.8932877958874456  0.436642306833896  0.44055757623775804  1.0000
  O   O16       1.0  0.9139204130560402  0.2748337579927309  0.3799241213994619  1.0000
  O   O17       1.0  0.7503478991823584  0.16733741707207636  0.2652785900450141  1.0000
  O   O18       1.0  0.7736714021000353  0.11751056126149712  0.41263248897624993  1.0000
  O   O19       1.0  0.8746972832087536  0.09658954560769928  0.516175623367765  1.0000
  O   O20       1.0  0.5432517456245592  0.9962116829515608  0.4365898035114382  1.0000
  O   O21       1.0  0.6390988688991329  0.10499650770774592  0.7252329829577135  1.0000
  O   O22       1.0  0.5828142434446447  0.0978277081246475  0.8326763434878612  1.0000
  O   O23       1.0  0.655845837681632  0.2951041849457214  0.8825031779096904  1.0000
  O   O24       1.0  0.7781207335961328  0.41963492949203385  0.9036776592741446  1.0000
  O   O25       1.0  0.5471246448760001  0.44051297346248935  0.0039390382315502934  1.0000
  O   O26       1.0  0.5340244256156623  0.6201611191901151  0.894871338804428  1.0000
  O   O27       1.0  0.4851252292725975  0.7348061495414697  0.9019957742362406  1.0000
  O   O28       1.0  0.3609182944747644  0.587366556955331  0.7048663765252597  1.0000
  O   O29       1.0  0.3582952570427835  0.4838146445217149  0.5804264762931195  1.0000
  O   O30       1.0  0.1067135088303175  0.5633563013095325  0.5594431176670938  1.0000
