data_image0
_chemical_formula_structural       Cd2H24C36S2I2N14
_chemical_formula_sum              "Cd2 H24 C36 S2 I2 N14"
_cell_length_a       8.172001168441312
_cell_length_b       8.83941016055936
_cell_length_c       13.865436451391728
_cell_angle_alpha    91.02891022384351
_cell_angle_beta     90.11482667686168
_cell_angle_gamma    109.56563804820529

_space_group_name_H-M_alt    "P 1"
_space_group_IT_number       1

loop_
  _space_group_symop_operation_xyz
  'x, y, z'

loop_
  _atom_site_type_symbol
  _atom_site_label
  _atom_site_symmetry_multiplicity
  _atom_site_fract_x
  _atom_site_fract_y
  _atom_site_fract_z
  _atom_site_occupancy
  Cd  Cd1       1.0  0.7148488726419655  0.6993053868310568  0.5228039402257778  1.0000
  Cd  Cd2       1.0  0.28514390290099095  0.3006912050088246  0.4771966035305084  1.0000
  H   H1        1.0  0.9281438651054613  0.8295603401304062  0.7160727439667767  1.0000
  H   H2        1.0  0.07185631840966519  0.17043990233830192  0.283928581398456  1.0000
  H   H3        1.0  0.6918341982889796  0.3590354833941022  0.6241617435992167  1.0000
  H   H4        1.0  0.3081692953655448  0.6409671838643547  0.3758381757119196  1.0000
  H   H5        1.0  0.8007031411521619  0.2521980131824648  0.7687275452978071  1.0000
  H   H6        1.0  0.19929992762737211  0.74780345326068  0.2312723588039063  1.0000
  H   H7        1.0  0.9787693001531749  0.4487755827588273  0.8933206857480798  1.0000
  H   H8        1.0  0.021234571008349776  0.5512246928294078  0.10667920610156048  1.0000
  H   H9        1.0  0.6716612834761404  0.40912700696006243  0.9351727384942308  1.0000
  H   H10       1.0  0.3283408911231334  0.5908684669860593  0.0648263713238464  1.0000
  H   H11       1.0  0.6976683006948218  0.5009284930065904  0.1069270954029875  1.0000
  H   H12       1.0  0.3023347710224299  0.4990729750557037  0.8930720875048833  1.0000
  H   H13       1.0  0.48342531497748087  0.3343030488794341  0.2266276710564412  1.0000
  H   H14       1.0  0.5165741223368271  0.6657019817871798  0.7733715456502708  1.0000
  H   H15       1.0  0.2542990865553491  0.08038065593803621  0.1663790326684662  1.0000
  H   H16       1.0  0.7457015692027723  0.9196243798315321  0.833622350577123  1.0000
  H   H17       1.0  0.3539168744442094  0.8616525879957564  0.7375500393535502  1.0000
  H   H18       1.0  0.6460849612028878  0.13834886524868034  0.2624513041784766  1.0000
  H   H19       1.0  0.4100607393691077  0.018372517525399708  0.5859898209342802  1.0000
  H   H20       1.0  0.5899369481395026  0.9816241157752614  0.414010013457613  1.0000
  H   H21       1.0  0.16860014839473783  0.33032519447704084  0.6920443332482549  1.0000
  H   H22       1.0  0.8313930637741079  0.6696726046547636  0.307953340942106  1.0000
  H   H23       1.0  0.09288175891459356  0.18030941502301803  0.8469730442770356  1.0000
  H   H24       1.0  0.9071164008370117  0.8196920115785035  0.1530268479952213  1.0000
  C   C1        1.0  0.9051514797515025  0.7033788307513406  0.7311076433127681  1.0000
  C   C2        1.0  0.09485035589560198  0.2966226224930963  0.26889370021925174  1.0000
  C   C3        1.0  0.7711802000835348  0.43952514088530853  0.6797625397869352  1.0000
  C   C4        1.0  0.22882286575827493  0.5604763239386799  0.32023808550860616  1.0000
  C   C5        1.0  0.8324901858914796  0.38105262871585677  0.7597668477420072  1.0000
  C   C6        1.0  0.1675112336938014  0.6189476285707158  0.2402323169990694  1.0000
  C   C7        1.0  0.9318729069570322  0.4899046986005118  0.8284687306685753  1.0000
  C   C8        1.0  0.06812850675279951  0.510095555447755  0.171531876460179  1.0000
  C   C9        1.0  0.9682907607729304  0.6552197539015268  0.8150117921816146  1.0000
  C   C10       1.0  0.03171108074961641  0.3447817025812085  0.1849881089627345  1.0000
  C   C11       1.0  0.054771449946365194  0.7648969999972194  0.8939335721183213  1.0000
  C   C12       1.0  0.945231621770887  0.2351044680650674  0.1060656107895497  1.0000
  C   C13       1.0  0.2138809298340618  0.9681232833146183  0.9843123375150995  1.0000
  C   C14       1.0  0.7861200590007725  0.0318757699183365  0.0156882544042247  1.0000
  C   C15       1.0  0.34407329299252604  0.11735251897748361  0.0191761300602167  1.0000
  C   C16       1.0  0.6559293509120107  0.882647746650342  0.9808237588320594  1.0000
  C   C17       1.0  0.5807042829487016  0.33929336096618806  0.9883468903028073  1.0000
  C   C18       1.0  0.4192970863308574  0.6607033022156871  0.011652952961178204  1.0000
  C   C19       1.0  0.595590772637287  0.39037441765981384  0.08485524483021578  1.0000
  C   C20       1.0  0.40441229907996495  0.6096270504024803  0.9151439380776552  1.0000
  C   C21       1.0  0.47618429909019966  0.2979300647999068  0.1506076985026823  1.0000
  C   C22       1.0  0.523816740050364  0.7020725825377384  0.849392214893733  1.0000
  C   C23       1.0  0.3484602950977233  0.15830089030620093  0.1176801330186663  1.0000
  C   C24       1.0  0.6515407381673908  0.8417017537931387  0.8823212227654267  1.0000
  C   C25       1.0  0.22207544782046537  0.0122711470652277  0.8038787958146472  1.0000
  C   C26       1.0  0.7779268156393612  0.9877315086136705  0.1961218417329675  1.0000
  C   C27       1.0  0.31173892702636163  0.9653614030703751  0.7305904852120619  1.0000
  C   C28       1.0  0.688260035107234  0.03463883267623661  0.2694093948081289  1.0000
  C   C29       1.0  0.3432474982368204  0.0531176011032102  0.6459112311590688  1.0000
  C   C30       1.0  0.6567485786323672  0.946881410668972  0.3540900701246414  1.0000
  C   C31       1.0  0.2082130792239809  0.22626859865921034  0.7055266418517263  1.0000
  C   C32       1.0  0.7917858858473394  0.7737316387065505  0.2944725169746292  1.0000
  C   C33       1.0  0.1683874440918203  0.14501641479235872  0.7916774541163036  1.0000
  C   C34       1.0  0.8316152383675472  0.8549874384635602  0.208324641028419  1.0000
  C   C35       1.0  0.8852569384422535  0.10651217414898181  0.5549760851393586  1.0000
  C   C36       1.0  0.11473126702494343  0.8934783985509682  0.4450222130735284  1.0000
  S   S1        1.0  0.7373563561703302  0.9817096772497463  0.6210154689922192  1.0000
  S   S2        1.0  0.2626380505761218  0.0182845474526729  0.3789785595153887  1.0000
  I   I1        1.0  0.6541306025754706  0.3878152100356191  0.4212024165376249  1.0000
  I   I2        1.0  0.3458625890293092  0.6121825777621339  0.5788003060096045  1.0000
  N   N1        1.0  0.8075505685502405  0.5974814901553673  0.6659031374073692  1.0000
  N   N2        1.0  0.19245127003458146  0.4025199647082189  0.3340974849308154  1.0000
  N   N3        1.0  0.025012662316896743  0.7253436654840613  0.9858968905133877  1.0000
  N   N4        1.0  0.9749887484552101  0.2746565869450562  0.014104437809201903  1.0000
  N   N5        1.0  0.12464441246014962  0.8512066257446804  0.041877219346922304  1.0000
  N   N6        1.0  0.875357001249682  0.1487936283035864  0.9581233877818321  1.0000
  N   N7        1.0  0.17293804002824945  0.9192826465845203  0.8891851497953454  1.0000
  N   N8        1.0  0.8270654506885576  0.08072001905478031  0.11081549070963351  1.0000
  N   N9        1.0  0.45823162105363463  0.20595920721122948  0.9550776488016908  1.0000
  N   N10       1.0  0.5417705921004625  0.7940398543629783  0.04492366726883291  1.0000
  N   N11       1.0  0.29336603563073277  0.18142920855523673  0.633472882284515  1.0000
  N   N12       1.0  0.7066296251766316  0.8185686072590812  0.366526240208252  1.0000
  N   N13       1.0  0.9894354496380655  0.1973340172992053  0.5058668591559083  1.0000
  N   N14       1.0  0.010564763254308232  0.8026662413610096  0.49412725427093557  1.0000
