data_image0
_chemical_formula_structural       Zn16H112C128S16N16O64
_chemical_formula_sum              "Zn16 H112 C128 S16 N16 O64"
_cell_length_a       18.222183412002785
_cell_length_b       20.996137097000958
_cell_length_c       21.126733364002295
_cell_angle_alpha    90.00000491305259
_cell_angle_beta     89.99994655745543
_cell_angle_gamma    89.99996604388967

_space_group_name_H-M_alt    "P 1"
_space_group_IT_number       1

loop_
  _space_group_symop_operation_xyz
  'x, y, z'

loop_
  _atom_site_type_symbol
  _atom_site_label
  _atom_site_symmetry_multiplicity
  _atom_site_fract_x
  _atom_site_fract_y
  _atom_site_fract_z
  _atom_site_occupancy
  Zn  Zn1       1.0  0.1606166965188578  0.47680385701887923  0.010469628880485997  1.0000
  Zn  Zn2       1.0  0.6606162323049105  0.023196046045434602  0.9895303746370059  1.0000
  Zn  Zn3       1.0  0.3393840861447686  0.976804377557599  0.48953038802892473  1.0000
  Zn  Zn4       1.0  0.8393835888008212  0.5231965252404505  0.5104695135972435  1.0000
  Zn  Zn5       1.0  0.8393838797568094  0.523196069634146  0.9895303236912124  1.0000
  Zn  Zn6       1.0  0.3393837951889367  0.9768043568858147  0.010469577934941297  1.0000
  Zn  Zn7       1.0  0.6606164901307352  0.0231960253735153  0.5104695645427952  1.0000
  Zn  Zn8       1.0  0.16061643869319647  0.4768034014127095  0.48953043897467546  1.0000
  Zn  Zn9       1.0  0.3113763593481593  0.5058653970891809  0.9883718148461537  1.0000
  Zn  Zn10      1.0  0.8113760743439542  0.9941336148670316  0.011628109417514996  1.0000
  Zn  Zn11      1.0  0.18862366094759145  0.005865338658154  0.5116280027099975  1.0000
  Zn  Zn12      1.0  0.6886234115672564  0.4941345501359108  0.4883715048364151  1.0000
  Zn  Zn13      1.0  0.6886236681456025  0.4941345295640076  0.011628611059712999  1.0000
  Zn  Zn14      1.0  0.1886239531503904  0.0058653592299578  0.9883718431543682  1.0000
  Zn  Zn15      1.0  0.8113763665465896  0.9941341117169243  0.4883719498619071  1.0000
  Zn  Zn16      1.0  0.31137661592700994  0.5058653765172351  0.5116279744015627  1.0000
  H   H1        1.0  0.057215266744513785  0.4058022525046  0.037419882340408585  1.0000
  H   H2        1.0  0.5572153313817197  0.0941981795229836  0.9625797314187138  1.0000
  H   H3        1.0  0.4427844672954961  0.9058022417542944  0.46257965518611843  1.0000
  H   H4        1.0  0.9427849895662207  0.5941981320806063  0.5374201628647056  1.0000
  H   H5        1.0  0.9427847607495892  0.594198150426635  0.9625795968975904  1.0000
  H   H6        1.0  0.4427846961121275  0.9058022234082659  0.0374202211532335  1.0000
  H   H7        1.0  0.5572155601985145  0.09419768489887298  0.5374202973858003  1.0000
  H   H8        1.0  0.05721503792779001  0.4058017945725608  0.4625797897072203  1.0000
  H   H9        1.0  0.43145855283546547  0.5666441650704996  0.9745111310615113  1.0000
  H   H10       1.0  0.9314582948045143  0.9333552619792514  0.025489169477872088  1.0000
  H   H11       1.0  0.06854197434851979  0.0666446452982115  0.5254891650067606  1.0000
  H   H12       1.0  0.5685417817814268  0.433355780958209  0.4745099662635396  1.0000
  H   H13       1.0  0.5685414746580335  0.43335576158271044  0.025489768178296394  1.0000
  H   H14       1.0  0.06854173268949641  0.0666446646739089  0.974510783094054  1.0000
  H   H15       1.0  0.9314580531454908  0.9333552813549557  0.4745107875651654  1.0000
  H   H16       1.0  0.4314582457130953  0.5666441456949156  0.5254890396404973  1.0000
  H   H17       1.0  0.4100709607682944  0.3118777839943263  0.9974867584315558  1.0000
  H   H18       1.0  0.910070896500123  0.18812199196737103  0.0025130434606097994  1.0000
  H   H19       1.0  0.0899293973837842  0.8118783896053047  0.5025130851967814  1.0000
  H   H20       1.0  0.5899288003358265  0.6881216877393327  0.4974870180549046  1.0000
  H   H21       1.0  0.5899285179443935  0.688121190102805  0.002513194140547599  1.0000
  H   H22       1.0  0.089929130993724  0.8118784109638849  0.9974869091113303  1.0000
  H   H23       1.0  0.9100711788917266  0.18812201332580963  0.49748686737494535  1.0000
  H   H24       1.0  0.4100717759398406  0.31187823891369243  0.502512934516801  1.0000
  H   H25       1.0  0.41818529069186644  0.1852387726225828  0.9961775080718946  1.0000
  H   H26       1.0  0.9181856865069875  0.31476147548269034  0.0038232339294595  1.0000
  H   H27       1.0  0.0818146059669047  0.6852389062030326  0.5038227981008916  1.0000
  H   H28       1.0  0.5818144718218433  0.8147611752761391  0.49617683837556825  1.0000
  H   H29       1.0  0.581814188020239  0.8147611540307482  0.0038229178341921987  1.0000
  H   H30       1.0  0.0818148897685163  0.6852389274484169  0.9961767186422604  1.0000
  H   H31       1.0  0.9181859703085993  0.31476149672808157  0.4961771544708354  1.0000
  H   H32       1.0  0.41818555567200383  0.18523922765511708  0.503823114196379  1.0000
  H   H33       1.0  0.0967573020406718  0.4334487899862507  0.813062732796176  1.0000
  H   H34       1.0  0.5967571230571309  0.06655114561578299  0.18693732233651866  1.0000
  H   H35       1.0  0.4032429723163915  0.9334487755949537  0.6869371211900271  1.0000
  H   H36       1.0  0.903242657573827  0.5665511421093541  0.31306272882113  1.0000
  H   H37       1.0  0.903242725453339  0.5665511366669164  0.18693721977574274  1.0000
  H   H38       1.0  0.40324290443687966  0.9334487810373843  0.8130626302354071  1.0000
  H   H39       1.0  0.5967576039592756  0.06655115105807848  0.3130628313816785  1.0000
  H   H40       1.0  0.09675736991992778  0.43344878454383473  0.6869376970847368  1.0000
  H   H41       1.0  0.37235959331298574  0.5353641065348498  0.1869426396676843  1.0000
  H   H42       1.0  0.8723595635619291  0.9646353506270627  0.813057235305287  1.0000
  H   H43       1.0  0.1276409448400884  0.03536458146792398  0.31305733963111476  1.0000
  H   H44       1.0  0.6276405020548453  0.46463533839826704  0.6869426905395172  1.0000
  H   H45       1.0  0.6276404341810249  0.4646358201183176  0.8130573129042418  1.0000
  H   H46       1.0  0.1276404639320887  0.03536457602609738  0.18694271726663197  1.0000
  H   H47       1.0  0.872359082653922  0.9646353451852431  0.6869426129408109  1.0000
  H   H48       1.0  0.37235952543949935  0.5353636356987225  0.3130572620323662  1.0000
  H   H49       1.0  0.9573527765160605  0.4199327578258618  0.9665707353914924  1.0000
  H   H50       1.0  0.45735294069384475  0.0800669940446355  0.0334290282843384  1.0000
  H   H51       1.0  0.5426473199128026  0.9199329139180603  0.5334291866446463  1.0000
  H   H52       1.0  0.0426470178657397  0.5800667112396665  0.4665704814894055  1.0000
  H   H53       1.0  0.04264725097795009  0.5800671688273057  0.03342921718043359  1.0000
  H   H54       1.0  0.5426470868001657  0.9199329326085318  0.9665709242875803  1.0000
  H   H55       1.0  0.45735325636287166  0.08006701273496471  0.4665707659270595  1.0000
  H   H56       1.0  0.9573530096282707  0.4199332154135005  0.5334294710825205  1.0000
  H   H57       1.0  0.0435693282502569  0.4200239579442383  0.9250265845323536  1.0000
  H   H58       1.0  0.5435698093109523  0.07997600475806618  0.07497304025611128  1.0000
  H   H59       1.0  0.4564304065784908  0.9200239067899574  0.5749732683102664  1.0000
  H   H60       1.0  0.9564305108483214  0.5799759838140728  0.4250270120451133  1.0000
  H   H61       1.0  0.9564301504623527  0.57997596870905  0.07497289470585138  1.0000
  H   H62       1.0  0.45643021818322177  0.9200234456170123  0.9250269123157862  1.0000
  H   H63       1.0  0.5435696209153562  0.0799764961412919  0.4250266842616738  1.0000
  H   H64       1.0  0.0435695166456966  0.4200239428390944  0.5749729405268125  1.0000
  H   H65       1.0  0.9551718329771217  0.4634602506140766  0.07739210003204987  1.0000
  H   H66       1.0  0.4551716188445951  0.036539502367737994  0.9226071920727748  1.0000
  H   H67       1.0  0.5448287716398781  0.963460439181631  0.42260751160802806  1.0000
  H   H68       1.0  0.0448283803083385  0.5365396611427327  0.5773926280968309  1.0000
  H   H69       1.0  0.044828743298964496  0.5365391997608454  0.9226073792056935  1.0000
  H   H70       1.0  0.5448284086496713  0.9634604242854081  0.07739228716520329  1.0000
  H   H71       1.0  0.455171804635789  0.03653948747139419  0.5773924409636775  1.0000
  H   H72       1.0  0.9551716471856723  0.4634602655104345  0.422607324475095  1.0000
  H   H73       1.0  0.03976119725441409  0.4921805301305965  0.1101310866849943  1.0000
  H   H74       1.0  0.5397608509129626  0.007819434512242698  0.8898685411817907  1.0000
  H   H75       1.0  0.4602390260290647  0.9921805042118519  0.38986893153472113  1.0000
  H   H76       1.0  0.9602389807914165  0.5078198607297252  0.610131345742367  1.0000
  H   H77       1.0  0.9602388302395966  0.5078193965225707  0.8898688658869318  1.0000
  H   H78       1.0  0.4602386277996473  0.9921804921410382  0.1101309380564146  1.0000
  H   H79       1.0  0.5397615502466023  0.0078194224411732  0.6101310210369774  1.0000
  H   H80       1.0  0.03976104670259419  0.49218006592344193  0.3898686068295589  1.0000
  H   H81       1.0  0.44091248424771834  0.4860031350806651  0.8964309032821658  1.0000
  H   H82       1.0  0.9409118824422008  0.013996625166761596  0.10356982034997486  1.0000
  H   H83       1.0  0.05908830266631071  0.9860032888492112  0.6035699018493544  1.0000
  H   H84       1.0  0.559087934413199  0.5139968042095687  0.3964297529960703  1.0000
  H   H85       1.0  0.5590875432455319  0.5139967915725592  0.10357046929158285  1.0000
  H   H86       1.0  0.05908814505180969  0.986003301486406  0.8964301322219511  1.0000
  H   H87       1.0  0.9409117248276997  0.013996637803948898  0.3964300507225643  1.0000
  H   H88       1.0  0.44091209308132323  0.4860031224435558  0.6035692529079666  1.0000
  H   H89       1.0  0.4472953507507428  0.42852684916059747  0.9572893366055766  1.0000
  H   H90       1.0  0.9472953236175529  0.0714729078344334  0.04271043519940319  1.0000
  H   H91       1.0  0.0527043782171503  0.9285270009294062  0.5427105169615059  1.0000
  H   H92       1.0  0.5527044536211747  0.571473095382018  0.45728914304364565  1.0000
  H   H93       1.0  0.5527041279613627  0.5714730774927334  0.042711089300510686  1.0000
  H   H94       1.0  0.0527047038764579  0.9285270188187341  0.9572895173725225  1.0000
  H   H95       1.0  0.94729564927686  0.07147292572376068  0.4572894356104199  1.0000
  H   H96       1.0  0.4472955738728359  0.4285268312711492  0.5427108095282804  1.0000
  H   H97       1.0  0.4390245779033889  0.46589225772873993  0.07069084676649598  1.0000
  H   H98       1.0  0.9390247197709128  0.0341075034804135  0.9293094050573313  1.0000
  H   H99       1.0  0.06097511471807591  0.9658924386474865  0.429309169213674  1.0000
  H   H100      1.0  0.5609750938140792  0.5341081297279047  0.5706900107726438  1.0000
  H   H101      1.0  0.5609749008084535  0.534107668924605  0.9293100524735322  1.0000
  H   H102      1.0  0.060975307723097685  0.9658924231727539  0.07069054751459448  1.0000
  H   H103      1.0  0.9390249127759421  0.0341074880056809  0.5706907833582519  1.0000
  H   H104      1.0  0.43902438489862317  0.46589227320344406  0.42930899513163456  1.0000
  H   H105      1.0  0.42654469841433246  0.5479678353220406  0.08471905336687509  1.0000
  H   H106      1.0  0.926545664882113  0.9520320705092046  0.9152812511437316  1.0000
  H   H107      1.0  0.07345473348795649  0.0479678704079092  0.4152814003401345  1.0000
  H   H108      1.0  0.5734555069848569  0.4520325533451413  0.5847186736268454  1.0000
  H   H109      1.0  0.573455329079259  0.45203256760922966  0.9152813725390131  1.0000
  H   H110      1.0  0.0734543626118977  0.047967856143962685  0.0847187014281943  1.0000
  H   H111      1.0  0.9265452940058053  0.9520320562452795  0.5847190255657322  1.0000
  H   H112      1.0  0.4265450692906469  0.5479678495859658  0.4152812789448744  1.0000
  C   C1        1.0  0.268480870172624  0.3692492828624124  0.0022652834780529994  1.0000
  C   C2        1.0  0.7684803229936322  0.13075056524271392  0.997734632856634  1.0000
  C   C3        1.0  0.2315199866253579  0.8692498590683402  0.49773425093373175  1.0000
  C   C4        1.0  0.7315194239781633  0.6307506224107867  0.502265264541286  1.0000
  C   C5        1.0  0.7315191573213938  0.6307506437907547  0.9977346690938727  1.0000
  C   C6        1.0  0.2315197044999664  0.8692498376885567  0.002265793049254199  1.0000
  C   C7        1.0  0.7684805896504017  0.130750543862753  0.5022652283040472  1.0000
  C   C8        1.0  0.2684806035157763  0.36925025679853  0.49773421469673446  1.0000
  C   C9        1.0  0.2916103946162991  0.3016535094930148  0.0010270296569175  1.0000
  C   C10       1.0  0.7916097995123437  0.19834680310523103  0.9989733413169614  1.0000
  C   C11       1.0  0.2083899599923313  0.8016531450347487  0.4989720256619206  1.0000
  C   C12       1.0  0.7083899008673952  0.6983468719513864  0.5010265618401843  1.0000
  C   C13       1.0  0.708390181658949  0.6983468934381207  0.9989733962487504  1.0000
  C   C14       1.0  0.2083896791993354  0.801653599826203  0.0010275579230878  1.0000
  C   C15       1.0  0.791610067502283  0.19834725789644378  0.5010265069081967  1.0000
  C   C16       1.0  0.29161067540845653  0.3016540072577669  0.4989724440636747  1.0000
  C   C17       1.0  0.3633861157650172  0.27963424575838036  0.9985778106628156  1.0000
  C   C18       1.0  0.8633860304462857  0.22036603026839427  0.0014225022970534998  1.0000
  C   C19       1.0  0.1366137158302365  0.7796338749321877  0.5014220302185348  1.0000
  C   C20       1.0  0.6366136441646688  0.7203661786255893  0.49857756196568903  1.0000
  C   C21       1.0  0.6366139117291639  0.7203652046166978  0.0014221419090886995  1.0000
  C   C22       1.0  0.1366139970473057  0.7796343726628762  0.9985779236088346  1.0000
  C   C23       1.0  0.8633863116640299  0.22036605172095847  0.49857744901944284  1.0000
  C   C24       1.0  0.36338638332901496  0.2796347005837489  0.5014223906062796  1.0000
  C   C25       1.0  0.3676430385224378  0.2127462264552449  0.9978436651478615  1.0000
  C   C26       1.0  0.8676429063093493  0.2872540474025697  0.0021571177052450994  1.0000
  C   C27       1.0  0.1323573879581943  0.7127463341393464  0.5021561700344035  1.0000
  C   C28       1.0  0.6323567221978763  0.7872537215872624  0.49784295225635566  1.0000
  C   C29       1.0  0.6323553426266741  0.7872527476421848  0.0021567607586305995  1.0000
  C   C30       1.0  0.1323576699656428  0.712746355528587  0.9978437815343636  1.0000
  C   C31       1.0  0.8676431883175652  0.28725406879174636  0.4978433092033752  1.0000
  C   C32       1.0  0.3676427565143142  0.21274668134412875  0.5021570003158116  1.0000
  C   C33       1.0  0.2990568651454523  0.1842028982499215  0.9988689329697493  1.0000
  C   C34       1.0  0.7990578119262537  0.3157964579975712  0.0011304853168568  1.0000
  C   C35       1.0  0.2009419346647903  0.6842029708997258  0.5011299531133915  1.0000
  C   C36       1.0  0.7009423456893131  0.8157965736031584  0.4988691137424225  1.0000
  C   C37       1.0  0.7009404184402754  0.8157970284039421  0.0011310196032852  1.0000
  C   C38       1.0  0.20094276434890906  0.6842034686554966  0.9988704139227306  1.0000
  C   C39       1.0  0.7990580928294762  0.31579695575342  0.49886952612459357  1.0000
  C   C40       1.0  0.2990571330232115  0.18420287677205485  0.5011308388297023  1.0000
  C   C41       1.0  0.2820084387929001  0.11543215705894741  0.9972132147983  1.0000
  C   C42       1.0  0.7820060436997236  0.3845672078759748  0.002786690603251399  1.0000
  C   C43       1.0  0.2179958962348465  0.6154341262760212  0.5027856654234099  1.0000
  C   C44       1.0  0.7179935177323314  0.8845673146505459  0.49721338764948786  1.0000
  C   C45       1.0  0.7179871984479435  0.8845682458734031  0.0027862644414823994  1.0000
  C   C46       1.0  0.21799398379386759  0.6154331950553028  0.9972137353026367  1.0000
  C   C47       1.0  0.7820041312594198  0.3845658003771248  0.497213813814568  1.0000
  C   C48       1.0  0.28200925367004  0.11543165944576828  0.5027870382552279  1.0000
  C   C49       1.0  0.22138775984947048  0.48367895309164044  0.8766541531054627  1.0000
  C   C50       1.0  0.7213854888103272  0.016320919008897795  0.12334532795969007  1.0000
  C   C51       1.0  0.2786130286668396  0.9836789967141898  0.6233461784940957  1.0000
  C   C52       1.0  0.7786115825351843  0.5163205082140506  0.3766537722515224  1.0000
  C   C53       1.0  0.7786122676442845  0.516320973561548  0.12334627280040417  1.0000
  C   C54       1.0  0.27861398990203406  0.9836790076444045  0.8766546246124559  1.0000
  C   C55       1.0  0.7213875476088275  0.016320929938835597  0.37665377407761  1.0000
  C   C56       1.0  0.22138844495899693  0.4836789421610276  0.623346180320375  1.0000
  C   C57       1.0  0.2050148983380424  0.47636856197139116  0.808473244965526  1.0000
  C   C58       1.0  0.7050147439978361  0.023631318470968693  0.19152672266633175  1.0000
  C   C59       1.0  0.2949847976537896  0.9763686031360022  0.691527086011625  1.0000
  C   C60       1.0  0.7949850662164478  0.5236313697281288  0.3084733248345302  1.0000
  C   C61       1.0  0.7949851291559682  0.5236313646817763  0.1915267076063998  1.0000
  C   C62       1.0  0.29498528349617453  0.9763686081821987  0.808473229905594  1.0000
  C   C63       1.0  0.7050146810583087  0.0236313235173284  0.308473339894462  1.0000
  C   C64       1.0  0.20501496127730687  0.4763685569250526  0.6915271010713367  1.0000
  C   C65       1.0  0.14092545479012838  0.45125157604284266  0.7832706040159819  1.0000
  C   C66       1.0  0.6409252560098793  0.048748337054526296  0.21672941541714855  1.0000
  C   C67       1.0  0.3590748072959968  0.9512515867273164  0.7167292514870238  1.0000
  C   C68       1.0  0.8590745368920167  0.5487483534816348  0.2832706342236903  1.0000
  C   C69       1.0  0.8590745727038823  0.5487483506103173  0.21672934855594408  1.0000
  C   C70       1.0  0.3590747714841314  0.9512515895986341  0.7832705371547772  1.0000
  C   C71       1.0  0.6409252201979215  0.0487478636477832  0.28327117441882166  1.0000
  C   C72       1.0  0.14092549060200102  0.4512515731715254  0.7167293183482356  1.0000
  C   C73       1.0  0.2427412549829739  0.49686800791676683  0.12335169520797955  1.0000
  C   C74       1.0  0.7427409261021438  0.0031328058594155992  0.8766487152650339  1.0000
  C   C75       1.0  0.25725951385118867  0.9968680842797893  0.3766483234108903  1.0000
  C   C76       1.0  0.7572583600512245  0.5031323840846225  0.6233511712600046  1.0000
  C   C77       1.0  0.7572582237293801  0.5031319187365425  0.8766482573641665  1.0000
  C   C78       1.0  0.2572596501729408  0.996868073349809  0.12335171064065516  1.0000
  C   C79       1.0  0.7427410624244786  0.0031318423732357996  0.6233516291608082  1.0000
  C   C80       1.0  0.24274166744287845  0.4968680188466123  0.37664830797799437  1.0000
  C   C81       1.0  0.2596579597172379  0.5024090258078926  0.1915486964068123  1.0000
  C   C82       1.0  0.7596584609906999  0.9975904887778881  0.8084512696587393  1.0000
  C   C83       1.0  0.24034150358765058  0.0024089666416458  0.3084512800846254  1.0000
  C   C84       1.0  0.7403421306927669  0.4975904195227299  0.691548658993632  1.0000
  C   C85       1.0  0.7403420677767727  0.49759090084527463  0.8084512561651134  1.0000
  C   C86       1.0  0.2403415665030622  0.0024094378753005997  0.19154915624712734  1.0000
  C   C87       1.0  0.7596585239062748  0.9975904837334542  0.6915491458212271  1.0000
  C   C88       1.0  0.2596578968015706  0.5024085545742593  0.3084512935782513  1.0000
  C   C89       1.0  0.3263217400046088  0.5217516155602694  0.21675464940759068  1.0000
  C   C90       1.0  0.8263217329599043  0.9782478650589466  0.7832452627761624  1.0000
  C   C91       1.0  0.17367825874940482  0.021751588185281896  0.2832458020655649  1.0000
  C   C92       1.0  0.6736783232744301  0.47824783194565174  0.7167541908944911  1.0000
  C   C93       1.0  0.6736782874894017  0.4782483110928907  0.7832453031643354  1.0000
  C   C94       1.0  0.17367774575261313  0.021751585316266597  0.2167546897959624  1.0000
  C   C95       1.0  0.8263217687445136  0.9782478621898176  0.7167546238402875  1.0000
  C   C96       1.0  0.3263217042199145  0.5217511421513378  0.2832457616773921  1.0000
  C   C97       1.0  0.0091859351625203  0.4458101400500566  0.9590058232724129  1.0000
  C   C98       1.0  0.5091853730081084  0.05418984017161677  0.04099382930736789  1.0000
  C   C99       1.0  0.49081487945591107  0.9458100684439329  0.5409940317667575  1.0000
  C   C100      1.0  0.9908144161435575  0.5541893283624758  0.4590057474631236  1.0000
  C   C101      1.0  0.9908146411131469  0.5541897866029685  0.0409941292992855  1.0000
  C   C102      1.0  0.4908146544859092  0.9458100864815434  0.9590061232645509  1.0000
  C   C103      1.0  0.5091856968197562  0.05418985820909229  0.459005920804948  1.0000
  C   C104      1.0  0.0091856113504534  0.4458105982906914  0.5409942051088023  1.0000
  C   C105      1.0  0.0070681035837552  0.4881464611948799  0.0667443638677767  1.0000
  C   C106      1.0  0.5070677077612659  0.011853043827748898  0.9332552904236874  1.0000
  C   C107      1.0  0.49293212248054635  0.988146422362604  0.43325518067428687  1.0000
  C   C108      1.0  0.992932121162873  0.5118534496429916  0.5667445968441313  1.0000
  C   C109      1.0  0.9929319239106746  0.511852989180177  0.9332551153701797  1.0000
  C   C110      1.0  0.4929317709512517  0.9881464065474715  0.0667446621484373  1.0000
  C   C111      1.0  0.5070684537951279  0.011853504290421299  0.5667447718974187  1.0000
  C   C112      1.0  0.007067906331137398  0.4881464770101686  0.4332553557277946  1.0000
  C   C113      1.0  0.4626963493702831  0.4774263158096588  0.9441699355742511  1.0000
  C   C114      1.0  0.9626957930384846  0.022573909616461704  0.0558302971168132  1.0000
  C   C115      1.0  0.0373038946744089  0.9774255240015605  0.5558303954927623  1.0000
  C   C116      1.0  0.5373040179045888  0.522574103878675  0.4441697502939589  1.0000
  C   C117      1.0  0.5373036781233083  0.5225740871216119  0.05583049033163688  1.0000
  C   C118      1.0  0.0373042344556893  0.9774255407586236  0.9441696554550914  1.0000
  C   C119      1.0  0.9626961328195094  0.0225739263735392  0.4441700304130832  1.0000
  C   C120      1.0  0.46269600958926566  0.4774262990525743  0.5558302022779812  1.0000
  C   C121      1.0  0.4545534450000305  0.5136457991123179  0.05393671428852538  1.0000
  C   C122      1.0  0.9545538058953582  0.9863545687260923  0.946063567583856  1.0000
  C   C123      1.0  0.045446559341215206  0.013645374847598604  0.4460637364939898  1.0000
  C   C124      1.0  0.5454467935331664  0.4863545868982584  0.5539354134433337  1.0000
  C   C125      1.0  0.5454465824930493  0.4863546038189952  0.9460646582852517  1.0000
  C   C126      1.0  0.04544622159865241  0.013645357927075  0.05393638498807008  1.0000
  C   C127      1.0  0.9545540169344521  0.9863545518054265  0.5539362160777087  1.0000
  C   C128      1.0  0.45455323396119246  0.5136458160329551  0.44606359246072447  1.0000
  S   S1        1.0  0.2297501009749112  0.23988073373461555  0.0014947059605603  1.0000
  S   S2        1.0  0.7297505613592747  0.26011961038258136  0.9985061883463544  1.0000
  S   S3        1.0  0.27024919864810215  0.7398808139951639  0.49850481742961944  1.0000
  S   S4        1.0  0.7702496452240054  0.7601196477502653  0.5014937200736397  1.0000
  S   S5        1.0  0.7702488289546919  0.7601201454750636  0.9985066666136784  1.0000
  S   S6        1.0  0.2702494661338974  0.7398812688267994  0.0014947108934961998  1.0000
  S   S7        1.0  0.7297502800646853  0.2601200652142522  0.5014937151407393  1.0000
  S   S8        1.0  0.2297509310518464  0.239881231458888  0.49850528583021964  1.0000
  S   S9        1.0  0.2652952942303273  0.49919512394177434  0.7499999129626146  1.0000
  S   S10       1.0  0.7652950926842692  0.0008047257863879001  0.25000000594671684  1.0000
  S   S11       1.0  0.23470493480974136  0.9991952008667725  0.7499999466252019  1.0000
  S   S12       1.0  0.7347047332636906  0.5008048027113929  0.2500000396093114  1.0000
  S   S13       1.0  0.19715499638385833  0.48464149023736514  0.2500002561620818  1.0000
  S   S14       1.0  0.6971553441796415  0.0153583942096844  0.7500001911563954  1.0000
  S   S15       1.0  0.30284468331436903  0.9846415324434831  0.2499997614155305  1.0000
  S   S16       1.0  0.8028450311098964  0.5153584364158161  0.750000169743785  1.0000
  N   N1        1.0  0.05031213628459599  0.4508453009723254  0.019727137604050395  1.0000
  N   N2        1.0  0.5503116641427326  0.04915465829462559  0.98027295506877  1.0000
  N   N3        1.0  0.44968811549000515  0.9508452882315194  0.4802728770938812  1.0000
  N   N4        1.0  0.9496881390704318  0.5491546058078781  0.5197274087110912  1.0000
  N   N5        1.0  0.9496878912094147  0.549154625680842  0.9802728149678754  1.0000
  N   N6        1.0  0.4496878145693656  0.9508452683586978  0.0197274708373243  1.0000
  N   N7        1.0  0.5503124607856621  0.049154638421505595  0.5197270754778174  1.0000
  N   N8        1.0  0.05031188842332309  0.4508453208453105  0.4802730171947758  1.0000
  N   N9        1.0  0.4243436067786135  0.5204513847350823  0.9890013039576001  1.0000
  N   N10       1.0  0.9243433325051456  0.9795485222179893  0.010999002332575  1.0000
  N   N11       1.0  0.0756569522448274  0.0204513838089468  0.5109989881750109  1.0000
  N   N12       1.0  0.5756561634594348  0.4795485625443164  0.4890006106786655  1.0000
  N   N13       1.0  0.5756564207151412  0.4795485419181063  0.010999121948266598  1.0000
  N   N14       1.0  0.0756566949886093  0.020451404435199497  0.9890014235732918  1.0000
  N   N15       1.0  0.924343624030584  0.9795485428441001  0.4890014377306357  1.0000
  N   N16       1.0  0.42434386403483154  0.5204513641088298  0.5109988685593122  1.0000
  O   O1        1.0  0.2011958391121098  0.38233885107123916  0.011918010321650695  1.0000
  O   O2        1.0  0.7011964089086362  0.11766103131683538  0.9880819603967266  1.0000
  O   O3        1.0  0.29880500866354964  0.8823389158828336  0.48808199853929307  1.0000
  O   O4        1.0  0.7988044446486952  0.6176610550350077  0.5119179358855206  1.0000
  O   O5        1.0  0.7988041883819007  0.6176610755819282  0.9880819422502751  1.0000
  O   O6        1.0  0.2988041673667752  0.8823388953362113  0.011918465508919994  1.0000
  O   O7        1.0  0.701196116393774  0.11766101077005686  0.5119179540321923  1.0000
  O   O8        1.0  0.2011955828455712  0.3823388716181384  0.48808154335246456  1.0000
  O   O9        1.0  0.32013384779313  0.40931287253390264  0.9930294131902002  1.0000
  O   O10       1.0  0.8201338458861683  0.09068694925274198  0.006970461394963899  1.0000
  O   O11       1.0  0.17986644320005496  0.9093129564265184  0.5069704387396141  1.0000
  O   O12       1.0  0.6798659181086677  0.5906870750931645  0.4930295918190664  1.0000
  O   O13       1.0  0.6798661797008806  0.5906870541192644  0.0069705393817188  1.0000
  O   O14       1.0  0.1798661816074301  0.9093134536785286  0.993029964510924  1.0000
  O   O15       1.0  0.8201341330756122  0.09068697022650697  0.49302951383208427  1.0000
  O   O16       1.0  0.320134109385016  0.4093138041161736  0.506970360752902  1.0000
  O   O17       1.0  0.3356068450606458  0.0767926119177673  0.0033368719379112  1.0000
  O   O18       1.0  0.8356088413617967  0.42320815454068145  0.9966625168062604  1.0000
  O   O19       1.0  0.16438872550338599  0.576790840844289  0.4966621642246236  1.0000
  O   O20       1.0  0.6643918015915276  0.923207769726417  0.5033369321747541  1.0000
  O   O21       1.0  0.6643876946168064  0.9232073147367927  0.9966630806362317  1.0000
  O   O22       1.0  0.16439118613195797  0.5767917721125001  0.003337909099606399  1.0000
  O   O23       1.0  0.8356118507721177  0.423209562086825  0.5033377883470962  1.0000
  O   O24       1.0  0.3356082259024831  0.07679215692674288  0.4966630203971717  1.0000
  O   O25       1.0  0.21472781691421966  0.10037607100626642  0.9897184716981468  1.0000
  O   O26       1.0  0.7147319887563198  0.3996238044859978  0.0102805414134579  1.0000
  O   O27       1.0  0.285265004077786  0.6003756252016359  0.5102794605774434  1.0000
  O   O28       1.0  0.7852681110795955  0.8996238763360507  0.4897190647879483  1.0000
  O   O29       1.0  0.7852678203259558  0.8996248082042085  0.010281954209531798  1.0000
  O   O30       1.0  0.2852680387375983  0.6003756458891018  0.9897198844923875  1.0000
  O   O31       1.0  0.7147355721977178  0.39962477772947125  0.4897204919942764  1.0000
  O   O32       1.0  0.21473027006935297  0.10037557403946812  0.5102813611185653  1.0000
  O   O33       1.0  0.285747211485564  0.5008359029096495  0.8929940888632754  1.0000
  O   O34       1.0  0.785747917915195  0.9991640746610811  0.10700538278123867  1.0000
  O   O35       1.0  0.214252812276861  0.0008358396512590998  0.6070057282643616  1.0000
  O   O36       1.0  0.7142532108738067  0.49916451236212805  0.3929942319006088  1.0000
  O   O37       1.0  0.7142528160082833  0.4991645000215995  0.10700586370866456  1.0000
  O   O38       1.0  0.21425265836047203  0.0008358519919439999  0.892994569790467  1.0000
  O   O39       1.0  0.7857472152171497  0.9991640870019084  0.3929942243075643  1.0000
  O   O40       1.0  0.285746816620204  0.5008354142910391  0.6070057206713173  1.0000
  O   O41       1.0  0.16795836186312132  0.47169819304374255  0.9138662687625468  1.0000
  O   O42       1.0  0.6679583177463827  0.0283012300016807  0.08613467548862987  1.0000
  O   O43       1.0  0.33204133734744085  0.9716986825097392  0.5861345351506485  1.0000
  O   O44       1.0  0.8320420380300603  0.5283017477512499  0.4138663190777905  1.0000
  O   O45       1.0  0.8320416656306334  0.5283017336094459  0.08613415714332007  1.0000
  O   O46       1.0  0.33204170974763497  0.9716986966514869  0.9138652770832959  1.0000
  O   O47       1.0  0.6679586901461505  0.028301720421531194  0.4138658907552397  1.0000
  O   O48       1.0  0.1679585382456068  0.4716981789017751  0.5861336334939081  1.0000
  O   O49       1.0  0.1773166172186436  0.48278638596432444  0.10677556637423176  1.0000
  O   O50       1.0  0.6773190046985462  0.017213032312199096  0.8932244236441276  1.0000
  O   O51       1.0  0.3226830637580917  0.9827869067009445  0.39322445104534137  1.0000
  O   O52       1.0  0.8226852107845914  0.517213528327865  0.606774990744654  1.0000
  O   O53       1.0  0.822683410275367  0.5172135406888428  0.893224386197694  1.0000
  O   O54       1.0  0.3226821203587776  0.9827868943406912  0.10677552892735055  1.0000
  O   O55       1.0  0.6773169637357556  0.017213496230304798  0.6067755015266056  1.0000
  O   O56       1.0  0.1773164630542254  0.48278687460296515  0.39322496182662536  1.0000
  O   O57       1.0  0.2962858977753626  0.5069760424982517  0.08611591272740778  1.0000
  O   O58       1.0  0.7962879350555951  0.9930229771463391  0.9138849704003033  1.0000
  O   O59       1.0  0.203714111163265  0.006976011093634297  0.4138840641529171  1.0000
  O   O60       1.0  0.7037165012461983  0.49302434628898345  0.5861168511971966  1.0000
  O   O61       1.0  0.7037141297186481  0.49302388415491544  0.9138840398445179  1.0000
  O   O62       1.0  0.2037131900013875  0.006976473228505099  0.08611592883904247  1.0000
  O   O63       1.0  0.7962859163307457  0.9930239155595258  0.586115888419009  1.0000
  O   O64       1.0  0.2962851725921993  0.5069765329199567  0.41388357470804477  1.0000
