data_image0
_chemical_formula_structural       ZnH16C24N2O4F6
_chemical_formula_sum              "Zn1 H16 C24 N2 O4 F6"
_cell_length_a       7.161359976071253
_cell_length_b       8.889656226958884
_cell_length_c       10.986305852818216
_cell_angle_alpha    92.0735055153566
_cell_angle_beta     106.62684180608781
_cell_angle_gamma    112.98643740593693

_space_group_name_H-M_alt    "P 1"
_space_group_IT_number       1

loop_
  _space_group_symop_operation_xyz
  'x, y, z'

loop_
  _atom_site_type_symbol
  _atom_site_label
  _atom_site_symmetry_multiplicity
  _atom_site_fract_x
  _atom_site_fract_y
  _atom_site_fract_z
  _atom_site_occupancy
  Zn  Zn1       1.0  0.9999992317649457  0.49999803641491497  0.9999990378040238  1.0000
  H   H1        1.0  0.3467409784588823  0.7806699956852583  0.3991165986998553  1.0000
  H   H2        1.0  0.6532637731556932  0.2193305370922971  0.6008803244234358  1.0000
  H   H3        1.0  0.4288155502865151  0.6651717798471708  0.5415164804847308  1.0000
  H   H4        1.0  0.5711883930216074  0.3348299809617146  0.45848396821521226  1.0000
  H   H5        1.0  0.4348719328813145  0.521495824777176  0.7280161750647877  1.0000
  H   H6        1.0  0.5651304529094503  0.47850842329382465  0.2719849652513987  1.0000
  H   H7        1.0  0.1731581501079518  0.2275712781991714  0.70330791556475  1.0000
  H   H8        1.0  0.8268419904490117  0.7724342132225602  0.2966946585973105  1.0000
  H   H9        1.0  0.9046873781724398  0.0811050242825431  0.4879548031412  1.0000
  H   H10       1.0  0.09531197096251276  0.9189017040846535  0.5120494795869277  1.0000
  H   H11       1.0  0.9061538300226599  0.22587639914249988  0.29779283839719994  1.0000
  H   H12       1.0  0.09384639735543489  0.7741266025082679  0.7022105864390227  1.0000
  H   H13       1.0  0.43942085633042877  0.7510225723557865  0.9883299200098462  1.0000
  H   H14       1.0  0.5605795700165856  0.2489754631242178  0.011672480658809567  1.0000
  H   H15       1.0  0.20538557755509146  0.2499697306445299  0.01230287545659791  1.0000
  H   H16       1.0  0.7946127241481374  0.7500270762434977  0.987698175710918  1.0000
  C   C1        1.0  0.36371616517392596  0.9901563679920995  0.2368321196105612  1.0000
  C   C2        1.0  0.6362850863639765  0.009840448370702897  0.7631649384708511  1.0000
  C   C3        1.0  0.2509575126733451  0.7997740517896544  0.202045299535996  1.0000
  C   C4        1.0  0.7490450974129954  0.20022524348178908  0.7979520910967467  1.0000
  C   C5        1.0  0.26114842571939784  0.7099117604825124  0.3025686203872695  1.0000
  C   C6        1.0  0.7388505890269241  0.290086303688085  0.6974289630347315  1.0000
  C   C7        1.0  0.15596443802837703  0.5339752928906519  0.2890831332340937  1.0000
  C   C8        1.0  0.8440351354021511  0.4660264826769875  0.7109173998105831  1.0000
  C   C9        1.0  0.16488788915121685  0.4548553769435344  0.40639109778040716  1.0000
  C   C10       1.0  0.8351102304675209  0.5451464050293708  0.5936091605440836  1.0000
  C   C11       1.0  0.31222476929296045  0.5377200963816123  0.5285687689094658  1.0000
  C   C12       1.0  0.6877748125797892  0.46228168364309136  0.4714308556299187  1.0000
  C   C13       1.0  0.3162982771894036  0.4559357530361012  0.6344852037171265  1.0000
  C   C14       1.0  0.6837055624131523  0.5440684886296268  0.3655162113192461  1.0000
  C   C15       1.0  0.1709114622991237  0.2914364266974658  0.6203465322377681  1.0000
  C   C16       1.0  0.8290886782578325  0.7085690647242656  0.3796560419242994  1.0000
  C   C17       1.0  0.02133990382890259  0.2085194876853578  0.49924294137375114  1.0000
  C   C18       1.0  0.9786603235491922  0.7914835139654101  0.5007604834624715  1.0000
  C   C19       1.0  0.020006705697255746  0.288906791570085  0.3929737484468633  1.0000
  C   C20       1.0  0.9799892555088189  0.7110937439825874  0.6070287943976638  1.0000
  C   C21       1.0  0.46776818856313435  0.6392228504126364  0.9935408480090899  1.0000
  C   C22       1.0  0.5322322631105437  0.3607751984385672  0.006458827143681885  1.0000
  C   C23       1.0  0.33802940634262063  0.36127555589958865  0.0067269442426721405  1.0000
  C   C24       1.0  0.6619674668754738  0.638721270764904  0.9932711066887735  1.0000
  N   N1        1.0  0.3070003445089354  0.5005033230492726  0.00025666017084086665  1.0000
  N   N2        1.0  0.6929958241082801  0.49949225078970727  0.999743950000827  1.0000
  O   O1        1.0  0.15839298398086746  0.7513367028130347  0.08056767297340171  1.0000
  O   O2        1.0  0.8416017561512062  0.2486588908024031  0.919429936962196  1.0000
  O   O3        1.0  0.04911451167582463  0.4369116420836433  0.1813318472302043  1.0000
  O   O4        1.0  0.9508880477572033  0.563087626445416  0.8186709944342994  1.0000
  F   F1        1.0  0.47021790447710987  0.0488051713421171  0.3652128895976787  1.0000
  F   F2        1.0  0.5297905630675004  0.9511941205935557  0.6347810573893256  1.0000
  F   F3        1.0  0.5112117232846456  0.05326031930464839  0.17452058106401583  1.0000
  F   F4        1.0  0.48878163057339913  0.9467353163725747  0.8254694861090357  1.0000
  F   F5        1.0  0.21996713731653023  0.05895691669141458  0.1990875009345459  1.0000
  F   F6        1.0  0.7800304151757799  0.9410411494273986  0.8009107162725613  1.0000
