data_image0
_chemical_formula_structural       Al6H50C99O31
_chemical_formula_sum              "Al6 H50 C99 O31"
_cell_length_a       13.090612250188782
_cell_length_b       12.702950824277384
_cell_length_c       27.681246111600394
_cell_angle_alpha    90.75455634978577
_cell_angle_beta     90.78248984379421
_cell_angle_gamma    119.84646599243477

_space_group_name_H-M_alt    "P 1"
_space_group_IT_number       1

loop_
  _space_group_symop_operation_xyz
  'x, y, z'

loop_
  _atom_site_type_symbol
  _atom_site_label
  _atom_site_symmetry_multiplicity
  _atom_site_fract_x
  _atom_site_fract_y
  _atom_site_fract_z
  _atom_site_occupancy
  Al  Al1       1.0  0.4154943668843389  0.8150027091656824  0.49522852685491603  1.0000
  Al  Al2       1.0  0.6495914667603203  0.07576725923392763  0.498656504039772  1.0000
  Al  Al3       1.0  0.41683711456257566  0.06759605505733658  0.4970547453877927  1.0000
  Al  Al4       1.0  0.9199178418326213  0.8429448445460038  0.9818459442078264  1.0000
  Al  Al5       1.0  0.9144472953588691  0.5871577496428343  0.982553144707822  1.0000
  Al  Al6       1.0  0.6844107075560331  0.5842494697114873  0.9815690343647318  1.0000
  H   H1        1.0  0.8380453003183136  0.3107803605247384  0.21392958573251517  1.0000
  H   H2        1.0  0.8759711078226148  0.4071012930124951  0.8557929826933445  1.0000
  H   H3        1.0  0.8616635703479006  0.4773464849455067  0.28838109560058456  1.0000
  H   H4        1.0  0.7865637521038451  0.27596113995863186  0.6163735152147183  1.0000
  H   H5        1.0  0.9473365704722385  0.3759139474087334  0.7777711117024636  1.0000
  H   H6        1.0  0.917912311043196  0.3340798220065438  0.6895081032243199  1.0000
  H   H7        1.0  0.5348980945962366  0.3782307091473242  0.8644352923634597  1.0000
  H   H8        1.0  0.40513509531881203  0.3231745192955912  0.7902562678993093  1.0000
  H   H9        1.0  0.37694481087536513  0.2882264302176765  0.7036510783167742  1.0000
  H   H10       1.0  0.07394094423482761  0.9382228803711712  0.8567913646510732  1.0000
  H   H11       1.0  0.23697597745699991  0.03123808999638557  0.6235585030536156  1.0000
  H   H12       1.0  0.28878022875541387  0.7888595923930807  0.20932512181356333  1.0000
  H   H13       1.0  0.11462014605194071  0.0587677307121837  0.7832741739233312  1.0000
  H   H14       1.0  0.6236107938098954  0.1329697972626604  0.2546643536016475  1.0000
  H   H15       1.0  0.17029718315284012  0.0915996557505068  0.6972575638409353  1.0000
  H   H16       1.0  0.2448204594859931  0.599699404250245  0.6977885955437486  1.0000
  H   H17       1.0  0.27437568783675204  0.7143471198613583  0.6227340186060886  1.0000
  H   H18       1.0  0.5387917710338429  0.5973605669133447  0.8492143631930275  1.0000
  H   H19       1.0  0.49023902726026597  0.7016547329336049  0.6126570224542289  1.0000
  H   H20       1.0  0.4358249923617167  0.527519320436042  0.7699224801601829  1.0000
  H   H21       1.0  0.4190496710661194  0.5629658384564421  0.6829851397272221  1.0000
  H   H22       1.0  0.8380538477829518  0.9540826685847392  0.867297615107887  1.0000
  H   H23       1.0  0.12431385962620571  0.630040749850231  0.2763524376083879  1.0000
  H   H24       1.0  0.49884978961467413  0.21523661450713402  0.19521706542408876  1.0000
  H   H25       1.0  0.8932728522449622  0.13053249218734939  0.7098620816705221  1.0000
  H   H26       1.0  0.7910901374235096  0.058621344664651055  0.6298203045338582  1.0000
  H   H27       1.0  0.5218938321751027  0.3803485580630621  0.2701120230678313  1.0000
  H   H28       1.0  0.7349939903330308  0.5574946410645579  0.2296881456073123  1.0000
  H   H29       1.0  0.13769309146660902  0.9964894493706637  0.2137286937165115  1.0000
  H   H30       1.0  0.9719027424634988  0.8356641161379629  0.280345157672464  1.0000
  H   H31       1.0  0.46633264899056565  0.891077111698159  0.23750224589533525  1.0000
  H   H32       1.0  0.3944658993975737  0.2923196128581012  0.6391533632052455  1.0000
  H   H33       1.0  0.0769677608889694  0.602816264304984  0.8951171775664974  1.0000
  H   H34       1.0  0.9417868771749341  0.6358402308939759  0.22180378102314077  1.0000
  H   H35       1.0  0.26548202587364506  0.5716727755715708  0.8186497393715442  1.0000
  H   H36       1.0  0.11799478197084308  0.46792269265348807  0.8037632124242649  1.0000
  H   H37       1.0  0.22959681767144963  0.4931026050552418  0.7616317422997553  1.0000
  H   H38       1.0  0.9937745444692256  0.204897413228487  0.7840374846343748  1.0000
  H   H39       1.0  0.8955715732265973  0.1574754254016141  0.8332329375362021  1.0000
  H   H40       1.0  0.9889946430720047  0.09610254276915954  0.8252743951138299  1.0000
  H   H41       1.0  0.4027849428265569  0.06565344668580048  0.2404622458491446  1.0000
  H   H42       1.0  0.3358100533721569  0.0877527858468454  0.292174131869352  1.0000
  H   H43       1.0  0.4033657794812343  0.9966021871643063  0.295956801043161  1.0000
  H   H44       1.0  0.477184274698473  0.6770609489159937  0.2125306937250286  1.0000
  H   H45       1.0  0.6153692015920528  0.640590004972161  0.28287704788290563  1.0000
  H   H46       1.0  0.7392331145736791  0.020606426824983308  0.19761204977670838  1.0000
  H   H47       1.0  0.8766625743170595  0.9825043458927497  0.26803244810538723  1.0000
  H   H48       1.0  0.8136178329717438  0.7571606803481925  0.2217700114692889  1.0000
  H   H49       1.0  0.31888861873572694  0.6162288917575793  0.46312228122009463  1.0000
  H   H50       1.0  0.0380295481048236  0.0444322808058288  0.009289119922677  1.0000
  C   C1        1.0  0.6205043748650071  0.9038081204851877  0.4282606988207149  1.0000
  C   C2        1.0  0.6431414143917139  0.28993308162117165  0.33981817753485893  1.0000
  C   C3        1.0  0.0424078082616504  0.8256730945259393  0.2642046976055781  1.0000
  C   C4        1.0  0.597988467816677  0.2064241496606769  0.4287883716960152  1.0000
  C   C5        1.0  0.1344738649109303  0.9150171877848269  0.2280293569648961  1.0000
  C   C6        1.0  0.08912199488700173  0.7808759092143235  0.1009063161977721  1.0000
  C   C7        1.0  0.20539356194025526  0.8600592652749981  0.38638651997340645  1.0000
  C   C8        1.0  0.025882857437451903  0.7146508939798011  0.23282891630616115  1.0000
  C   C9        1.0  0.11815569299136541  0.8042544427793744  0.1955154003981505  1.0000
  C   C10       1.0  0.12717056998188533  0.7111896368741952  0.261996109314488  1.0000
  C   C11       1.0  0.14364584775648123  0.8218649152579474  0.29446600654437555  1.0000
  C   C12       1.0  0.6253298021757416  0.2598605166662012  0.3819039719509334  1.0000
  C   C13       1.0  0.21946708949991486  0.800542266956647  0.22601852560279667  1.0000
  C   C14       1.0  0.23678708633792672  0.9127404757398166  0.2571002061035159  1.0000
  C   C15       1.0  0.10351938289722541  0.7920035729164282  0.14468915360912146  1.0000
  C   C16       1.0  0.2709729837445138  0.8898578007297715  0.43136719463149115  1.0000
  C   C17       1.0  0.16904409167103301  0.838929891108997  0.34461299193945644  1.0000
  C   C18       1.0  0.6428460968953403  0.7244408112427152  0.2633804008631486  1.0000
  C   C19       1.0  0.5659515388256936  0.7448315797663767  0.225053567599474  1.0000
  C   C20       1.0  0.6891211011560187  0.7779846573699986  0.0981043993489692  1.0000
  C   C21       1.0  0.6565940147482935  0.8849451021127592  0.3815671301223489  1.0000
  C   C22       1.0  0.7529134020889787  0.7896606425153863  0.2307874847597233  1.0000
  C   C23       1.0  0.7105478328813463  0.4630522229037767  0.23560284858304203  1.0000
  C   C24       1.0  0.6758086965886748  0.8102110979356922  0.19134675689659278  1.0000
  C   C25       1.0  0.7881230690688954  0.9148953862378946  0.2553578422195244  1.0000
  C   C26       1.0  0.6785853566274652  0.8503739600807093  0.28938755594383986  1.0000
  C   C27       1.0  0.7122139439821494  0.9366055186730049  0.2169783473685953  1.0000
  C   C28       1.0  0.6203626392815239  0.9067544546928802  0.5662390528037733  1.0000
  C   C29       1.0  0.6014556665055225  0.8703805310159681  0.24959981458786015  1.0000
  C   C30       1.0  0.6797388298997974  0.7914159135941857  0.1411656473634508  1.0000
  C   C31       1.0  0.6716807355507938  0.8698756198778667  0.3392745849633911  1.0000
  C   C32       1.0  0.7225013342255623  0.2865072344868125  0.6375281545279421  1.0000
  C   C33       1.0  0.7434521828654682  0.31490402936787387  0.6868628022685925  1.0000
  C   C34       1.0  0.6977470077529376  0.37039694862519207  0.19354911703489816  1.0000
  C   C35       1.0  0.7774900761934518  0.36293626709566223  0.7882517131455273  1.0000
  C   C36       1.0  0.8661855061791855  0.3593489819465886  0.759620453855163  1.0000
  C   C37       1.0  0.8497218326909746  0.3361466183574962  0.7110675232967765  1.0000
  C   C38       1.0  0.7936032776899679  0.3883660373312237  0.8380704017251972  1.0000
  C   C39       1.0  0.7067193975155419  0.3944973790677935  0.865051507233616  1.0000
  C   C40       1.0  0.5987647788343651  0.2211370364529301  0.5628814657122801  1.0000
  C   C41       1.0  0.5350415503020259  0.28254055746390344  0.6399770494689035  1.0000
  C   C42       1.0  0.5492078886355644  0.303197785225457  0.6908485538390465  1.0000
  C   C43       1.0  0.6542251449090416  0.32020806318693223  0.7142567960116395  1.0000
  C   C44       1.0  0.46053911582966833  0.30528193515900875  0.7199218322572634  1.0000
  C   C45       1.0  0.5921151033402411  0.36492254072726377  0.2573176793974312  1.0000
  C   C46       1.0  0.47505907274683074  0.3244805741348316  0.7688184854781069  1.0000
  C   C47       1.0  0.5812042086703998  0.3460373267114036  0.7930543322576539  1.0000
  C   C48       1.0  0.6706572209163325  0.3427216662760839  0.7650618119927229  1.0000
  C   C49       1.0  0.6007783582577632  0.3721176299518376  0.8428235349975068  1.0000
  C   C50       1.0  0.6196407500234217  0.2683405244006778  0.6135257496665217  1.0000
  C   C51       1.0  0.23114378738147684  0.9542088535879074  0.6428213940945398  1.0000
  C   C52       1.0  0.300725562561702  0.896362495740803  0.5681134929349412  1.0000
  C   C53       1.0  0.19801498744517693  0.9367189732022253  0.6912717180828879  1.0000
  C   C54       1.0  0.13224250013306  0.8984414800721294  0.7897157978428595  1.0000
  C   C55       1.0  0.13760402089515372  0.9982994401904646  0.7639759406336137  1.0000
  C   C56       1.0  0.6619982673077233  0.3203040990177968  0.2904635107237752  1.0000
  C   C57       1.0  0.16866774180510194  0.01667649176440018  0.7167758406740532  1.0000
  C   C58       1.0  0.09723700129752189  0.8779924043773519  0.8375360691049707  1.0000
  C   C59       1.0  0.0881532570501378  0.7782657139742213  0.8622122932197342  1.0000
  C   C60       1.0  0.252442310326849  0.7749890796423243  0.6424594577950345  1.0000
  C   C61       1.0  0.22125205993775413  0.7554140284370023  0.6911537406304404  1.0000
  C   C62       1.0  0.19349254161448934  0.8364093201977241  0.7162317810487977  1.0000
  C   C63       1.0  0.21931241811937954  0.6582841498789379  0.7170616563419471  1.0000
  C   C64       1.0  0.7811130578904154  0.41892892963815576  0.2673322183349924  1.0000
  C   C65       1.0  0.19070270314229992  0.6374120266883168  0.764850996464709  1.0000
  C   C66       1.0  0.1568879851597842  0.7155373371946896  0.7903642130661409  1.0000
  C   C67       1.0  0.5788656079257422  0.2722002607401065  0.21676625045297726  1.0000
  C   C68       1.0  0.16105726186380306  0.8161667230309888  0.7655967091022546  1.0000
  C   C69       1.0  0.11806107402170342  0.6971571781253159  0.8389453046284173  1.0000
  C   C70       1.0  0.2582178684810543  0.8740184429789083  0.6185999343210541  1.0000
  C   C71       1.0  0.5601114254553751  0.7696563435383512  0.6361749537219196  1.0000
  C   C72       1.0  0.5685984920709757  0.7465661041076003  0.6849640029791428  1.0000
  C   C73       1.0  0.5872132836942613  0.7052669047431407  0.7848435738510346  1.0000
  C   C74       1.0  0.4969745805333261  0.6138859130150607  0.7539899746335621  1.0000
  C   C75       1.0  0.48796708677913614  0.6333640699885451  0.706189012705316  1.0000
  C   C76       1.0  0.7676835067442626  0.3259558207695791  0.22674392023868958  1.0000
  C   C77       1.0  0.5988994788927685  0.6847048026701542  0.8336989485208973  1.0000
  C   C78       1.0  0.6491227508072798  0.22759533739239401  0.2483770317519358  1.0000
  C   C79       1.0  0.6899304921299461  0.7746553756001971  0.8624284140717009  1.0000
  C   C80       1.0  0.7306445972535727  0.972016515844267  0.6457748791766845  1.0000
  C   C81       1.0  0.7419284262821366  0.9527523081813102  0.694843860030005  1.0000
  C   C82       1.0  0.6596762349004665  0.8392409175156814  0.714947807881707  1.0000
  C   C83       1.0  0.8318369520926296  0.04401880006020787  0.7257930261957526  1.0000
  C   C84       1.0  0.8420005688959192  0.027338814372562595  0.7740026541470825  1.0000
  C   C85       1.0  0.7601857651521016  0.9122762254940396  0.7947456804496369  1.0000
  C   C86       1.0  0.6690504110803701  0.8193384518777479  0.7647669098678448  1.0000
  C   C87       1.0  0.7686921126035314  0.8875353995693868  0.8433096399381057  1.0000
  C   C88       1.0  0.7186999416534477  0.4131538124260317  0.10029923379683228  1.0000
  C   C89       1.0  0.7111535087170114  0.3946007449985062  0.1436045353802768  1.0000
  C   C90       1.0  0.6400268605826298  0.881782102177141  0.6168623207624859  1.0000
  C   C91       1.0  0.04866564920859421  0.7616513197970178  0.051324204548976085  1.0000
  C   C92       1.0  0.7356960095191596  0.4550076882785559  0.0515880915962228  1.0000
  C   C93       1.0  0.7199745508089278  0.7604598438872755  0.0502456222554102  1.0000
  C   C94       1.0  0.0400737730074283  0.7583012729305311  0.9112226721694794  1.0000
  C   C95       1.0  0.7326875707270801  0.4391211763047025  0.9159796385482366  1.0000
  C   C96       1.0  0.7124695964974496  0.7493226975865355  0.9124451126697081  1.0000
  C   C97       1.0  0.2009078823710198  0.5367774854928342  0.7884467953142291  1.0000
  C   C98       1.0  0.9351529369215471  0.12659796344566843  0.8056020342997527  1.0000
  C   C99       1.0  0.35077573859888384  0.021236816344732314  0.2723255896615058  1.0000
  O   O1        1.0  0.305812555135752  0.8183935374257345  0.44502947701400325  1.0000
  O   O2        1.0  0.6585808284639328  0.47837959571474187  0.033708037208001  1.0000
  O   O3        1.0  0.6422477423144956  0.6675315302872065  0.025331936034170596  1.0000
  O   O4        1.0  0.5170347182427619  0.8277590066437593  0.4401218400395877  1.0000
  O   O5        1.0  0.8036339095940832  0.8297561457497195  0.9347283313439618  1.0000
  O   O6        1.0  0.009815482550216395  0.8304305124031046  0.9284272456408685  1.0000
  O   O7        1.0  0.027957844473434103  0.6630056674151135  0.9344249930917741  1.0000
  O   O8        1.0  0.8341537717989739  0.4670014953939656  0.9342320181728566  1.0000
  O   O9        1.0  0.6564205692687111  0.45528698314796395  0.938312247291627  1.0000
  O   O10       1.0  0.6400875424318572  0.6439636812514706  0.9294245479521167  1.0000
  O   O11       1.0  0.8396237852724726  0.6696488508480415  0.9825062733838976  1.0000
  O   O12       1.0  0.676303554995613  0.1995165281550015  0.5446633280889088  1.0000
  O   O13       1.0  0.6950828407511125  0.998812263222696  0.4530369973053041  1.0000
  O   O14       1.0  0.6761183758264127  0.18840267436264208  0.4492794661093598  1.0000
  O   O15       1.0  0.4966136366524196  0.17647719919715135  0.4452211523754527  1.0000
  O   O16       1.0  0.2932013549484934  0.9904416708159897  0.45270423546512717  1.0000
  O   O17       1.0  0.32323768553809634  0.8200423295573956  0.5484441688140079  1.0000
  O   O18       1.0  0.5303838863419726  0.8263505685960126  0.5434927346120304  1.0000
  O   O19       1.0  0.6941412197088256  0.011753050206280445  0.5494247990694205  1.0000
  O   O20       1.0  0.526119956136796  0.9121885704263378  0.2629289953133949  1.0000
  O   O21       1.0  0.4401817087808908  0.2746625047958275  0.6162620045155904  1.0000
  O   O22       1.0  0.10799062484277751  0.600090987429695  0.862527214221835  1.0000
  O   O23       1.0  0.5026883682830956  0.1966093659707794  0.5408040765915416  1.0000
  O   O24       1.0  0.3155791701954769  0.9943188562862771  0.5483136821627781  1.0000
  O   O25       1.0  0.4949039535042347  0.9879781660493734  0.4963607376661372  1.0000
  O   O26       1.0  0.8228769267462327  0.8352362420591178  0.037319713785230094  1.0000
  O   O27       1.0  0.029995025588590393  0.8406119553672794  0.032472945473905696  1.0000
  O   O28       1.0  0.029371294214925604  0.6610960910261171  0.0307469807214034  1.0000
  O   O29       1.0  0.8286495825291239  0.4712269397392601  0.030508945921212696  1.0000
  O   O30       1.0  0.34332943067597205  0.6557512868930927  0.49457673352183207  1.0000
  O   O31       1.0  0.9947446429442409  0.001978474187218613  0.9801621872592674  1.0000
