data_image0
_chemical_formula_structural       Cu4H48C76N4O16
_chemical_formula_sum              "Cu4 H48 C76 N4 O16"
_cell_length_a       13.95119633038263
_cell_length_b       15.22293073102771
_cell_length_c       15.193189616282924
_cell_angle_alpha    81.85581937499326
_cell_angle_beta     86.65736774194995
_cell_angle_gamma    87.22144460446225

_space_group_name_H-M_alt    "P 1"
_space_group_IT_number       1

loop_
  _space_group_symop_operation_xyz
  'x, y, z'

loop_
  _atom_site_type_symbol
  _atom_site_label
  _atom_site_symmetry_multiplicity
  _atom_site_fract_x
  _atom_site_fract_y
  _atom_site_fract_z
  _atom_site_occupancy
  Cu  Cu1       1.0  0.7982706399360427  0.16519505244026086  0.37808804958908127  1.0000
  Cu  Cu2       1.0  0.6148376749791069  0.17058443494545372  0.3869524575262415  1.0000
  Cu  Cu3       1.0  0.2017291606436659  0.834804704245265  0.6219120721535843  1.0000
  Cu  Cu4       1.0  0.38516212560060137  0.8294153217400724  0.613047664216431  1.0000
  H   H1        1.0  0.860927755182388  0.1574938105448638  0.6513837432271146  1.0000
  H   H2        1.0  0.8619207810561208  0.16314756831682337  0.8141805832168457  1.0000
  H   H3        1.0  0.5536660628710024  0.14578726692005256  0.8347122476329574  1.0000
  H   H4        1.0  0.5539022122529857  0.14080441748303948  0.6724908809490415  1.0000
  H   H5        1.0  0.8407447386647039  0.08450257796330624  0.9524004704436136  1.0000
  H   H6        1.0  0.8433260321363394  0.09955037069561713  0.11326182585008127  1.0000
  H   H7        1.0  0.5769894044415694  0.25292976520066196  0.09734683805307748  1.0000
  H   H8        1.0  0.5766170130725217  0.24353715280035718  0.9350358847966188  1.0000
  H   H9        1.0  0.5558814562130224  0.8956600763577147  0.40717931814275926  1.0000
  H   H10       1.0  0.5527610370274019  0.7339705536729684  0.4055653530422773  1.0000
  H   H11       1.0  0.8625454976891049  0.7207343164215702  0.3751017249995384  1.0000
  H   H12       1.0  0.8638998255690994  0.8840252005132356  0.3727822861659432  1.0000
  H   H13       1.0  0.5817214193518365  0.59915258162782  0.47925617898119544  1.0000
  H   H14       1.0  0.576564486372078  0.4372298221305187  0.4721602930611439  1.0000
  H   H15       1.0  0.8283841916944896  0.4508415382226688  0.29525689682749595  1.0000
  H   H16       1.0  0.8302669405646201  0.6138339614290873  0.29631053938146573  1.0000
  H   H17       1.0  0.447569342155994  0.30838858048727513  0.37089841688953123  1.0000
  H   H18       1.0  0.26823968727401143  0.3156960411514192  0.3638409418103237  1.0000
  H   H19       1.0  0.2819359612706194  0.029358396680628108  0.3826705176822003  1.0000
  H   H20       1.0  0.4598054672354551  0.03460012260291731  0.3901636125354527  1.0000
  H   H21       1.0  0.13739211379844113  0.28333801574343204  0.2666681137347168  1.0000
  H   H22       1.0  0.9578473679753261  0.2753697227373734  0.272177785451575  1.0000
  H   H23       1.0  0.9610306060790422  0.06469306245100631  0.47532711955587087  1.0000
  H   H24       1.0  0.1408128781029205  0.05985482266769542  0.47723592055777425  1.0000
  H   H25       1.0  0.1390712943832639  0.8425066082543469  0.34861698140019814  1.0000
  H   H26       1.0  0.13807826850953123  0.8368528504823874  0.185820141410467  1.0000
  H   H27       1.0  0.44633373432184  0.8542124880991087  0.16528853270749974  1.0000
  H   H28       1.0  0.4460976145855753  0.8591946733918618  0.32750999042441714  1.0000
  H   H29       1.0  0.15925506191500463  0.9154971787222125  0.04759965129905199  1.0000
  H   H30       1.0  0.15667373541077015  0.9004500484678108  0.8867388634573671  1.0000
  H   H31       1.0  0.42301036310554  0.747070653962766  0.9026538512543706  1.0000
  H   H32       1.0  0.42338353174749715  0.7564619384387684  0.06496495125698226  1.0000
  H   H33       1.0  0.4441198133621925  0.1043390185783437  0.5928201653954019  1.0000
  H   H34       1.0  0.4472401698694953  0.26602986788525845  0.594434607027665  1.0000
  H   H35       1.0  0.13745355187654704  0.2792661023776333  0.6248989996277813  1.0000
  H   H36       1.0  0.13610063370061454  0.11597588482503342  0.6272176181908546  1.0000
  H   H37       1.0  0.4182783287101657  0.4008485066789477  0.5207424434998913  1.0000
  H   H38       1.0  0.4234352811750313  0.5627705970329089  0.5278403962463043  1.0000
  H   H39       1.0  0.17161775266897195  0.5491582145564422  0.7047450947489367  1.0000
  H   H40       1.0  0.16973426971915023  0.3861664617954973  0.7036887620906852  1.0000
  H   H41       1.0  0.5524290419459066  0.6916105063264695  0.6291038423192319  1.0000
  H   H42       1.0  0.7317593885505006  0.6843037118371671  0.6361605324477749  1.0000
  H   H43       1.0  0.7180638426959618  0.9706413616712484  0.6173289454626811  1.0000
  H   H44       1.0  0.5401936153627958  0.9653996337183842  0.6098365445270773  1.0000
  H   H45       1.0  0.8626084081495975  0.7166617429726686  0.7333313140903072  1.0000
  H   H46       1.0  0.04215237669980349  0.7246313639030365  0.727821495627303  1.0000
  H   H47       1.0  0.03896777208523622  0.935306700171502  0.5246704384353791  1.0000
  H   H48       1.0  0.8591855161595988  0.9401442691451154  0.5227643628576287  1.0000
  C   C1        1.0  0.706715109131487  0.15174065561217998  0.5530161254721833  1.0000
  C   C2        1.0  0.7073413689587653  0.149485944023148  0.6515974794042094  1.0000
  C   C3        1.0  0.7941477853465457  0.15430899299769862  0.6924650925073832  1.0000
  C   C4        1.0  0.7942302790631717  0.1571661986958547  0.7834705787810705  1.0000
  C   C5        1.0  0.7078104390231986  0.1560111565513864  0.8362220020870266  1.0000
  C   C6        1.0  0.6213252693828011  0.14928794440697862  0.7948811821016547  1.0000
  C   C7        1.0  0.621134271573354  0.14577791661460543  0.7039317882200746  1.0000
  C   C8        1.0  0.7083927004349209  0.16292417821838975  0.9320715578370408  1.0000
  C   C9        1.0  0.7837803475173576  0.12322292266053131  0.9833430577566062  1.0000
  C   C10       1.0  0.7852218827851587  0.1306355965427315  0.07338050997584128  1.0000
  C   C11       1.0  0.7103425695691854  0.17688020951013078  0.11500241502415778  1.0000
  C   C12       1.0  0.6347087700520576  0.21660876369978158  0.06471334017629  1.0000
  C   C13       1.0  0.6342472869309649  0.2102352139754729  0.9742671465324904  1.0000
  C   C14       1.0  0.7104856233684135  0.18056424019405887  0.2127508521701599  1.0000
  C   C15       1.0  0.7104188510106867  0.9984590245032623  0.38776081899811027  1.0000
  C   C16       1.0  0.7099177002168632  0.9004340655037028  0.38834752147464957  1.0000
  C   C17       1.0  0.6227556144913536  0.8572267506716643  0.3984033637981241  1.0000
  C   C18       1.0  0.6215735624537048  0.7659987987166873  0.3987279162686476  1.0000
  C   C19       1.0  0.7075455545999745  0.7151749492087449  0.3890425026545401  1.0000
  C   C20       1.0  0.794819140129505  0.7590526602650202  0.38012063062494406  1.0000
  C   C21       1.0  0.7961397213360544  0.8504098656558058  0.379638317026206  1.0000
  C   C22       1.0  0.7059872576824375  0.6185604014885513  0.38780104594236775  1.0000
  C   C23       1.0  0.6346165505383825  0.5673282256836674  0.4370114224694958  1.0000
  C   C24       1.0  0.6318326676235628  0.47661656536122626  0.43377532139126623  1.0000
  C   C25       1.0  0.7017305354862348  0.4341730751594143  0.3826737255769928  1.0000
  C   C26       1.0  0.7741155201708595  0.48426589820593363  0.3346898147769507  1.0000
  C   C27       1.0  0.7755234226007561  0.5752070876067139  0.33647927828704377  1.0000
  C   C28       1.0  0.7009696277303167  0.3364840577053132  0.3800716549941824  1.0000
  C   C29       1.0  0.4073763253473146  0.24829028753857335  0.3728566821149783  1.0000
  C   C30       1.0  0.30796711274906846  0.25190265517520777  0.36806222258079657  1.0000
  C   C31       1.0  0.25982267563835393  0.17250038530761463  0.37262875781250665  1.0000
  C   C32       1.0  0.31538244872746896  0.09284153168443512  0.3804189234050951  1.0000
  C   C33       1.0  0.4144633104667791  0.09532319343468033  0.3841695708250369  1.0000
  C   C34       1.0  0.15420445409877462  0.17173150135299414  0.37162379447487837  1.0000
  C   C35       1.0  0.10128963225484004  0.2335550874521531  0.3141699610161338  1.0000
  C   C36       1.0  0.0016568942910737006  0.22938643173553436  0.31662226276610983  1.0000
  C   C37       1.0  0.003679290372680602  0.11069748939655  0.4291869191603865  1.0000
  C   C38       1.0  0.10334440737639032  0.10841327102905753  0.4299630015726804  1.0000
  C   C39       1.0  0.29328472109394715  0.8482584369290794  0.4469840873034911  1.0000
  C   C40       1.0  0.2926577136394855  0.8505138122981536  0.3484026776583277  1.0000
  C   C41       1.0  0.20585273660148568  0.8456907657184021  0.3075343353176335  1.0000
  C   C42       1.0  0.20576948848393786  0.8428342204675732  0.21653011052637788  1.0000
  C   C43       1.0  0.29218867322077813  0.8439879356256486  0.16377824600850482  1.0000
  C   C44       1.0  0.378674560842633  0.8507111481342804  0.20511903067401963  1.0000
  C   C45       1.0  0.37886624360093896  0.8542218387687798  0.2960689568005178  1.0000
  C   C46       1.0  0.2916070967579146  0.8370755768007786  0.06792922250341599  1.0000
  C   C47       1.0  0.2162209186709916  0.8767761706091692  0.016657084379339365  1.0000
  C   C48       1.0  0.2147771633936202  0.8693648205901214  0.9266208732492627  1.0000
  C   C49       1.0  0.28965726404311454  0.8231188846974861  0.8849971391537322  1.0000
  C   C50       1.0  0.3652910271407778  0.7833909913193865  0.9352874401641671  1.0000
  C   C51       1.0  0.3657525466813425  0.789763880232144  0.025732407645399708  1.0000
  C   C52       1.0  0.2895134592298376  0.8194355161272429  0.787249304892377  1.0000
  C   C53       1.0  0.2895801985549725  0.001541394295941201  0.6122399056292023  1.0000
  C   C54       1.0  0.2900834702605621  0.09956701686607523  0.6116536647578599  1.0000
  C   C55       1.0  0.3772441234100372  0.14277433263602998  0.6015972344763227  1.0000
  C   C56       1.0  0.37842767747579137  0.2340009603636375  0.6012714762365049  1.0000
  C   C57       1.0  0.29245425275347975  0.2848248108094964  0.6109563018925569  1.0000
  C   C58       1.0  0.20518278813572272  0.24094776332378845  0.6198786355273425  1.0000
  C   C59       1.0  0.2038607641925125  0.14959055387183895  0.620362336961385  1.0000
  C   C60       1.0  0.29401464432393704  0.38144068791088165  0.612197470579133  1.0000
  C   C61       1.0  0.3653832237824731  0.432672196812476  0.562987949642384  1.0000
  C   C62       1.0  0.36816922760906595  0.5233845207054914  0.5662245123258031  1.0000
  C   C63       1.0  0.2982692549328548  0.5658266765270314  0.6173283719590328  1.0000
  C   C64       1.0  0.22588571637176363  0.5157338592080265  0.6653102363259932  1.0000
  C   C65       1.0  0.22447704005583094  0.4247939993979134  0.6635199674719698  1.0000
  C   C66       1.0  0.2990329490642977  0.6635176895371662  0.6199293695655896  1.0000
  C   C67       1.0  0.5926226945726186  0.7517107954049039  0.6271439514793328  1.0000
  C   C68       1.0  0.6920319961080424  0.7480964353354694  0.6319386841125265  1.0000
  C   C69       1.0  0.7401771545870802  0.8274987072336446  0.6273714549631676  1.0000
  C   C70       1.0  0.6846173518522395  0.9071582250010837  0.6195811983375704  1.0000
  C   C71       1.0  0.5855357687445988  0.9046765612202635  0.6158312448352843  1.0000
  C   C72       1.0  0.8457946649189411  0.8282675941567633  0.6283751364250918  1.0000
  C   C73       1.0  0.8987109159520515  0.7664440054533304  0.6858302164396759  1.0000
  C   C74       1.0  0.9983443752841484  0.7706126632005239  0.6833772207720513  1.0000
  C   C75       1.0  0.9963211722839064  0.889303597608077  0.5708123265986274  1.0000
  C   C76       1.0  0.8966539275946772  0.8915871490722866  0.5700370997767122  1.0000
  N   N1        1.0  0.46003664268827293  0.17156891615989883  0.3811489772530123  1.0000
  N   N2        1.0  0.9533549182194537  0.16932891080035972  0.37337543285716623  1.0000
  N   N3        1.0  0.5399631545045624  0.8284308388592694  0.6188518030874446  1.0000
  N   N4        1.0  0.046644928940338594  0.830670190072688  0.6266214869295793  1.0000
  O   O1        1.0  0.7864761547229336  0.1669867377767319  0.5090178302150079  1.0000
  O   O2        1.0  0.6270986967266979  0.1393116487507413  0.5200762957380007  1.0000
  O   O3        1.0  0.790309279241605  0.15975296151861335  0.2494749744790424  1.0000
  O   O4        1.0  0.6317385396258005  0.20204917359221503  0.2524371736547195  1.0000
  O   O5        1.0  0.6309392543176103  0.04207177586812353  0.3738679968619535  1.0000
  O   O6        1.0  0.7898657222920846  0.0315788467601834  0.40118926080045  1.0000
  O   O7        1.0  0.6216546419461366  0.2982708254881743  0.40206902123694727  1.0000
  O   O8        1.0  0.7798747811263385  0.29856911009922993  0.35663195821396687  1.0000
  O   O9        1.0  0.21352364585677458  0.8330130189087942  0.4909822915276648  1.0000
  O   O10       1.0  0.3729011038530103  0.8606881079347775  0.479923826004665  1.0000
  O   O11       1.0  0.2096897965829073  0.840246791469973  0.7505264997790559  1.0000
  O   O12       1.0  0.3682605099398587  0.7979512452069956  0.7475635509725933  1.0000
  O   O13       1.0  0.36906126424355534  0.9579279811816197  0.6261320895608546  1.0000
  O   O14       1.0  0.21013473697762924  0.9684222385780861  0.5988106435563479  1.0000
  O   O15       1.0  0.37834587322815594  0.7017289298952107  0.5979317237836455  1.0000
  O   O16       1.0  0.2201271666239961  0.7014306443462388  0.6433693747646884  1.0000
