data_image0
_chemical_formula_structural       Zn2H40C54N2O16
_chemical_formula_sum              "Zn2 H40 C54 N2 O16"
_cell_length_a       13.961497541316637
_cell_length_b       15.004011174292172
_cell_length_c       15.145591684675303
_cell_angle_alpha    89.37399142141825
_cell_angle_beta     89.23027637224409
_cell_angle_gamma    91.38684994493215

_space_group_name_H-M_alt    "P 1"
_space_group_IT_number       1

loop_
  _space_group_symop_operation_xyz
  'x, y, z'

loop_
  _atom_site_type_symbol
  _atom_site_label
  _atom_site_symmetry_multiplicity
  _atom_site_fract_x
  _atom_site_fract_y
  _atom_site_fract_z
  _atom_site_occupancy
  Zn  Zn1       1.0  0.600914573597187  0.4960838386094153  0.49964798587620146  1.0000
  Zn  Zn2       1.0  0.3962011764041479  0.4968274371869725  0.504721424455731  1.0000
  H   H1        1.0  0.39070574865087343  0.233384446844596  0.41937253073284353  1.0000
  H   H2        1.0  0.6292803953311364  0.764208660732713  0.5272499733650663  1.0000
  H   H3        1.0  0.7127975730281406  0.902903914086714  0.5805764138811753  1.0000
  H   H4        1.0  0.3378379229370054  0.1018709253339338  0.3303827179849605  1.0000
  H   H5        1.0  0.6606153694526216  0.5426995675625577  0.9433828618751079  1.0000
  H   H6        1.0  0.3702707418539292  0.5430848525250838  0.0660867788008233  1.0000
  H   H7        1.0  0.6513951798787119  0.43073137653946963  0.0583183229988364  1.0000
  H   H8        1.0  0.36403666441043475  0.4569472054301259  0.9407334370173857  1.0000
  H   H9        1.0  0.659350528930844  0.5595748422802843  0.7794411835769708  1.0000
  H   H10       1.0  0.36629076191081117  0.5261339756420611  0.2300782459068955  1.0000
  H   H11       1.0  0.6471609208733187  0.41645613333206905  0.2225207388036381  1.0000
  H   H12       1.0  0.36334985873229914  0.4767632182697455  0.7770526454805022  1.0000
  H   H13       1.0  0.24991820133435994  0.6337384251909198  0.495684708941674  1.0000
  H   H14       1.0  0.7513038656782032  0.48168565589134715  0.3621419485793638  1.0000
  H   H15       1.0  0.24317486310734893  0.3579834146711036  0.5069072882254133  1.0000
  H   H16       1.0  0.7488042539871743  0.5073593724992662  0.6336714431126182  1.0000
  H   H17       1.0  0.6348050263543357  0.1506476341812544  0.6943050055922272  1.0000
  H   H18       1.0  0.2914561269987458  0.8090902271291682  0.35209528053356814  1.0000
  H   H19       1.0  0.7489022102273637  0.14586944919843597  0.5983346096724558  1.0000
  H   H20       1.0  0.36457822965918046  0.8822843878638835  0.2361090712600671  1.0000
  H   H21       1.0  0.15490565588034855  0.734634164906332  0.42632465285701227  1.0000
  H   H22       1.0  0.14598378324848937  0.7454935635156231  0.5435899379396004  1.0000
  H   H23       1.0  0.980678297247387  0.8084323150049287  0.5271884380012964  1.0000
  H   H24       1.0  0.06808423587677481  0.8735320704311106  0.4669486865883171  1.0000
  H   H25       1.0  0.9909073312088881  0.7980769118918475  0.41027488913680094  1.0000
  H   H26       1.0  0.9831342548771929  0.6095088510930965  0.32168232335827446  1.0000
  H   H27       1.0  0.8784014344109254  0.5736467812267277  0.2640362821426763  1.0000
  H   H28       1.0  0.9794339938873339  0.4767606446761406  0.16727588236785348  1.0000
  H   H29       1.0  0.021905937149604402  0.589772685244199  0.16113743748987017  1.0000
  H   H30       1.0  0.0836427787787173  0.5104794496432348  0.22614477066476718  1.0000
  H   H31       1.0  0.0087875066152492  0.3306483776994327  0.627550515608185  1.0000
  H   H32       1.0  0.11021065043986772  0.26530176367888453  0.6004169408352098  1.0000
  H   H33       1.0  0.004840199794728101  0.16369063244108867  0.5100095517902901  1.0000
  H   H34       1.0  0.9598265059770555  0.16784078599430793  0.6204299264656046  1.0000
  H   H35       1.0  0.9044648727543747  0.2302553255066471  0.5350687623175078  1.0000
  H   H36       1.0  0.8439696233850996  0.45203829351230235  0.7411088041590191  1.0000
  H   H37       1.0  0.8561205753191745  0.5709214256119494  0.7376926335079617  1.0000
  H   H38       1.0  0.022325000527764906  0.5601408936619164  0.8008346091417167  1.0000
  H   H39       1.0  0.9344021795057105  0.5086822193214786  0.872331455303886  1.0000
  H   H40       1.0  0.008766407140008401  0.44173602929506467  0.8050171544340756  1.0000
  C   C1        1.0  0.508937463610316  0.5253391242487524  0.6698029418928827  1.0000
  C   C2        1.0  0.5052650722361492  0.4657888622000215  0.3344620371685068  1.0000
  C   C3        1.0  0.6527573888409394  0.9413053346449728  0.5565955697656548  1.0000
  C   C4        1.0  0.3842244648968319  0.059829107403096805  0.3696650685068263  1.0000
  C   C5        1.0  0.595552232137493  0.5269517758948297  0.9069568835906027  1.0000
  C   C6        1.0  0.43028079700120975  0.5133892566891943  0.10003152014270002  1.0000
  C   C7        1.0  0.5891668125361562  0.45271384716011204  0.0957987591026281  1.0000
  C   C8        1.0  0.4284515210995822  0.48119426601093096  0.9057044838567023  1.0000
  C   C9        1.0  0.5949200530357858  0.5371118493562861  0.8154759180614094  1.0000
  C   C10       1.0  0.42752079260927917  0.5042160599221576  0.19141370615727737  1.0000
  C   C11       1.0  0.586767435351405  0.4438449284969436  0.1873207131998811  1.0000
  C   C12       1.0  0.42770929355605597  0.4915699085109111  0.8145428123607629  1.0000
  C   C13       1.0  0.5109725913789448  0.5194205947554521  0.7683515698505943  1.0000
  C   C14       1.0  0.5060342907403879  0.46968916579963604  0.2358591644420258  1.0000
  C   C15       1.0  0.5122604177565862  0.4986992339852989  0.9536822599732346  1.0000
  C   C16       1.0  0.5110237523539355  0.48805013435251965  0.050622506357832706  1.0000
  C   C17       1.0  0.10422177589044421  0.5759524531830422  0.4943046948248693  1.0000
  C   C18       1.0  0.894632093995867  0.48712893310650424  0.4184815178739357  1.0000
  C   C19       1.0  0.10121418349055493  0.41525466136041433  0.4998630648783474  1.0000
  C   C20       1.0  0.8939266870882395  0.5000517677204428  0.5770512765023241  1.0000
  C   C21       1.0  0.20416396469094175  0.5740124503626092  0.4976135149400634  1.0000
  C   C22       1.0  0.7945590339727249  0.48825977505077844  0.42124311950979637  1.0000
  C   C23       1.0  0.20118913873256622  0.41821425597832734  0.5036459901599102  1.0000
  C   C24       1.0  0.793950618061132  0.5015039184832304  0.5749736055399737  1.0000
  C   C25       1.0  0.05141032142685731  0.49481022529968743  0.49672097125107223  1.0000
  C   C26       1.0  0.9455939031440793  0.4940052503419209  0.4969103876268903  1.0000
  C   C27       1.0  0.4959659211217514  0.6652397634736715  0.4583829027670845  1.0000
  C   C28       1.0  0.4889493881106831  0.32592643522984593  0.5343621714411526  1.0000
  C   C29       1.0  0.4386673762259862  0.19025623407468117  0.4555732225156035  1.0000
  C   C30       1.0  0.5780458548470192  0.8060152586987999  0.4935865748549233  1.0000
  C   C31       1.0  0.4930563118382239  0.22635956055720644  0.5229896685181005  1.0000
  C   C32       1.0  0.5054684783628289  0.7650006800554292  0.44544121704352335  1.0000
  C   C33       1.0  0.5558792420762232  0.1719254459413335  0.5712291793266006  1.0000
  C   C34       1.0  0.4399112475723683  0.8169094283426118  0.3981068379997126  1.0000
  C   C35       1.0  0.5738324673842002  0.08419481529265481  0.5421058867755449  1.0000
  C   C36       1.0  0.4462498088932635  0.9116510560789521  0.4014421649857597  1.0000
  C   C37       1.0  0.5111498726964215  0.0451058397707769  0.4783954120351694  1.0000
  C   C38       1.0  0.5132470874009485  0.9522708927173297  0.46048465531301025  1.0000
  C   C39       1.0  0.44278085940213435  0.09909912119562139  0.43528937399732825  1.0000
  C   C40       1.0  0.5814716770640801  0.8986594955059957  0.5044872147248256  1.0000
  C   C41       1.0  0.6516097583536649  0.031123406246820202  0.5740140456921381  1.0000
  C   C42       1.0  0.38667524666566083  0.9702539191460248  0.3505460057364047  1.0000
  C   C43       1.0  0.5870137160896222  0.1986228047679148  0.6604952988333467  1.0000
  C   C44       1.0  0.3604996836298326  0.7724681736548648  0.3497985653051003  1.0000
  C   C45       1.0  0.7397516467031978  0.0727769945271604  0.6113951106635724  1.0000
  C   C46       1.0  0.33489402376444843  0.9414244658341316  0.2701011961391658  1.0000
  C   C47       1.0  0.10436671636746553  0.7360026597931081  0.4828779869359535  1.0000
  C   C48       1.0  0.0314084882893439  0.8079947652406291  0.4711857554303834  1.0000
  C   C49       1.0  0.9508873438626397  0.5543290902003192  0.283758974422085  1.0000
  C   C50       1.0  0.012603748117804502  0.5312321741972497  0.20487582563902862  1.0000
  C   C51       1.0  0.0393892489243086  0.28619754485391274  0.5775468349832806  1.0000
  C   C52       1.0  0.9733400993112442  0.20725986257029655  0.5598132791652688  1.0000
  C   C53       1.0  0.8959967223647852  0.5083696832587491  0.7354925168616475  1.0000
  C   C54       1.0  0.9700228894794521  0.5045362290127784  0.8074253201281677  1.0000
  N   N1        1.0  0.24992446058966075  0.49623361125350135  0.5027457703225694  1.0000
  N   N2        1.0  0.7471069616198565  0.4958000170033329  0.49808226419490614  1.0000
  O   O1        1.0  0.5884470680233777  0.5382605297640026  0.6281147602300192  1.0000
  O   O2        1.0  0.42539113885822394  0.4775696204108684  0.3738871456762994  1.0000
  O   O3        1.0  0.5850015464804983  0.4530572799475436  0.3722058895295461  1.0000
  O   O4        1.0  0.42747143002858945  0.5153135142498684  0.634121536097048  1.0000
  O   O5        1.0  0.5731053207354863  0.6229512798707901  0.4504274157463257  1.0000
  O   O6        1.0  0.4069254086806852  0.3598993283084083  0.5277933362086102  1.0000
  O   O7        1.0  0.5691167947219286  0.36671385605941254  0.5399269792232886  1.0000
  O   O8        1.0  0.4144982104225862  0.6346960923173555  0.48314749533182083  1.0000
  O   O9        1.0  0.5577735641660341  0.263025356577181  0.7006722470850946  1.0000
  O   O10       1.0  0.36522726555242013  0.7015676203534796  0.31113447221872553  1.0000
  O   O11       1.0  0.8027213173241706  0.03147278636226499  0.6485319391298532  1.0000
  O   O12       1.0  0.26780780982299046  0.981152334306188  0.23799319553027945  1.0000
  O   O13       1.0  0.05264217611718891  0.6514479097230604  0.4885982343312918  1.0000
  O   O14       1.0  0.9437020854307295  0.4757960939271797  0.3405935148988064  1.0000
  O   O15       1.0  0.05101979966985231  0.3359038591448069  0.4950743746608595  1.0000
  O   O16       1.0  0.9465572701093238  0.5038388493732668  0.651790692332554  1.0000
