data_image0
_chemical_formula_structural       Tl4H12C16S4N8O8
_chemical_formula_sum              "Tl4 H12 C16 S4 N8 O8"
_cell_length_a       4.184110650000882
_cell_length_b       11.204149494987687
_cell_length_c       14.751553534087366
_cell_angle_alpha    101.38611800080035
_cell_angle_beta     89.99994645550034
_cell_angle_gamma    90.00006135199925

_space_group_name_H-M_alt    "P 1"
_space_group_IT_number       1

loop_
  _space_group_symop_operation_xyz
  'x, y, z'

loop_
  _atom_site_type_symbol
  _atom_site_label
  _atom_site_symmetry_multiplicity
  _atom_site_fract_x
  _atom_site_fract_y
  _atom_site_fract_z
  _atom_site_occupancy
  Tl  Tl1       1.0  0.05125280739044769  0.4999994519464011  0.7500002833251214  1.0000
  Tl  Tl2       1.0  0.9487442847032526  0.5000007767800839  0.2500001347846492  1.0000
  Tl  Tl3       1.0  0.5757267741595554  6.381115795986038e-07  0.7500003476784443  1.0000
  Tl  Tl4       1.0  0.4242737165074004  8.618427357998386e-07  0.2500001765036615  1.0000
  H   H1        1.0  0.9817061483075379  0.07634293405251921  0.4510015221954972  1.0000
  H   H2        1.0  0.9817056298940514  0.9236558538238884  0.0489963258634916  1.0000
  H   H3        1.0  0.018293333780313496  0.923657294674406  0.548998895914039  1.0000
  H   H4        1.0  0.018293852197423598  0.07634340227188828  0.9510012468235371  1.0000
  H   H5        1.0  0.3365109751200563  0.4202336507622133  0.44869244567801997  1.0000
  H   H6        1.0  0.3365118885297704  0.5797668009299316  0.0513091786317119  1.0000
  H   H7        1.0  0.6634885069665017  0.5797675194360821  0.5513094575908966  1.0000
  H   H8        1.0  0.6634899835523597  0.4202325019059501  0.9486904344497801  1.0000
  H   H9        1.0  0.5405202513182417  0.25565550552325084  0.6766626702360057  1.0000
  H   H10       1.0  0.5405135006205768  0.7443426348811929  0.8233363158578442  1.0000
  H   H11       1.0  0.4594792307674139  0.7443438284719689  0.323338303108855  1.0000
  H   H12       1.0  0.4594788114859725  0.2556575782645396  0.176663422120825  1.0000
  C   C1        1.0  0.1349386495256368  0.24859554990051447  0.4380300726509105  1.0000
  C   C2        1.0  0.1349423899493374  0.7514038714135085  0.061969425670305625  1.0000
  C   C3        1.0  0.8650608325598838  0.75140470998619  0.5619717057217599  1.0000
  C   C4        1.0  0.8650618721291535  0.24859632615450525  0.9380296321756347  1.0000
  C   C5        1.0  0.45818527996041775  0.3535298873023295  0.5665132434868596  1.0000
  C   C6        1.0  0.45818504464011767  0.6464700437749116  0.9334860084525685  1.0000
  C   C7        1.0  0.5418142021262754  0.6464703570044891  0.4334878547542473  1.0000
  C   C8        1.0  0.5418144374556348  0.35353192767573927  0.06651125879162828  1.0000
  C   C9        1.0  0.4221391737747878  0.2542310347451817  0.6107553904677374  1.0000
  C   C10       1.0  0.4221298071366562  0.7457670625944745  0.8892436187083843  1.0000
  C   C11       1.0  0.5778674782909973  0.7457683304111309  0.38924694313956104  1.0000
  C   C12       1.0  0.5778720649467673  0.25423129877003  0.11075450921373431  1.0000
  C   C13       1.0  0.2457001758652594  0.15112498839874894  0.5688581216075406  1.0000
  C   C14       1.0  0.24569333795355425  0.8488729980172494  0.9311388815758262  1.0000
  C   C15       1.0  0.754304086210901  0.8488752403290437  0.4311422965015339  1.0000
  C   C16       1.0  0.7543037541446793  0.1511280942811624  0.06885962103549298  1.0000
  S   S1        1.0  0.96252688015133  0.24278428685883577  0.3334439820409471  1.0000
  S   S2        1.0  0.9625302718403503  0.7572172717157456  0.1665562848406807  1.0000
  S   S3        1.0  0.0374726019362797  0.7572177936510516  0.6665580461242087  1.0000
  S   S4        1.0  0.03747638023125429  0.24278201554110984  0.8334426481087788  1.0000
  N   N1        1.0  0.10939657387358889  0.15412110586050431  0.4825273387283673  1.0000
  N   N2        1.0  0.1093911705435175  0.8458782905803516  0.017471484442381766  1.0000
  N   N3        1.0  0.8906052982060899  0.8458791540266405  0.5174744396440757  1.0000
  N   N4        1.0  0.8906083115456268  0.1541209966752035  0.9825274485077811  1.0000
  N   N5        1.0  0.3068294786719078  0.34579220642732633  0.4809146041158172  1.0000
  N   N6        1.0  0.3068283201496271  0.6542091136187979  0.01908579061454671  1.0000
  N   N7        1.0  0.6931723934077709  0.6542080534598114  0.5190871742566188  1.0000
  N   N8        1.0  0.6931759419288639  0.3457910839492158  0.9809132672313936  1.0000
  O   O1        1.0  0.6116660038449097  0.4512224535461869  0.5984836703458071  1.0000
  O   O2        1.0  0.6116727801057706  0.5487775956846407  0.9015182721934352  1.0000
  O   O3        1.0  0.3883310882454154  0.5487768960284924  0.4015179831308514  1.0000
  O   O4        1.0  0.3883290919784414  0.45122352777441677  0.09848159068054937  1.0000
  O   O5        1.0  0.1988919514511167  0.055928340924346294  0.6017541349214495  1.0000
  O   O6        1.0  0.19888549128835106  0.9440687493121588  0.8982441127554565  1.0000
  O   O7        1.0  0.801107530637907  0.9440718722226864  0.3982456030565231  1.0000
  O   O8        1.0  0.8011092108104022  0.05592871731934681  0.1017545704026759  1.0000
