data_image0
_chemical_formula_structural       Na4H8C8N16O4F12
_chemical_formula_sum              "Na4 H8 C8 N16 O4 F12"
_cell_length_a       7.173084827386878
_cell_length_b       9.463647458734252
_cell_length_c       10.116328272866303
_cell_angle_alpha    102.23534984314827
_cell_angle_beta     110.75646720610432
_cell_angle_gamma    90.01023964868533

_space_group_name_H-M_alt    "P 1"
_space_group_IT_number       1

loop_
  _space_group_symop_operation_xyz
  'x, y, z'

loop_
  _atom_site_type_symbol
  _atom_site_label
  _atom_site_symmetry_multiplicity
  _atom_site_fract_x
  _atom_site_fract_y
  _atom_site_fract_z
  _atom_site_occupancy
  Na  Na1       1.0  0.9999991806593584  0.9999996746969443  0.4999996084343863  1.0000
  Na  Na2       1.0  0.5000008399811691  3.477716887999906e-07  0.5000000814544023  1.0000
  Na  Na3       1.0  0.45116951465934113  0.17303855262370857  0.9025264407894229  1.0000
  Na  Na4       1.0  0.5488305389416865  0.8269611427070201  0.09747274022124233  1.0000
  H   H1        1.0  0.30834657465172194  0.256405029600792  0.6166534941505191  1.0000
  H   H2        1.0  0.6916549653336687  0.743594671008388  0.38334804009440393  1.0000
  H   H3        1.0  0.2233407778973628  0.21867161677182873  0.4466806355201385  1.0000
  H   H4        1.0  0.7766593953943257  0.7813291656589384  0.5533197776001089  1.0000
  H   H5        1.0  0.2910695893730377  0.4441029082693716  0.7931668216489031  1.0000
  H   H6        1.0  0.4979002128978607  0.5559179014186029  0.20682939653053006  1.0000
  H   H7        1.0  0.7089304642279898  0.5558967870613641  0.20683235936176195  1.0000
  H   H8        1.0  0.5020999626847741  0.44408287883232583  0.7931700282357427  1.0000
  C   C1        1.0  0.30536363392204185  0.7161186304049066  0.6109563382958783  1.0000
  C   C2        1.0  0.6946364196789859  0.2838810649258221  0.3890428427147867  1.0000
  C   C3        1.0  0.23369090223738448  0.6110719942527466  0.46738215111508913  1.0000
  C   C4        1.0  0.7663091490726969  0.3889277032578277  0.5326180182495648  1.0000
  C   C5        1.0  0.9671879221345351  0.21489730421568956  0.9347497639591325  1.0000
  C   C6        1.0  0.032809391206235654  0.7851045612977356  0.06525013986414754  1.0000
  C   C7        1.0  0.0415973463641706  0.3100596421382206  0.0833835261440896  1.0000
  C   C8        1.0  0.9584028292184643  0.6899411381127081  0.916615898622176  1.0000
  N   N1        1.0  0.31235162527904237  0.8608128643835965  0.6248117941483996  1.0000
  N   N2        1.0  0.6876469373557228  0.13918683002836468  0.37518701033597784  1.0000
  N   N3        1.0  0.3845768345000735  0.9144379931894308  0.769159846555965  1.0000
  N   N4        1.0  0.6154232168100008  0.08556170432113666  0.23084032280868874  1.0000
  N   N5        1.0  0.41830759237713266  0.806210961988043  0.8366516358538904  1.0000
  N   N6        1.0  0.5816939521901575  0.19378873426145296  0.16334792168305512  1.0000
  N   N7        1.0  0.3694433385908198  0.6785255555895515  0.7390494610697402  1.0000
  N   N8        1.0  0.6305580839948632  0.3214730557397516  0.26094985271161153  1.0000
  N   N9        1.0  0.0855626876091549  0.1674488876113074  0.8603590611429369  1.0000
  N   N10       1.0  0.225526883912984  0.8325892723871391  0.1396829591306741  1.0000
  N   N11       1.0  0.9144359947162711  0.8325518939006926  0.13964097545103019  1.0000
  N   N12       1.0  0.7744701877555189  0.1674104211060552  0.8603154688274162  1.0000
  N   N13       1.0  0.9592738111768568  0.08755364263981849  0.7338643050308562  1.0000
  N   N14       1.0  0.22562181907513684  0.9124711636654081  0.2661651353325993  1.0000
  N   N15       1.0  0.04072487114856931  0.9124471388721747  0.2661357315631109  1.0000
  N   N16       1.0  0.7743767412686822  0.08752853292639166  0.733834657505767  1.0000
  O   O1        1.0  0.2651217236928148  0.17439406256362844  0.5299654011541933  1.0000
  O   O2        1.0  0.7348799428560824  0.8256067186060673  0.4700344001383598  1.0000
  O   O3        1.0  0.3966647043840084  0.37888660747391606  0.7933728828313278  1.0000
  O   O4        1.0  0.6033353469260732  0.6211130900366584  0.20662728653331897  1.0000
  F   F1        1.0  0.3456884069602566  0.6277178702375891  0.38603852662014043  1.0000
  F   F2        1.0  0.9595762529769304  0.3722892816112519  0.6140631506658991  1.0000
  F   F3        1.0  0.6543130156254193  0.37228074109170706  0.6139607871612043  1.0000
  F   F4        1.0  0.04042392031475119  0.6277115008195153  0.3859372624543482  1.0000
  F   F5        1.0  0.240615991169534  0.4709040878074974  0.48124196308474154  1.0000
  F   F6        1.0  0.7593840601405474  0.52909560970307  0.5187582062799052  1.0000
  F   F7        1.0  0.9001605794636591  0.39794295548683317  0.10660188515528558  1.0000
  F   F8        1.0  0.7935346367449513  0.60227588451324  0.8935036593008974  1.0000
  F   F9        1.0  0.09984108250334597  0.6020578300425398  0.8933998928452382  1.0000
  F   F10       1.0  0.2064654191470225  0.3977238086376502  0.10649453335577867  1.0000
  F   F11       1.0  0.0948357222072786  0.23273156899765002  0.19003017075827697  1.0000
  F   F12       1.0  0.9051658223600113  0.7672681272518459  0.8099693867786756  1.0000
