data_image0
_chemical_formula_structural       Zn4P4H44C12N8Cl8O12
_chemical_formula_sum              "Zn4 P4 H44 C12 N8 Cl8 O12"
_cell_length_a       8.225696208005678
_cell_length_b       8.341280640656967
_cell_length_c       15.067257823336078
_cell_angle_alpha    102.84177633270413
_cell_angle_beta     89.99987843765516
_cell_angle_gamma    90.0000838250099

_space_group_name_H-M_alt    "P 1"
_space_group_IT_number       1

loop_
  _space_group_symop_operation_xyz
  'x, y, z'

loop_
  _atom_site_type_symbol
  _atom_site_label
  _atom_site_symmetry_multiplicity
  _atom_site_fract_x
  _atom_site_fract_y
  _atom_site_fract_z
  _atom_site_occupancy
  Zn  Zn1       1.0  0.8431942619693376  0.29773044393482456  0.7476966942339869  1.0000
  Zn  Zn2       1.0  0.3431943225029955  0.702270766363583  0.7523032336591837  1.0000
  Zn  Zn3       1.0  0.15680620960084476  0.7022696329890936  0.2523037691157839  1.0000
  Zn  Zn4       1.0  0.6568061490690982  0.29773054365750085  0.24769671961075795  1.0000
  P   P1        1.0  0.5378842240711991  0.40033343843423824  0.6382157320902164  1.0000
  P   P2        1.0  0.03788249047219951  0.5996674609268667  0.8617838468471246  1.0000
  P   P3        1.0  0.4621174632028443  0.5996666419801358  0.3617840680002259  1.0000
  P   P4        1.0  0.9621167653973189  0.4003338490935917  0.13821610642344234  1.0000
  H   H1        1.0  0.5624634252087262  0.19396525693357358  0.494555048031394  1.0000
  H   H2        1.0  0.06246460076285842  0.8060335999262379  0.005444058119586303  1.0000
  H   H3        1.0  0.4375370463621381  0.8060335938728472  0.5054445988808067  1.0000
  H   H4        1.0  0.9375358708099104  0.19396648397733432  0.9945550787127855  1.0000
  H   H5        1.0  0.4384092767499653  0.1261487323096091  0.5772930165341918  1.0000
  H   H6        1.0  0.938410605013573  0.8738525795372996  0.9227061500803584  1.0000
  H   H7        1.0  0.5615899791189422  0.8738513481035141  0.4227067835575013  1.0000
  H   H8        1.0  0.061589866559806694  0.1261487339736149  0.07729313993088027  1.0000
  H   H9        1.0  0.23530203972919853  0.3213370549536806  0.5535640364870529  1.0000
  H   H10       1.0  0.7353017704061245  0.6786652703483185  0.9464368189136961  1.0000
  H   H11       1.0  0.7646984318428949  0.6786642550674031  0.44643591678288885  1.0000
  H   H12       1.0  0.2646974854633939  0.32133603967213287  0.053563134356870996  1.0000
  H   H13       1.0  0.3429794529326813  0.3695405871256626  0.46642023879797984  1.0000
  H   H14       1.0  0.8429795038332486  0.6304610143502815  0.03357954819230711  1.0000
  H   H15       1.0  0.6570210186400871  0.6304594967779095  0.533578898034392  1.0000
  H   H16       1.0  0.15702096773883772  0.36954029567079527  0.9664204050776345  1.0000
  H   H17       1.0  0.3361896855497761  0.07477982357089269  0.38934374749552336  1.0000
  H   H18       1.0  0.8361898735301383  0.9252192977386502  0.11065839316148639  1.0000
  H   H19       1.0  0.6638083546165633  0.9252202568416054  0.610656052596795  1.0000
  H   H20       1.0  0.1638105980368394  0.07477954259827871  0.8893432435268095  1.0000
  H   H21       1.0  0.20590507508276093  0.04257634337124471  0.4786360760361956  1.0000
  H   H22       1.0  0.705905658478372  0.9574251029784265  0.02136650510007602  1.0000
  H   H23       1.0  0.7940941807861465  0.9574237370418787  0.5213637240554972  1.0000
  H   H24       1.0  0.2940960287943143  0.0425774296709633  0.9786349278655134  1.0000
  H   H25       1.0  0.020519195099744505  0.2721809318315493  0.436831356469554  1.0000
  H   H26       1.0  0.5205192751943245  0.727816645244076  0.06316896620007383  1.0000
  H   H27       1.0  0.9794800607691629  0.7278191485815739  0.5631684436221389  1.0000
  H   H28       1.0  0.4794811963784441  0.27218343865949635  0.936830170632298  1.0000
  H   H29       1.0  0.018358880526527302  0.07199600679924602  0.3662802369922104  1.0000
  H   H30       1.0  0.5183589828404678  0.9280027906792513  0.1337215675976182  1.0000
  H   H31       1.0  0.98164037534108  0.9280040701240467  0.6337202263581857  1.0000
  H   H32       1.0  0.4816402730271464  0.07199728624404142  0.8662788957527707  1.0000
  H   H33       1.0  0.19710511105194684  0.15825606100896292  0.26233713529285296  1.0000
  H   H34       1.0  0.6971058964406963  0.8417416979255706  0.23766300558973089  1.0000
  H   H35       1.0  0.8028941448150493  0.8417427863069947  0.7376631748786691  1.0000
  H   H36       1.0  0.3028945751307788  0.158258382488178  0.7623367945013368  1.0000
  H   H37       1.0  0.03583006978786331  0.28155435081203006  0.2777927390864221  1.0000
  H   H38       1.0  0.5358307324797309  0.7184444681494425  0.2222083842586712  1.0000
  H   H39       1.0  0.9641691860797509  0.7184457261112627  0.7222077242639668  1.0000
  H   H40       1.0  0.4641697390917443  0.2815556122643059  0.7777914158323965  1.0000
  H   H41       1.0  0.21679950320746855  0.3512326621310323  0.3304246116640924  1.0000
  H   H42       1.0  0.7167978360682242  0.6487663432021905  0.16957632538289857  1.0000
  H   H43       1.0  0.7832009683633957  0.6487661886753815  0.6695750352481012  1.0000
  H   H44       1.0  0.28320141980068314  0.35123373721093293  0.8304234747087946  1.0000
  C   C1        1.0  0.4682962454704765  0.23031899755214622  0.5467032268400303  1.0000
  C   C2        1.0  0.9682960844302573  0.7696811119761833  0.9532964190879196  1.0000
  C   C3        1.0  0.5317042260997057  0.769681079371779  0.4532972365097335  1.0000
  C   C4        1.0  0.03170438714251131  0.2303189719273888  0.04670271774444499  1.0000
  C   C5        1.0  0.24236292337268853  0.13111330675910446  0.4383965946488927  1.0000
  C   C6        1.0  0.7423644344893394  0.8688857249024623  0.061604316080156686  1.0000
  C   C7        1.0  0.7576363324956078  0.868885544046684  0.5616030522639263  1.0000
  C   C8        1.0  0.257634821376982  0.1311143485309998  0.9383968105289353  1.0000
  C   C9        1.0  0.09456887663019133  0.18072591366753704  0.3904662657857259  1.0000
  C   C10       1.0  0.5945713432533282  0.8192729657875406  0.10953479708967248  1.0000
  C   C11       1.0  0.9054303792393341  0.8192753963529215  0.6095336874848413  1.0000
  C   C12       1.0  0.40542791261237454  0.1807258780385936  0.8904661763405526  1.0000
  N   N1        1.0  0.3184999259364504  0.27479578880245015  0.5022937968625526  1.0000
  N   N2        1.0  0.8185007417282438  0.7252041664573381  0.9977060032729806  1.0000
  N   N3        1.0  0.6814993299331391  0.7252030654931688  0.49770518679157044  1.0000
  N   N4        1.0  0.18149851414195692  0.27479591744560855  0.0022931335600092  1.0000
  N   N5        1.0  0.14009835925298836  0.24864765232074157  0.31064112649090697  1.0000
  N   N6        1.0  0.6400979829380661  0.7513488113173069  0.18936024641650562  1.0000
  N   N7        1.0  0.8599021123165828  0.7513511949958414  0.6893591836799898  1.0000
  N   N8        1.0  0.3599012729289299  0.24865003599865795  0.8106400637550165  1.0000
  Cl  Cl1       1.0  0.8357951886998554  0.10089297153948  0.8306434816325703  1.0000
  Cl  Cl2       1.0  0.3357934327163223  0.899108234627818  0.6693557906198251  1.0000
  Cl  Cl3       1.0  0.16420406716830632  0.8991107907159873  0.1693581045131438  1.0000
  Cl  Cl4       1.0  0.6642033917481315  0.10089061966654361  0.3306431930355486  1.0000
  Cl  Cl5       1.0  0.0133498010086015  0.23965738823517319  0.6278883431735593  1.0000
  Cl  Cl6       1.0  0.5133487264992169  0.7603410196649635  0.8721122811801008  1.0000
  Cl  Cl7       1.0  0.9866506705596692  0.7603414555915861  0.3721126302560336  1.0000
  Cl  Cl8       1.0  0.48664809795944564  0.2396565910627615  0.12788920233119677  1.0000
  O   O1        1.0  0.6579435144490234  0.5085058920927495  0.6013866487065157  1.0000
  O   O2        1.0  0.15794026132171984  0.49149267867666435  0.8986111737612105  1.0000
  O   O3        1.0  0.34205938852894496  0.4914917360872337  0.39861151850815435  1.0000
  O   O4        1.0  0.8420589945490919  0.5085086348336176  0.1013881162506536  1.0000
  O   O5        1.0  0.6152647067766779  0.31296289442742165  0.7084009542324095  1.0000
  O   O6        1.0  0.11526337602131062  0.6870368550175247  0.7915983918663797  1.0000
  O   O7        1.0  0.3847369804973583  0.6870371859869523  0.291598845858033  1.0000
  O   O8        1.0  0.8847358798482079  0.3129644550029269  0.20840156140418734  1.0000
  O   O9        1.0  0.8771184523236998  0.5161676817851915  0.8256652094172947  1.0000
  O   O10       1.0  0.37712213955172313  0.4838335634522084  0.6743346835506898  1.0000
  O   O11       1.0  0.12288080354650081  0.48383240211775563  0.17433392741570228  1.0000
  O   O12       1.0  0.6228807634254994  0.5161677465701262  0.3256652697180015  1.0000
