data_image0
_chemical_formula_structural       Hf6H4C60N18O32
_chemical_formula_sum              "Hf6 H4 C60 N18 O32"
_cell_length_a       16.51901201310666
_cell_length_b       16.519344055744185
_cell_length_c       16.52216462653442
_cell_angle_alpha    92.74735788720875
_cell_angle_beta     92.7225375380653
_cell_angle_gamma    92.72681339923855

_space_group_name_H-M_alt    "P 1"
_space_group_IT_number       1

loop_
  _space_group_symop_operation_xyz
  'x, y, z'

loop_
  _atom_site_type_symbol
  _atom_site_label
  _atom_site_symmetry_multiplicity
  _atom_site_fract_x
  _atom_site_fract_y
  _atom_site_fract_z
  _atom_site_occupancy
  Hf  Hf1       1.0  0.04247805139782911  0.19910887353473336  0.15885055455379415  1.0000
  Hf  Hf2       1.0  0.15625311328587804  0.2506854227881092  0.9933242662632152  1.0000
  Hf  Hf3       1.0  0.0089972496574049  0.0010162118486007998  0.07441622560460809  1.0000
  Hf  Hf4       1.0  0.20791961775395862  0.08519856111733051  0.10708925562164498  1.0000
  Hf  Hf5       1.0  0.95813953244852  0.16626196360319767  0.9600280808365509  1.0000
  Hf  Hf6       1.0  0.12334686383785963  0.05175234779287759  0.9091142492994277  1.0000
  H   H1        1.0  0.20757986095642877  0.2503240729268795  0.15835246852973478  1.0000
  H   H2        1.0  0.8928849134578982  0.11819045205720609  0.10433774117138479  1.0000
  H   H3        1.0  0.15326682418349694  0.9356622433090397  0.026243127174559792  1.0000
  H   H4        1.0  0.07521212066467338  0.19607443340598252  0.843865019851364  1.0000
  C   C1        1.0  0.8041216142319101  0.0590418577409579  0.4443217141009085  1.0000
  C   C2        1.0  0.8204084068787056  0.0617168927497929  0.5810420566296555  1.0000
  C   C3        1.0  0.6990598915156454  0.08866486801849761  0.5214177514211399  1.0000
  C   C4        1.0  0.3641795835195012  0.18383841066579984  0.6261179923428057  1.0000
  C   C5        1.0  0.46548843135251167  0.15164487606555352  0.5450604397572576  1.0000
  C   C6        1.0  0.3413823891213212  0.1757623958061316  0.4898738332323873  1.0000
  C   C7        1.0  0.49328597685717307  0.8467661803965996  0.9666760426760916  1.0000
  C   C8        1.0  0.5703273444002122  0.741673042233771  0.9961906817628188  1.0000
  C   C9        1.0  0.6300332152600489  0.8630719865425363  0.9695166747317571  1.0000
  C   C10       1.0  0.6752708185286522  0.40722226299627107  0.09212600474917558  1.0000
  C   C11       1.0  0.5940535901753139  0.50829431042024  0.059577977086327394  1.0000
  C   C12       1.0  0.539041063583511  0.38412394386788407  0.08380757319678617  1.0000
  C   C13       1.0  0.016469367008532708  0.5360748245048226  0.7549069293531045  1.0000
  C   C14       1.0  0.0461407246067864  0.6132207289853044  0.6498894624814824  1.0000
  C   C15       1.0  0.019017496055816704  0.6728197968209386  0.7712112848109384  1.0000
  C   C16       1.0  0.1413114386742507  0.7180788819572116  0.31520249596586314  1.0000
  C   C17       1.0  0.13339088260483578  0.581827040760693  0.2922850988686037  1.0000
  C   C18       1.0  0.1092990471730815  0.6369498125277457  0.4164478475335612  1.0000
  C   C19       1.0  0.9367096826365967  0.06529554773595689  0.24425466786200895  1.0000
  C   C20       1.0  0.12047213797435322  0.37689541958465617  0.1445897921524661  1.0000
  C   C21       1.0  0.1938209598978915  0.16320667892506438  0.2848819052750925  1.0000
  C   C22       1.0  0.8780711545956451  0.279690583514352  0.0914320995340745  1.0000
  C   C23       1.0  0.2365982506784974  0.18316224676432566  0.8289078030408347  1.0000
  C   C24       1.0  0.03576624291947181  0.877731177791475  0.9184011389951292  1.0000
  C   C25       1.0  0.3341190175549471  0.23640010290104396  0.07110046546657858  1.0000
  C   C26       1.0  0.0223256093699149  0.3360672072099149  0.8876092801435218  1.0000
  C   C27       1.0  0.8349748666525657  0.010226558685793903  0.9869156855212676  1.0000
  C   C28       1.0  0.14042551945043868  0.9207954187470976  0.18759657015453254  1.0000
  C   C29       1.0  0.2931906472483022  0.9793661181175395  0.9731327716409338  1.0000
  C   C30       1.0  0.9673715604646844  0.07862935041773508  0.7860333759549574  1.0000
  C   C31       1.0  0.1504211741623749  0.795601639642811  0.2813657510432321  1.0000
  C   C32       1.0  0.1509201020646955  0.8560230240254896  0.24212794771667484  1.0000
  C   C33       1.0  0.1350855027656834  0.5127261208334133  0.23709014480876783  1.0000
  C   C34       1.0  0.13193889766191796  0.45436316503201374  0.18920461158618446  1.0000
  C   C35       1.0  0.0194097914459448  0.8022430756950242  0.8713543538002708  1.0000
  C   C36       1.0  0.0158645459877391  0.7435348927033447  0.8238976919622585  1.0000
  C   C37       1.0  0.0098526649512678  0.46030833847397185  0.7926121261160473  1.0000
  C   C38       1.0  0.010614182500290798  0.4017907239226021  0.8345183318225436  1.0000
  C   C39       1.0  0.0679314881220563  0.6202515275817577  0.5677002691798592  1.0000
  C   C40       1.0  0.08762379369755989  0.6275805466262057  0.4983546998890274  1.0000
  C   C41       1.0  0.7528202380167528  0.3734428993419669  0.10144102118822929  1.0000
  C   C42       1.0  0.813360695541583  0.33434842353007355  0.10188711328144248  1.0000
  C   C43       1.0  0.4699818453710094  0.3288906168282964  0.08546581018705977  1.0000
  C   C44       1.0  0.4115739681084136  0.28106495943922033  0.08243057984428498  1.0000
  C   C45       1.0  0.7594961583825253  0.9632012881410645  0.97040516698744  1.0000
  C   C46       1.0  0.7007647796295443  0.9157872517744818  0.9665662792071499  1.0000
  C   C47       1.0  0.3589308232172286  0.9262853430171989  0.9612717421128065  1.0000
  C   C48       1.0  0.4175100617662082  0.8844572562654066  0.9601780517465313  1.0000
  C   C49       1.0  0.584638738330355  0.5901460121382912  0.037691292263403384  1.0000
  C   C50       1.0  0.5773073859925616  0.6594700831164817  0.017920191707872794  1.0000
  C   C51       1.0  0.3302720525873539  0.1930756037026029  0.7036063503302258  1.0000
  C   C52       1.0  0.29114065832656166  0.19356036143614827  0.7641186663169535  1.0000
  C   C53       1.0  0.2385028314638404  0.1745282315584475  0.3623185909889556  1.0000
  C   C54       1.0  0.2862718189917288  0.17747092638342818  0.4207482294313536  1.0000
  C   C55       1.0  0.8730530412378315  0.05864888419849019  0.6517721166184669  1.0000
  C   C56       1.0  0.9204277570074524  0.06222409637761219  0.710511085245656  1.0000
  C   C57       1.0  0.8418289829892772  0.0525116978700595  0.3685611710364681  1.0000
  C   C58       1.0  0.883711531973823  0.053466065268516196  0.31002600403878927  1.0000
  C   C59       1.0  0.5474204698444539  0.1299579032109079  0.5357222461251467  1.0000
  C   C60       1.0  0.6168052386661742  0.1103378098559915  0.5284237243152673  1.0000
  N   N1        1.0  0.8539151904008548  0.0478632746871739  0.5094054732064918  1.0000
  N   N2        1.0  0.7432463236188412  0.08179982357846431  0.59135555141912  1.0000
  N   N3        1.0  0.7260149839140624  0.07867508533713868  0.4458492280943389  1.0000
  N   N4        1.0  0.4422166224686919  0.1648309082755688  0.621661039025156  1.0000
  N   N5        1.0  0.41801968793222954  0.15549650259365677  0.47675049376064027  1.0000
  N   N6        1.0  0.311179542273372  0.19191645586311518  0.5627165936111564  1.0000
  N   N7        1.0  0.49475920924165  0.7686208611973059  0.9861480785338727  1.0000
  N   N8        1.0  0.640305798292502  0.7858667783303517  0.9894155495195703  1.0000
  N   N9        1.0  0.558398632505714  0.8966051991275208  0.9557204517859929  1.0000
  N   N10       1.0  0.6706944717427916  0.4852015810885177  0.07300880073034928  1.0000
  N   N11       1.0  0.5258089428025486  0.4606725842207027  0.06332389412613537  1.0000
  N   N12       1.0  0.6119272116870746  0.3541164223783396  0.10019550511174909  1.0000
  N   N13       1.0  0.036236994620587396  0.5376238915099378  0.6768438661467684  1.0000
  N   N14       1.0  0.0391378938808487  0.6831548142006056  0.6940838456945783  1.0000
  N   N15       1.0  0.0051712958246597  0.601173026027574  0.804674770328077  1.0000
  N   N16       1.0  0.1494235137501292  0.6547056464895958  0.26214270606404705  1.0000
  N   N17       1.0  0.11323358207521753  0.5686495837694991  0.36893368260822956  1.0000
  N   N18       1.0  0.12233827795357399  0.7135779483790116  0.39322391827434433  1.0000
  O   O1        1.0  0.9449253418775285  0.0070512366557835895  0.19288219047359684  1.0000
  O   O2        1.0  0.15165767376128506  0.36543579954365424  0.07648264733745688  1.0000
  O   O3        1.0  0.1257277251651701  0.1944452260188143  0.27352534161882847  1.0000
  O   O4        1.0  0.9280112988062258  0.2697497582571486  0.1503805412229369  1.0000
  O   O5        1.0  0.8760052193172143  0.24452358767085522  0.0204405222882755  1.0000
  O   O6        1.0  0.23165291064042043  0.12118106393594993  0.23291238396854647  1.0000
  O   O7        1.0  0.0784718321688587  0.3249993193792307  0.18247703124349357  1.0000
  O   O8        1.0  0.969997451330144  0.137019295345759  0.24485407618282545  1.0000
  O   O9        1.0  0.0447612709278289  0.22508840820437834  0.03813906068403839  1.0000
  O   O10       1.0  0.0871976899809681  0.08756728654983453  0.13325911706638038  1.0000
  O   O11       1.0  0.1719447807266334  0.2146844060434034  0.12274053276560437  1.0000
  O   O12       1.0  0.9475086719027814  0.12040893256587282  0.08516304906343919  1.0000
  O   O13       1.0  0.22673742922417264  0.24216314683200582  0.8788398270940263  1.0000
  O   O14       1.0  0.0060024860958379  0.8886587237145632  0.9872843257881028  1.0000
  O   O15       1.0  0.32270557949801315  0.16830128376282263  0.10228348832534098  1.0000
  O   O16       1.0  0.9640739871260848  0.28475547298592835  0.8958651490934811  1.0000
  O   O17       1.0  0.845917183608826  0.0790997035328829  0.9571569681610014  1.0000
  O   O18       1.0  0.1994103308909203  0.9706930436359543  0.17764718442816013  1.0000
  O   O19       1.0  0.24180863935313116  0.9875989432365628  0.91493391918177  1.0000
  O   O20       1.0  0.0362306289598635  0.0488010360574407  0.7969589813726401  1.0000
  O   O21       1.0  0.2938496859258422  0.012696139276854998  0.044850574196743785  1.0000
  O   O22       1.0  0.9321406620268674  0.12562459166107937  0.8357323235111024  1.0000
  O   O23       1.0  0.2821616050253795  0.2743036749322201  0.029170803915476985  1.0000
  O   O24       1.0  0.06938162983244922  0.9188519308508846  0.15256514072508048  1.0000
  O   O25       1.0  0.8846698647235556  0.9750133474711475  0.0339024156034071  1.0000
  O   O26       1.0  0.09404497768998969  0.33666409251846835  0.9209306200633873  1.0000
  O   O27       1.0  0.20145962152115973  0.11216606559266751  0.826923397634715  1.0000
  O   O28       1.0  0.08273392544557372  0.9274527632580813  0.8831962552605715  1.0000
  O   O29       1.0  0.0169250923290321  0.05978098441960359  0.9679782412640277  1.0000
  O   O30       1.0  0.18225842798310768  0.1299263819851646  0.9956228491593818  1.0000
  O   O31       1.0  0.134107068783571  0.9902891766799087  0.0284748334191818  1.0000
  O   O32       1.0  0.07746455557506243  0.17693202384576517  0.898481753037238  1.0000
