data_image0
_chemical_formula_structural       Li4H28C28N8O20
_chemical_formula_sum              "Li4 H28 C28 N8 O20"
_cell_length_a       4.8626782077863595
_cell_length_b       6.305909752989807
_cell_length_c       28.44658759807361
_cell_angle_alpha    89.9999178933954
_cell_angle_beta     89.99978074410326
_cell_angle_gamma    105.90436163551536

_space_group_name_H-M_alt    "P 1"
_space_group_IT_number       1

loop_
  _space_group_symop_operation_xyz
  'x, y, z'

loop_
  _atom_site_type_symbol
  _atom_site_label
  _atom_site_symmetry_multiplicity
  _atom_site_fract_x
  _atom_site_fract_y
  _atom_site_fract_z
  _atom_site_occupancy
  Li  Li1       1.0  0.1190704139735246  0.5090282620799017  0.7588719193008516  1.0000
  Li  Li2       1.0  0.8809244366670085  0.9909714082439862  0.2588710192435713  1.0000
  Li  Li3       1.0  0.8809246876888608  0.49096948237381366  0.24112802318984455  1.0000
  Li  Li4       1.0  0.11906802541059848  0.009024684067910002  0.7411289232482619  1.0000
  H   H1        1.0  0.5152927423007725  0.8260140070595908  0.5169660958826016  1.0000
  H   H2        1.0  0.4847114288616652  0.6739852473788304  0.016964506553947004  1.0000
  H   H3        1.0  0.48470468721926346  0.1739903331132524  0.48303490121429604  1.0000
  H   H4        1.0  0.5153109623434986  0.32602572384720935  0.9830343813175235  1.0000
  H   H5        1.0  0.7884247037461735  0.5485719082895031  0.5166570503003883  1.0000
  H   H6        1.0  0.21157008112554362  0.9514240391069605  0.016657309508254104  1.0000
  H   H7        1.0  0.2115695042350794  0.45142913081642894  0.4833428921900663  1.0000
  H   H8        1.0  0.7884476128733198  0.0485852767646833  0.9833419299010588  1.0000
  H   H9        1.0  0.6825650774852434  0.48183064635669126  0.6673609366867269  1.0000
  H   H10       1.0  0.3174380785854822  0.0181710023220774  0.16736091487666022  1.0000
  H   H11       1.0  0.3174285485327601  0.5181687438199846  0.33263865426818034  1.0000
  H   H12       1.0  0.6825640896087108  0.9818234571108704  0.8326390276122313  1.0000
  H   H13       1.0  0.22997354368521877  0.011029380459639502  0.6233379564915965  1.0000
  H   H14       1.0  0.7700202131426793  0.4889661829567944  0.12333783361521003  1.0000
  H   H15       1.0  0.770018024706637  0.9889700065023774  0.3766623375360112  1.0000
  H   H16       1.0  0.2299793154667427  0.5110266243343276  0.8766621088748183  1.0000
  H   H17       1.0  0.24321079042372412  0.030493776810246204  0.5619805016277368  1.0000
  H   H18       1.0  0.7567892791100801  0.4695041713210343  0.061980042299040916  1.0000
  H   H19       1.0  0.7567895903989593  0.9695072719229503  0.43802014393270394  1.0000
  H   H20       1.0  0.2432187502308095  0.5304952413310885  0.9380191971150752  1.0000
  H   H21       1.0  0.6996576997205253  0.19088185978588967  0.7451710140696691  1.0000
  H   H22       1.0  0.3003410798075521  0.3091122682401846  0.24516985453136195  1.0000
  H   H23       1.0  0.300338295632244  0.8091125900197937  0.25482822534924315  1.0000
  H   H24       1.0  0.699653439891577  0.6908838272842743  0.7548297364237798  1.0000
  H   H25       1.0  0.8559145205363521  0.23075598133638664  0.6946812443830126  1.0000
  H   H26       1.0  0.1440846946701484  0.2692420415167831  0.1946802012863174  1.0000
  H   H27       1.0  0.14408058113065894  0.7692417631194247  0.3053183465716743  1.0000
  H   H28       1.0  0.8559104069968626  0.7307557029390209  0.8053193896683626  1.0000
  C   C1        1.0  0.5037862877327511  0.7178306367592525  0.6356819382046623  1.0000
  C   C2        1.0  0.4962106424941909  0.7821672000766712  0.13567995460393692  1.0000
  C   C3        1.0  0.4962073382667356  0.28216875340906716  0.3643190588942958  1.0000
  C   C4        1.0  0.5037926896542828  0.21783055722732317  0.8643185817399797  1.0000
  C   C5        1.0  0.4510593226936096  0.8185779854709524  0.5924440642708364  1.0000
  C   C6        1.0  0.5489419674865202  0.6814236663994677  0.0924438361270958  1.0000
  C   C7        1.0  0.5489381068403105  0.1814263547081509  0.40755587821801953  1.0000
  C   C8        1.0  0.4510672257855077  0.3185790441132569  0.9075557548221128  1.0000
  C   C9        1.0  0.55713068403265  0.7513296986822696  0.5498150253875167  1.0000
  C   C10       1.0  0.4428755320423008  0.748677409918521  0.04981625181382301  1.0000
  C   C11       1.0  0.44287144270293766  0.24867629684914058  0.450184917099513  1.0000
  C   C12       1.0  0.5571404160436657  0.2513269591549019  0.9501836906688939  1.0000
  C   C13       1.0  0.7059998481504053  0.5954233078735385  0.5494318271343346  1.0000
  C   C14       1.0  0.2939984592774394  0.9045788488649508  0.0494316954170912  1.0000
  C   C15       1.0  0.2940002209682859  0.4045826844473909  0.4505681153533772  1.0000
  C   C16       1.0  0.7060174888039014  0.0954255202063834  0.9505685986016419  1.0000
  C   C17       1.0  0.752783609226462  0.4965289556708186  0.5921132212264271  1.0000
  C   C18       1.0  0.24722036413793796  0.0034702896242038003  0.0921125476258808  1.0000
  C   C19       1.0  0.2472179355458692  0.5034753909313353  0.4078863697250555  1.0000
  C   C20       1.0  0.7527876651983193  0.9965291230258305  0.9078870433242515  1.0000
  C   C21       1.0  0.6516070492376541  0.5590352785919848  0.6344058392934573  1.0000
  C   C22       1.0  0.3483931361170108  0.9409658744754666  0.13440565973606064  1.0000
  C   C23       1.0  0.3483912739542561  0.4409657669244567  0.3655958608757004  1.0000
  C   C24       1.0  0.6516081383775401  0.0590318796013349  0.8655956888966474  1.0000
  C   C25       1.0  0.39390760355064464  0.7702127342391735  0.6821293649396625  1.0000
  C   C26       1.0  0.6060860461080324  0.7297845472522085  0.1821290832441491  1.0000
  C   C27       1.0  0.6060828009100659  0.22978335486223497  0.3178705775528599  1.0000
  C   C28       1.0  0.39390789161395656  0.2702098993367272  0.81787121078348  1.0000
  N   N1        1.0  0.30597032513045264  0.970231787331123  0.5919628349052815  1.0000
  N   N2        1.0  0.6940274444548323  0.5297715127703742  0.0919625598887777  1.0000
  N   N3        1.0  0.6940271044034674  0.029772552847980197  0.4080371075835743  1.0000
  N   N4        1.0  0.3059770516155282  0.4702295423900438  0.9080370310622572  1.0000
  N   N5        1.0  0.8977083600592337  0.32956311704901253  0.5919089579053891  1.0000
  N   N6        1.0  0.1022920854121949  0.17043777318215092  0.0919086776362192  1.0000
  N   N7        1.0  0.102288487497539  0.6704395741945677  0.4080916876559471  1.0000
  N   N8        1.0  0.8977124106489  0.8295632819740888  0.9080916163868409  1.0000
  O   O1        1.0  0.4242295402220222  0.6529996807576596  0.7176081460775665  1.0000
  O   O2        1.0  0.575764339240628  0.847000476857666  0.21760784641733721  1.0000
  O   O3        1.0  0.5757640857913559  0.3469997094169273  0.28239179641335  1.0000
  O   O4        1.0  0.42422637693332627  0.15299066866018765  0.7823920960758814  1.0000
  O   O5        1.0  0.2709021189436741  0.9239379336026661  0.6843493306514719  1.0000
  O   O6        1.0  0.7290882507125788  0.5760560204268401  0.18434901738363862  1.0000
  O   O7        1.0  0.7290826946342365  0.07605979479865249  0.315650611842635  1.0000
  O   O8        1.0  0.2709127535458506  0.42393514114341724  0.8156509251061694  1.0000
  O   O9        1.0  0.8888591658134144  0.22499954883583229  0.7287148420112218  1.0000
  O   O10       1.0  0.1111391533161097  0.2749980694594498  0.22871346733164444  1.0000
  O   O11       1.0  0.11113387823207431  0.7749981924074092  0.2712851004801564  1.0000
  O   O12       1.0  0.8888547844151377  0.7249963771336636  0.7712861236239591  1.0000
  O   O13       1.0  0.9447690898786617  0.24432474448113342  0.630140255295274  1.0000
  O   O14       1.0  0.05523209488784893  0.25568063808373864  0.1301403300633908  1.0000
  O   O15       1.0  0.055218945251915896  0.7556762849933565  0.36985968719723433  1.0000
  O   O16       1.0  0.9447765164116717  0.7443204234955518  0.869859612422289  1.0000
  O   O17       1.0  0.9760198185951126  0.2687202086869435  0.5532076390541292  1.0000
  O   O18       1.0  0.023973727100809604  0.2312761851639493  0.0532073909085611  1.0000
  O   O19       1.0  0.023977028961667195  0.7312824825566366  0.44679300650721393  1.0000
  O   O20       1.0  0.9760301869970291  0.7687232210630344  0.9467925515789519  1.0000
