data_image0
_chemical_formula_structural       Sr4H28C28N4O24
_chemical_formula_sum              "Sr4 H28 C28 N4 O24"
_cell_length_a       6.617091111980543
_cell_length_b       6.85664434075241
_cell_length_c       19.821501439010895
_cell_angle_alpha    90.00010011301424
_cell_angle_beta     90.00006321533291
_cell_angle_gamma    92.04666369279762

_space_group_name_H-M_alt    "P 1"
_space_group_IT_number       1

loop_
  _space_group_symop_operation_xyz
  'x, y, z'

loop_
  _atom_site_type_symbol
  _atom_site_label
  _atom_site_symmetry_multiplicity
  _atom_site_fract_x
  _atom_site_fract_y
  _atom_site_fract_z
  _atom_site_occupancy
  Sr  Sr1       1.0  0.6264417786284896  0.4171617278586623  0.6890782125340138  1.0000
  Sr  Sr2       1.0  0.8735561707289109  0.5828387096674418  0.1890783443273705  1.0000
  Sr  Sr3       1.0  0.37355841256232486  0.5828384074776664  0.3109222015113886  1.0000
  Sr  Sr4       1.0  0.1264410502139626  0.4171628818309897  0.8109215652152812  1.0000
  H   H1        1.0  0.25831377020769963  0.7293825942875996  0.6995557512885355  1.0000
  H   H2        1.0  0.24168686379348966  0.2706195833818369  0.1995551405559155  1.0000
  H   H3        1.0  0.7416864733281302  0.2706190004168859  0.3004441582546704  1.0000
  H   H4        1.0  0.7583133797414517  0.7293820113213485  0.8004442644846392  1.0000
  H   H5        1.0  0.41102434917618785  0.7479145778935389  0.7619032312791418  1.0000
  H   H6        1.0  0.0889764521703071  0.2520864609776865  0.2619025535127548  1.0000
  H   H7        1.0  0.5889758943596419  0.25208701681094675  0.23809667826406408  1.0000
  H   H8        1.0  0.9110253026620044  0.7479151353298261  0.7380973560307211  1.0000
  H   H9        1.0  0.6510727981558163  0.9468735554821845  0.6825026905591401  1.0000
  H   H10       1.0  0.8489297142664471  0.053128312412312084  0.1825024912271971  1.0000
  H   H11       1.0  0.3489304679738651  0.05312804242965538  0.3174977234872642  1.0000
  H   H12       1.0  0.15107204056586448  0.9468732838952005  0.817497418316286  1.0000
  H   H13       1.0  0.5801553071786004  0.0067405917796179  0.7557420504348684  1.0000
  H   H14       1.0  0.91984595201707  0.9932616510848787  0.2557414397143773  1.0000
  H   H15       1.0  0.41984644765459933  0.9932610045291952  0.2442583636112587  1.0000
  H   H16       1.0  0.08015580281435321  0.006739945221340797  0.7442579653264545  1.0000
  H   H17       1.0  0.24878968474254043  0.29310424068108176  0.4993563528660943  1.0000
  H   H18       1.0  0.2512060128161906  0.70690093143056  0.9993569473315277  1.0000
  H   H19       1.0  0.7512104017546903  0.7068929759137389  0.5006430521730962  1.0000
  H   H20       1.0  0.7487898538679119  0.29310503657320897  0.0006429622122113  1.0000
  H   H21       1.0  0.665050754533219  0.1460906292863839  0.4131807730363377  1.0000
  H   H22       1.0  0.8349462638072679  0.8539051214275729  0.9131819919828387  1.0000
  H   H23       1.0  0.3349493319649001  0.8539065873097371  0.586819136505504  1.0000
  H   H24       1.0  0.1650508000987827  0.1460920919637942  0.086818422061107  1.0000
  H   H25       1.0  0.5164852916468449  0.19891665362024466  0.5285453829152259  1.0000
  H   H26       1.0  0.9835134986550643  0.8010800413642583  0.028547201087974396  1.0000
  H   H27       1.0  0.4835163584936594  0.8010820239483607  0.47145452662734744  1.0000
  H   H28       1.0  0.016485076547461095  0.19891717363012865  0.9714532129562413  1.0000
  C   C1        1.0  0.1158553963158653  0.3326277251115357  0.6296724020850775  1.0000
  C   C2        1.0  0.3841433231082548  0.6673697135313431  0.1296730936534729  1.0000
  C   C3        1.0  0.884146253824639  0.6673709524570696  0.3703275074574961  1.0000
  C   C4        1.0  0.615853845487827  0.3326304185963379  0.870326311386073  1.0000
  C   C5        1.0  0.9923857910995508  0.28749842977813955  0.5665148706698417  1.0000
  C   C6        1.0  0.507611831079771  0.7125042963066194  0.0665159566931948  1.0000
  C   C7        1.0  0.00761888163302159  0.7125002509952264  0.43348453437063483  1.0000
  C   C8        1.0  0.49238549455579067  0.2875002139320201  0.9334844573530107  1.0000
  C   C9        1.0  0.0865508016616729  0.2676189069313323  0.504034568567505  1.0000
  C   C10       1.0  0.41344617314464227  0.7323837215956673  0.0040353103716484  1.0000
  C   C11       1.0  0.9134507961320394  0.7323783112665224  0.4959648364719698  1.0000
  C   C12       1.0  0.5865496411935568  0.26762078703864484  0.9959645991716358  1.0000
  C   C13       1.0  0.9699055286395294  0.21944398227802958  0.447446166475892  1.0000
  C   C14       1.0  0.5300915057475919  0.7805490258773486  0.9474467249902503  1.0000
  C   C15       1.0  0.030097580451553096  0.7805532375241453  0.552553743066504  1.0000
  C   C16       1.0  0.4699039945151852  0.2194467265402408  0.0525531845503053  1.0000
  C   C17       1.0  0.06853615722449999  0.20289058012558298  0.3793285535908026  1.0000
  C   C18       1.0  0.43146187825981747  0.797106681198116  0.8793287642342092  1.0000
  C   C19       1.0  0.9314624703230409  0.7971080942369608  0.6206713559512167  1.0000
  C   C20       1.0  0.5685368016336269  0.20289345253389254  0.1206711453082647  1.0000
  C   C21       1.0  0.7611648751194905  0.1892132610052215  0.45562814314734373  1.0000
  C   C22       1.0  0.7388353153839587  0.8107827111658493  0.9556293007734952  1.0000
  C   C23       1.0  0.23883672267511005  0.8107839571939265  0.5443717663947751  1.0000
  C   C24       1.0  0.26116331216358907  0.18921596319670186  0.044370608768524306  1.0000
  C   C25       1.0  0.6786256170328924  0.21685138119421046  0.5194477216872642  1.0000
  C   C26       1.0  0.821371734608043  0.7831481841499437  0.0194499742496745  1.0000
  C   C27       1.0  0.3213774920581898  0.7831458386079644  0.4805521878551318  1.0000
  C   C28       1.0  0.1786254863366068  0.2168534073510813  0.9805509442982796  1.0000
  N   N1        1.0  0.7901302155548323  0.2677685110758148  0.5736787653708504  1.0000
  N   N2        1.0  0.7098658682253925  0.7322327908712009  0.07367993724724188  1.0000
  N   N3        1.0  0.20987143458567203  0.7322301664927905  0.4263211441717232  1.0000
  N   N4        1.0  0.2901298414218871  0.26776879902549666  0.926320476797784  1.0000
  O   O1        1.0  0.017384508923306903  0.3655287193473384  0.6837116909464456  1.0000
  O   O2        1.0  0.4826114830148854  0.6344719126804107  0.18371189396219734  1.0000
  O   O3        1.0  0.9826171935631012  0.634471417590724  0.3162882185965827  1.0000
  O   O4        1.0  0.5173827153341364  0.36552967561066635  0.816287511077249  1.0000
  O   O5        1.0  0.3058045530014226  0.3337660681732117  0.6238343324479558  1.0000
  O   O6        1.0  0.19419128029684168  0.6662357153555404  0.1238354584658907  1.0000
  O   O7        1.0  0.6941971494849853  0.6662340687648436  0.3761655770950725  1.0000
  O   O8        1.0  0.8058060453387268  0.3337687948830989  0.8761649555803145  1.0000
  O   O9        1.0  0.2569562625891848  0.2427574958303395  0.3745635725866947  1.0000
  O   O10       1.0  0.24304029715511183  0.7572411987607879  0.8745641946854477  1.0000
  O   O11       1.0  0.7430423649574679  0.7572411785309116  0.6254358324526805  1.0000
  O   O12       1.0  0.7569569237877616  0.24276039273764374  0.1254357148572041  1.0000
  O   O13       1.0  0.9551145130992397  0.1522338807641503  0.3296003783658179  1.0000
  O   O14       1.0  0.5448823154239548  0.8477643589439481  0.8296014876577616  1.0000
  O   O15       1.0  0.044884062102397586  0.8477633342289433  0.6703995311757467  1.0000
  O   O16       1.0  0.45511792811276314  0.15223723576183795  0.1703989263880885  1.0000
  O   O17       1.0  0.3509085557723922  0.6547975738290858  0.7282069555035307  1.0000
  O   O18       1.0  0.1490921268409053  0.3452032917878327  0.22820686081855257  1.0000
  O   O19       1.0  0.6490916877625496  0.34520402087409957  0.2717924495370241  1.0000
  O   O20       1.0  0.8509081166940362  0.6547983029153597  0.7717925442220022  1.0000
  O   O21       1.0  0.6115043559634401  0.05814157807259328  0.7106087602294267  1.0000
  O   O22       1.0  0.8884967441977807  0.941860432730408  0.21060810680309316  1.0000
  O   O23       1.0  0.38849739886975954  0.9418600182362195  0.2893916538167076  1.0000
  O   O24       1.0  0.111503499338049  0.058141161974084796  0.7893918027401128  1.0000
