data_image0
_chemical_formula_structural       Ag2H38C42S2N8O10
_chemical_formula_sum              "Ag2 H38 C42 S2 N8 O10"
_cell_length_a       8.440770795239054
_cell_length_b       9.844497368446573
_cell_length_c       12.769725406331942
_cell_angle_alpha    89.13103020396778
_cell_angle_beta     88.4563524507568
_cell_angle_gamma    94.58324552034189

_space_group_name_H-M_alt    "P 1"
_space_group_IT_number       1

loop_
  _space_group_symop_operation_xyz
  'x, y, z'

loop_
  _atom_site_type_symbol
  _atom_site_label
  _atom_site_symmetry_multiplicity
  _atom_site_fract_x
  _atom_site_fract_y
  _atom_site_fract_z
  _atom_site_occupancy
  Ag  Ag1       1.0  0.8440219676717859  0.8770180929801797  0.7067250266094118  1.0000
  Ag  Ag2       1.0  0.1559856721759729  0.12297740743736088  0.2932779205197845  1.0000
  H   H1        1.0  0.7759412152455666  0.9115678328204878  0.9790777796487685  1.0000
  H   H2        1.0  0.2240526321269485  0.08843179534974871  0.0209237116792309  1.0000
  H   H3        1.0  0.5105207891616813  0.9693534430979444  0.8255115475864512  1.0000
  H   H4        1.0  0.4894907947390692  0.0306566295069288  0.17448369485712326  1.0000
  H   H5        1.0  0.2577905754766973  0.7849470745291214  0.8772704672164408  1.0000
  H   H6        1.0  0.7422107709524681  0.21506712804817604  0.12272330175809286  1.0000
  H   H7        1.0  0.35548169870133256  0.5403906856697844  0.8013569261907632  1.0000
  H   H8        1.0  0.6445164455939433  0.459617990066775  0.19864777195680003  1.0000
  H   H9        1.0  0.6596707410345104  0.47970842635171346  0.744758973368995  1.0000
  H   H10       1.0  0.3403305174399023  0.5202856199723699  0.2552549609639598  1.0000
  H   H11       1.0  0.7704516884399695  0.6202297818372315  0.6820906811436912  1.0000
  H   H12       1.0  0.22955836063579937  0.37976939420727973  0.31792247900021653  1.0000
  H   H13       1.0  0.5577897588989273  0.7435730659957046  0.5445876530889959  1.0000
  H   H14       1.0  0.44221358182131343  0.25643021140866307  0.4554247993357591  1.0000
  H   H15       1.0  0.431432029580357  0.68174302738894  0.3750780052092678  1.0000
  H   H16       1.0  0.5685705078363198  0.3182520384168086  0.6249359333251333  1.0000
  H   H17       1.0  0.20245452157701038  0.014839262546907206  0.7429678205147069  1.0000
  H   H18       1.0  0.797553633082181  0.9851595715865643  0.25702810612717286  1.0000
  H   H19       1.0  0.44365022466443094  0.029058707568971415  0.5927668103715147  1.0000
  H   H20       1.0  0.5563494248923958  0.9709494434824888  0.4072253371125142  1.0000
  H   H21       1.0  0.3014990526965064  0.8960942349176548  0.4218383818077811  1.0000
  H   H22       1.0  0.6984967763118064  0.10391178393367542  0.5781561134158009  1.0000
  H   H23       1.0  0.013393480801852285  0.8194580788062494  0.38520314698780567  1.0000
  H   H24       1.0  0.9865976111947388  0.1805383683297279  0.6148014595174586  1.0000
  H   H25       1.0  0.8716807186160124  0.8241130799999258  0.48994259868615586  1.0000
  H   H26       1.0  0.12831628877736986  0.1758842662481612  0.5100651221343211  1.0000
  H   H27       1.0  0.822645258583364  0.5926567094835847  0.3697011512924745  1.0000
  H   H28       1.0  0.1773482034156544  0.4073397391322048  0.6303034434342292  1.0000
  H   H29       1.0  0.8290667467611924  0.34383881461343435  0.3916056456739766  1.0000
  H   H30       1.0  0.17093393840477938  0.6561568663584297  0.6083926362845701  1.0000
  H   H31       1.0  0.6382557102438751  0.5738282442417102  0.0097450859555295  1.0000
  H   H32       1.0  0.3617254741507594  0.4261709120291145  0.9902423585448401  1.0000
  H   H33       1.0  0.5990814043224972  0.3267049346458464  0.9652147936556046  1.0000
  H   H34       1.0  0.4009127211444863  0.6732932110222193  0.03477257597197079  1.0000
  H   H35       1.0  0.043042796276246506  0.3590099475732629  0.791127088145515  1.0000
  H   H36       1.0  0.9569553835159041  0.6409978635830244  0.2088736828227269  1.0000
  H   H37       1.0  0.07714736812204849  0.6095969583899858  0.830305684043985  1.0000
  H   H38       1.0  0.9228509152204507  0.39041097609548814  0.16969195325336267  1.0000
  C   C1        1.0  0.4952226614677853  0.8612459735935686  0.8100222158181577  1.0000
  C   C2        1.0  0.5047837452794325  0.1387608548326327  0.18997772041668526  1.0000
  C   C3        1.0  0.36772050598707295  0.7655773504269164  0.8362906487768026  1.0000
  C   C4        1.0  0.6322859429260177  0.2344304350764402  0.16371086438419977  1.0000
  C   C5        1.0  0.41405924492010376  0.6426174583412207  0.7991464046226111  1.0000
  C   C6        1.0  0.5859446461084518  0.35738828819880547  0.2008551001354987  1.0000
  C   C7        1.0  0.6497205141417481  0.5708825400710611  0.6957325531438697  1.0000
  C   C8        1.0  0.35029020139511857  0.429108764270012  0.3042734696254711  1.0000
  C   C9        1.0  0.5718537998718531  0.534290779515878  0.5943003437189274  1.0000
  C   C10       1.0  0.4281452276473486  0.46570252407730806  0.40570654154237207  1.0000
  C   C11       1.0  0.5329881568058497  0.63668791531979  0.5245804412279397  1.0000
  C   C12       1.0  0.4670129270716004  0.36331458852138354  0.47542574554287836  1.0000
  C   C13       1.0  0.4616845322934537  0.6027010710828123  0.43039251431506625  1.0000
  C   C14       1.0  0.5383313411783631  0.3972952682620701  0.5696151021862264  1.0000
  C   C15       1.0  0.20322703390279878  0.9749752527023642  0.6642675212849907  1.0000
  C   C16       1.0  0.7967809232649969  0.025022439360164097  0.33573152893704616  1.0000
  C   C17       1.0  0.32396682024031515  0.9824605329751817  0.5860855275413426  1.0000
  C   C18       1.0  0.6760302877102616  0.01754650535781371  0.4139089718836784  1.0000
  C   C19       1.0  0.2565408560730376  0.9171404222309715  0.5001011680937706  1.0000
  C   C20       1.0  0.7434547850531743  0.0828635591368538  0.4998933069483582  1.0000
  C   C21       1.0  0.9905039192074198  0.7927892683000975  0.46851492272999434  1.0000
  C   C22       1.0  0.009496542579569207  0.20720523976853408  0.5314872662264276  1.0000
  C   C23       1.0  0.9970039476339848  0.6416414803826668  0.4866974973834102  1.0000
  C   C24       1.0  0.002991738651253707  0.3583538893065922  0.5133086423094609  1.0000
  C   C25       1.0  0.9018226198081007  0.5520969368220109  0.42640363869364245  1.0000
  C   C26       1.0  0.09817295625779109  0.4478964878806337  0.5736001305646139  1.0000
  C   C27       1.0  0.9047718901813369  0.41163661934432116  0.43920666391615254  1.0000
  C   C28       1.0  0.0952262274908051  0.5883579180767882  0.5607947534011046  1.0000
  C   C29       1.0  0.8825386400092157  0.7575126134791289  0.9350676059023113  1.0000
  C   C30       1.0  0.1174502890856317  0.24248407883539613  0.06493074503974579  1.0000
  C   C31       1.0  0.8610574659567124  0.6066501687781171  0.9226639599165335  1.0000
  C   C32       1.0  0.13892964050370435  0.3933517082622515  0.0773321030045437  1.0000
  C   C33       1.0  0.7266535665100021  0.5266188054935981  0.9618812459736572  1.0000
  C   C34       1.0  0.27333265231509785  0.4733729457938267  0.0381131492047331  1.0000
  C   C35       1.0  0.704515924645598  0.38923673069897563  0.9371729568026195  1.0000
  C   C36       1.0  0.2954822573513241  0.610754255904162  0.06281510205048589  1.0000
  C   C37       1.0  0.8186936286327295  0.33026520444632007  0.8747820195464937  1.0000
  C   C38       1.0  0.18131578869044054  0.669733722923951  0.12521155095294734  1.0000
  C   C39       1.0  0.9555590885942562  0.4076037183681507  0.838709943683419  1.0000
  C   C40       1.0  0.04444036347117471  0.5924032906123743  0.16128532738076728  1.0000
  C   C41       1.0  0.9751445003540907  0.5456478217129117  0.8615610525988443  1.0000
  C   C42       1.0  0.024850108156122996  0.4543590609787884  0.1384373756933428  1.0000
  S   S1        1.0  0.7803684905998837  0.1583917796622814  0.8330330820017476  1.0000
  S   S2        1.0  0.21963729405687357  0.8416070529913641  0.16696285641869216  1.0000
  N   N1        1.0  0.6118828633534149  0.801033128996572  0.7592645862529819  1.0000
  N   N2        1.0  0.3881260036614336  0.19896332923803325  0.24073993191309734  1.0000
  N   N3        1.0  0.5610508063971905  0.6667142104366165  0.7541698107616451  1.0000
  N   N4        1.0  0.4389582647780513  0.3332852115263664  0.2458370879297717  1.0000
  N   N5        1.0  0.0703384261687034  0.9094364474644508  0.6285632637861837  1.0000
  N   N6        1.0  0.9296671772749433  0.09056216936312467  0.37143815855829837  1.0000
  N   N7        1.0  0.10431926317649952  0.8751898519541897  0.5282929316162353  1.0000
  N   N8        1.0  0.8956840057615947  0.12480789881330168  0.4717045753274788  1.0000
  O   O1        1.0  0.7675410152630205  0.8103542189758529  0.9920368604956235  1.0000
  O   O2        1.0  0.23245127134408244  0.18964133348745804  0.0079645963587538  1.0000
  O   O3        1.0  0.9931346665846091  0.8275888713019556  0.89096806834884  1.0000
  O   O4        1.0  0.006853187728360404  0.17240976525927462  0.10903265891710837  1.0000
  O   O5        1.0  0.9287419925399618  0.12235855727433893  0.7808731087373316  1.0000
  O   O6        1.0  0.07126681970657239  0.8776474080514021  0.2191228885396228  1.0000
  O   O7        1.0  0.7355897263674365  0.07686244836764901  0.9282439097673671  1.0000
  O   O8        1.0  0.26441823080035937  0.9231352436948798  0.0717551404546697  1.0000
  O   O9        1.0  0.648975822077922  0.16507405695244157  0.7596652274193472  1.0000
  O   O10       1.0  0.3510312511303937  0.8349248997703069  0.24032757144092895  1.0000
