data_image0
_chemical_formula_structural       Zn2H30C38N6O8
_chemical_formula_sum              "Zn2 H30 C38 N6 O8"
_cell_length_a       7.88032858731086
_cell_length_b       10.357624630527011
_cell_length_c       11.243457176105654
_cell_angle_alpha    70.62706797283542
_cell_angle_beta     84.0941860542146
_cell_angle_gamma    73.75476658664108

_space_group_name_H-M_alt    "P 1"
_space_group_IT_number       1

loop_
  _space_group_symop_operation_xyz
  'x, y, z'

loop_
  _atom_site_type_symbol
  _atom_site_label
  _atom_site_symmetry_multiplicity
  _atom_site_fract_x
  _atom_site_fract_y
  _atom_site_fract_z
  _atom_site_occupancy
  Zn  Zn1       1.0  0.15313008160882904  0.34272975020271457  0.21634984786698647  1.0000
  Zn  Zn2       1.0  0.8468649653481677  0.6572720144339215  0.7836466785597763  1.0000
  H   H1        1.0  0.9334072841549029  0.3587788889342606  0.5778919487750896  1.0000
  H   H2        1.0  0.06659872538889292  0.6412164227502261  0.42210929060824737  1.0000
  H   H3        1.0  0.8334581694476313  0.4673989479928977  0.09035989811708586  1.0000
  H   H4        1.0  0.1665288750934978  0.532603904211811  0.9096413213098342  1.0000
  H   H5        1.0  0.5487436775989566  0.6363674938952288  0.11344519343525405  1.0000
  H   H6        1.0  0.451244045858921  0.3636331774459549  0.886565527264814  1.0000
  H   H7        1.0  0.46628899097392934  0.6671145967015802  0.3277878425253178  1.0000
  H   H8        1.0  0.5337090231282036  0.33288176040571227  0.6722243279749306  1.0000
  H   H9        1.0  0.6732009701452669  0.5263414426111124  0.5074863726937622  1.0000
  H   H10       1.0  0.3268078183229407  0.4736612230363733  0.49251690392078723  1.0000
  H   H11       1.0  0.05736617756168268  0.15670658517142752  0.43534578419589554  1.0000
  H   H12       1.0  0.9426334348926346  0.8432887923618541  0.5646532250766254  1.0000
  H   H13       1.0  0.08271211202988843  0.1273590816320791  0.5977363503527611  1.0000
  H   H14       1.0  0.9172878358975398  0.8726352295524505  0.40226384491818823  1.0000
  H   H15       1.0  0.3699357129276493  0.10836371805540074  0.6688953975281605  1.0000
  H   H16       1.0  0.6300691760078936  0.8916432321017067  0.3311033124398008  1.0000
  H   H17       1.0  0.6921218051955975  0.08630716921251752  0.6123369343372929  1.0000
  H   H18       1.0  0.30788335215544993  0.9137029945165481  0.38765456432367523  1.0000
  H   H19       1.0  0.7758103238454978  0.1760613205843455  0.3825604807132805  1.0000
  H   H20       1.0  0.22418660083864952  0.8239426118219628  0.6174254759336718  1.0000
  H   H21       1.0  0.5332392495448064  0.2935336691808956  0.22430351731770057  1.0000
  H   H22       1.0  0.4667438934710263  0.7064734795749389  0.7756913531435501  1.0000
  H   H23       1.0  0.29150611901884826  0.7098439787073546  0.9283213740529701  1.0000
  H   H24       1.0  0.708481589494305  0.29015678294512537  0.07167597925403868  1.0000
  H   H25       1.0  0.3448372339565253  0.9464303625647689  0.8149314386438248  1.0000
  H   H26       1.0  0.655165547997143  0.0535670949110809  0.18506849724931132  1.0000
  H   H27       1.0  0.2801010339264423  0.13201908567853593  0.9236356910721568  1.0000
  H   H28       1.0  0.719907198780767  0.867977267219338  0.07636507612517114  1.0000
  H   H29       1.0  0.12153244694597032  0.8383218817244185  0.25590245476398366  1.0000
  H   H30       1.0  0.8784708867834398  0.16168191258405784  0.7440964259082321  1.0000
  C   C1        1.0  0.7916311580999108  0.4826302481246645  0.18153441241011584  1.0000
  C   C2        1.0  0.20836611899470378  0.5173725155800851  0.8184678799473915  1.0000
  C   C3        1.0  0.6335749778137442  0.5767709628939742  0.19448319240694895  1.0000
  C   C4        1.0  0.3664190766723152  0.4232339164983756  0.8055222522580507  1.0000
  C   C5        1.0  0.5904798982219504  0.594162890346489  0.31364485940476067  1.0000
  C   C6        1.0  0.40951927154453943  0.4058419508166368  0.6863602305660023  1.0000
  C   C7        1.0  0.7035596127741642  0.5168881581213756  0.41349857456636124  1.0000
  C   C8        1.0  0.2964475053026804  0.4831197971246013  0.5865050101728072  1.0000
  C   C9        1.0  0.862032634689399  0.41872972950142884  0.3950207407943721  1.0000
  C   C10       1.0  0.13796881035339234  0.5812719632656638  0.6049789069027368  1.0000
  C   C11       1.0  0.09418824201915042  0.20086766799791184  0.5026587286531807  1.0000
  C   C12       1.0  0.905813928075382  0.7991276904207542  0.49734010327222206  1.0000
  C   C13       1.0  0.28628373058365514  0.20154996223420343  0.47647518880443573  1.0000
  C   C14       1.0  0.7137171006073687  0.798449643517209  0.5235215726058726  1.0000
  C   C15       1.0  0.4126391636990335  0.14511477992279256  0.5711304193025768  1.0000
  C   C16       1.0  0.5873655069412538  0.8548847790944408  0.42886874956565885  1.0000
  C   C17       1.0  0.5907223021779232  0.1348110986392044  0.5397716433739745  1.0000
  C   C18       1.0  0.4092806881078487  0.865193810184053  0.46021892202351466  1.0000
  C   C19       1.0  0.6384345499267995  0.185088822570556  0.4130813831741307  1.0000
  C   C20       1.0  0.3615646649783671  0.8149118711284232  0.5869124985922339  1.0000
  C   C21       1.0  0.5054119464765777  0.24703474661796326  0.3239146418949588  1.0000
  C   C22       1.0  0.49457986890502775  0.7529691878930508  0.676077016403461  1.0000
  C   C23       1.0  0.18324227537821258  0.6134506116113558  0.17174464233258382  1.0000
  C   C24       1.0  0.8167502819924836  0.38654688619843114  0.8282613499062563  1.0000
  C   C25       1.0  0.20474657438755633  0.7584248509928814  0.0992598555646254  1.0000
  C   C26       1.0  0.7952588262860375  0.24156834357216186  0.9007429533295903  1.0000
  C   C27       1.0  0.26566535369375555  0.7911132647770813  0.9741157509899381  1.0000
  C   C28       1.0  0.7343338701782472  0.2088873747351201  0.02588615121226211  1.0000
  C   C29       1.0  0.2941741681230782  0.924109562460828  0.9114048621640478  1.0000
  C   C30       1.0  0.7058318414207109  0.07588574922365862  0.08859637721928239  1.0000
  C   C31       1.0  0.2589431018139337  0.0273175419262088  0.9713838869719709  1.0000
  C   C32       1.0  0.741068300392634  0.9726808909142405  0.028617806845964804  1.0000
  C   C33       1.0  0.19428012413727203  0.9967724310895394  0.0958028252358218  1.0000
  C   C34       1.0  0.8057232696755391  0.003227125443501703  0.9041982146250475  1.0000
  C   C35       1.0  0.16926224732507228  0.8621653568738668  0.15875697553165935  1.0000
  C   C36       1.0  0.8307430351743504  0.13783630120055082  0.8412432973043095  1.0000
  C   C37       1.0  0.1527950493722301  0.10407469996199842  0.16465506629103288  1.0000
  C   C38       1.0  0.8472070646241576  0.8959248721490951  0.8353451710838585  1.0000
  N   N1        1.0  0.9048944213886257  0.4058583526247048  0.2784630501512666  1.0000
  N   N2        1.0  0.0951057448340578  0.5941433496996923  0.7215366862194087  1.0000
  N   N3        1.0  0.9696008918473921  0.3370334094717223  0.4943783421014415  1.0000
  N   N4        1.0  0.030399667939178716  0.6629630007699846  0.5056229571372413  1.0000
  N   N5        1.0  0.3345233518061904  0.2529896460246803  0.354848207569276  1.0000
  N   N6        1.0  0.6654711453676967  0.7470057697378253  0.6451511563974889  1.0000
  O   O1        1.0  0.20853087927483221  0.5240433258870426  0.10950779553120071  1.0000
  O   O2        1.0  0.7914560972123824  0.4759638122591312  0.8904841354307607  1.0000
  O   O3        1.0  0.14559638481655673  0.5833594092684677  0.2874045322997958  1.0000
  O   O4        1.0  0.8544073995711943  0.4166348732441423  0.7125953969504691  1.0000
  O   O5        1.0  0.0892860084555025  0.07273068904682134  0.27472684420666127  1.0000
  O   O6        1.0  0.9107321903823121  0.9272623497376316  0.7252839895473215  1.0000
  O   O7        1.0  0.18910101630348217  0.2242594689895583  0.10540583448011627  1.0000
  O   O8        1.0  0.8108876395419246  0.7757423253713541  0.8945938087930612  1.0000
