data_image0
_chemical_formula_structural       Zn4H34C63O14
_chemical_formula_sum              "Zn4 H34 C63 O14"
_cell_length_a       15.232015915223915
_cell_length_b       15.21007546378974
_cell_length_c       17.73907075229503
_cell_angle_alpha    81.42409674875522
_cell_angle_beta     80.32877071066592
_cell_angle_gamma    89.76018499705538

_space_group_name_H-M_alt    "P 1"
_space_group_IT_number       1

loop_
  _space_group_symop_operation_xyz
  'x, y, z'

loop_
  _atom_site_type_symbol
  _atom_site_label
  _atom_site_symmetry_multiplicity
  _atom_site_fract_x
  _atom_site_fract_y
  _atom_site_fract_z
  _atom_site_occupancy
  Zn  Zn1       1.0  0.433858435299875  0.44511556623706383  0.43332086169278483  1.0000
  Zn  Zn2       1.0  0.557031865763548  0.40670061043304867  0.5595257677856225  1.0000
  Zn  Zn3       1.0  0.41154122200386906  0.5700933995142563  0.5631386856141702  1.0000
  Zn  Zn4       1.0  0.5935350696822965  0.5856472273632961  0.44606904153523885  1.0000
  H   H1        1.0  0.3204142747887742  0.28162397266299877  0.9352538997066944  1.0000
  H   H2        1.0  0.6695177094798054  0.9936178288275315  0.5360269094264751  1.0000
  H   H3        1.0  0.658753164837833  0.8303742111348809  0.5330846991776639  1.0000
  H   H4        1.0  0.38666095522462735  0.8555903695199873  0.4989935931924449  1.0000
  H   H5        1.0  0.34606175991770266  0.3133713565017756  0.060534595917268126  1.0000
  H   H6        1.0  0.7338568219526491  0.6664842205641577  0.06746632806247993  1.0000
  H   H7        1.0  0.6902613487042185  0.6470609200080588  0.21044015009965733  1.0000
  H   H8        1.0  0.47366213566301224  0.47455003707253235  0.19894628062859  1.0000
  H   H9        1.0  0.6215926364182919  0.5598716193446052  0.8629404641143311  1.0000
  H   H10       1.0  0.4201611083281802  0.3988738782710897  0.13947532516220923  1.0000
  H   H11       1.0  0.8039798960380293  0.5317681696462344  0.8919871700920369  1.0000
  H   H12       1.0  0.8582008937107157  0.6141247927119338  0.4810140723610131  1.0000
  H   H13       1.0  0.9366215834128792  0.6204290780034754  0.8197301956181208  1.0000
  H   H14       1.0  0.9392734734696968  0.785401547288309  0.812199933352055  1.0000
  H   H15       1.0  0.8082554688284486  0.8607407732402876  0.8769079115150689  1.0000
  H   H16       1.0  0.6763463678387819  0.7714988967844576  0.949434375555242  1.0000
  H   H17       1.0  0.41453537084067427  0.6408912759409444  0.8688316250956448  1.0000
  H   H18       1.0  0.4674848237719828  0.7932027185857607  0.807766556152302  1.0000
  H   H19       1.0  0.5927904045519907  0.8142544712294039  0.6961338296074615  1.0000
  H   H20       1.0  0.66309320719224  0.6815354977832444  0.645343784327345  1.0000
  H   H21       1.0  0.6105429576725283  0.5296598194356221  0.707228162535067  1.0000
  H   H22       1.0  0.3073694439279605  0.07196739126564472  0.355922504495922  1.0000
  H   H23       1.0  0.8286004907166027  0.32982234948458  0.5351735987812418  1.0000
  H   H24       1.0  0.1611985496512033  0.0164263682598573  0.3352844066950453  1.0000
  H   H25       1.0  0.06618622330375958  0.9150602532367315  0.44045263406724905  1.0000
  H   H26       1.0  0.11859273251981507  0.8693426848873714  0.566074064627358  1.0000
  H   H27       1.0  0.26458402711377715  0.9248662592533848  0.5861538118617062  1.0000
  H   H28       1.0  0.34480000547218725  0.32301442354199145  0.7181299938728358  1.0000
  H   H29       1.0  0.007010639800696999  0.6861919546554489  0.47203774772987117  1.0000
  H   H30       1.0  0.9931037211911043  0.31543625077257087  0.5262165274381801  1.0000
  H   H31       1.0  0.16945830511617996  0.6723281429905796  0.47555236731415823  1.0000
  H   H32       1.0  0.14455503435777925  0.3871353728972196  0.5025778626979758  1.0000
  H   H33       1.0  0.6025098216436288  0.1411111444862811  0.5247728788277612  1.0000
  H   H34       1.0  0.34249394933672045  0.17387921427656755  0.4625228125998575  1.0000
  C   C1        1.0  0.7372520225585574  0.48157440227326737  0.5084983773592242  1.0000
  C   C2        1.0  0.43503690001180206  0.41483747608322824  0.07670540195736211  1.0000
  C   C3        1.0  0.393214445990864  0.36715991836015155  0.03311860236307498  1.0000
  C   C4        1.0  0.26287770668588434  0.5208741086361215  0.4897265346060919  1.0000
  C   C5        1.0  0.4089120584575168  0.38672665984699967  0.9507083322678369  1.0000
  C   C6        1.0  0.4686987341899209  0.4584977616581511  0.9128214270949044  1.0000
  C   C7        1.0  0.3654855481194516  0.3367536159596796  0.9068455644045413  1.0000
  C   C8        1.0  0.3792724250766779  0.35573513244616356  0.8267960339183631  1.0000
  C   C9        1.0  0.4722340546141693  0.48592250743005383  0.8314188390762496  1.0000
  C   C10       1.0  0.8349016746138741  0.4733919963472956  0.5074243476171035  1.0000
  C   C11       1.0  0.1655579320225512  0.5282989609975388  0.4884132983396016  1.0000
  C   C12       1.0  0.6523972516763619  0.6144340604480689  0.17523053452661944  1.0000
  C   C13       1.0  0.037023048945201295  0.6209159234337277  0.48007782466844157  1.0000
  C   C14       1.0  0.1268072344556613  0.6135671864638255  0.48116879652764766  1.0000
  C   C15       1.0  0.11345485033125868  0.4520074216510039  0.497183975256931  1.0000
  C   C16       1.0  0.4835346638973233  0.2641237167896335  0.49081731228322684  1.0000
  C   C17       1.0  0.020044511362279093  0.457552454423407  0.50161655497471  1.0000
  C   C18       1.0  0.9812786212503251  0.5438505967272321  0.4908334165614648  1.0000
  C   C19       1.0  0.8884994977025823  0.549406105761662  0.4918511988570984  1.0000
  C   C20       1.0  0.8726538268920759  0.38829459955407947  0.5217436383478429  1.0000
  C   C21       1.0  0.9633633431125473  0.3807278353000427  0.5171684062659239  1.0000
  C   C22       1.0  0.47393144409213744  0.16621182592702155  0.4933708195685186  1.0000
  C   C23       1.0  0.5301092998007133  0.5161226754708679  0.16811122127281664  1.0000
  C   C24       1.0  0.520700770299463  0.8347226907204616  0.5173391036363739  1.0000
  C   C25       1.0  0.6080011512063519  0.9631444278914785  0.5272803206585479  1.0000
  C   C26       1.0  0.6021587135178093  0.8731894973015598  0.5264388477365856  1.0000
  C   C27       1.0  0.44787326419737616  0.8870127458653273  0.506869224691755  1.0000
  C   C28       1.0  0.5144163735838203  0.7373797493028817  0.515570009467197  1.0000
  C   C29       1.0  0.4532710866948833  0.9805235899574286  0.5029380450721916  1.0000
  C   C30       1.0  0.5350601203504294  0.018928978026075103  0.5148596068085922  1.0000
  C   C31       1.0  0.5422577708014981  0.11178029920449721  0.5125208575215154  1.0000
  C   C32       1.0  0.3950105426612466  0.12914437020990016  0.4776450896454278  1.0000
  C   C33       1.0  0.3822748451834526  0.037999161222231195  0.4846743532925828  1.0000
  C   C34       1.0  0.5522051124330288  0.5260934114380191  0.08684292735284053  1.0000
  C   C35       1.0  0.44511950022852165  0.45327646597392857  0.7028371682190341  1.0000
  C   C36       1.0  0.5517042477164296  0.5466070699449191  0.29761428980604165  1.0000
  C   C37       1.0  0.5782374759358572  0.5594934399737285  0.21193773322912077  1.0000
  C   C38       1.0  0.4314276096931663  0.4319542216074126  0.7896823262552175  1.0000
  C   C39       1.0  0.67606210781269  0.6251252201872433  0.09590898920853873  1.0000
  C   C40       1.0  0.7315662313330333  0.6456336874529639  0.9258326020670395  1.0000
  C   C41       1.0  0.8052230310664114  0.6039756694595938  0.8885331581550985  1.0000
  C   C42       1.0  0.8796714831373716  0.6539376779108464  0.8480096036435256  1.0000
  C   C43       1.0  0.8811720714509617  0.746353110804975  0.8437926330053855  1.0000
  C   C44       1.0  0.8078702424142389  0.7885359477707611  0.8803466361235621  1.0000
  C   C45       1.0  0.6267982842734124  0.5828488794789024  0.04983249800836381  1.0000
  C   C46       1.0  0.73378135251788  0.738538890006751  0.921312303567568  1.0000
  C   C47       1.0  0.5087361544132346  0.5750319252046767  0.7922675440203619  1.0000
  C   C48       1.0  0.4691962066404827  0.6502898063837463  0.819842547919677  1.0000
  C   C49       1.0  0.49914440891568984  0.7356553420974024  0.7855126185743798  1.0000
  C   C50       1.0  0.5692440434209016  0.747420176727033  0.7227962531972877  1.0000
  C   C51       1.0  0.6083898766053363  0.6731072610123688  0.6943414147623344  1.0000
  C   C52       1.0  0.5783734738860672  0.5874146901363064  0.7286686601489265  1.0000
  C   C53       1.0  0.29608681955141236  0.0021137246725189  0.47232064592833467  1.0000
  C   C54       1.0  0.2655880023251314  0.0277728106792594  0.4020118516184823  1.0000
  C   C55       1.0  0.1835574286469139  0.9964336768437859  0.3905050311643166  1.0000
  C   C56       1.0  0.5018724462373284  0.4806698530738842  0.04121035855119002  1.0000
  C   C57       1.0  0.13041177767979656  0.9392747608694806  0.44933551735164917  1.0000
  C   C58       1.0  0.15995096332036238  0.9134349847375135  0.5196216334493258  1.0000
  C   C59       1.0  0.2422022594913428  0.9443119442701899  0.5309124335606654  1.0000
  C   C60       1.0  0.3343012421709941  0.30061683310078996  0.7819198883559579  1.0000
  C   C61       1.0  0.5225989160807882  0.4987492631121455  0.9592527753238828  1.0000
  C   C62       1.0  0.6003450065848381  0.5515611942775819  0.9251871213539716  1.0000
  C   C63       1.0  0.6515482551180861  0.5923787243734893  0.9672918773399316  1.0000
  O   O1        1.0  0.49815047730467643  0.5020057689755858  0.5011110685879602  1.0000
  O   O2        1.0  0.5034677650431473  0.4057292597054385  0.6687231261773121  1.0000
  O   O3        1.0  0.5967118291802221  0.590392684768446  0.33484733551720314  1.0000
  O   O4        1.0  0.3991787061367872  0.5143565074543445  0.6724328355607057  1.0000
  O   O5        1.0  0.48637208931444303  0.4927741086214753  0.32678719614295915  1.0000
  O   O6        1.0  0.28761321133421086  0.2346510280382361  0.8105062789591599  1.0000
  O   O7        1.0  0.43600768724385813  0.3141232968646648  0.45018633326178303  1.0000
  O   O8        1.0  0.5834248611785707  0.7021566627085534  0.4816873885571554  1.0000
  O   O9        1.0  0.6871465069622074  0.41725809773717515  0.5469412179865287  1.0000
  O   O10       1.0  0.2963833954189282  0.5748194963586998  0.5263111372861005  1.0000
  O   O11       1.0  0.7113621974295937  0.5521863437381713  0.47083660594906007  1.0000
  O   O12       1.0  0.30425466511824323  0.4613163889229809  0.45501435031732035  1.0000
  O   O13       1.0  0.5389969900836034  0.2900417819720857  0.5299642811687377  1.0000
  O   O14       1.0  0.4409550598870877  0.6976765278688576  0.5471320702263327  1.0000
