data_image0
_chemical_formula_structural       Cu2H40C56N20O12F16
_chemical_formula_sum              "Cu2 H40 C56 N20 O12 F16"
_cell_length_a       8.675910675217123
_cell_length_b       9.904273471706338
_cell_length_c       20.010254087641087
_cell_angle_alpha    96.89644740910747
_cell_angle_beta     89.99627196877779
_cell_angle_gamma    115.97388524305127

_space_group_name_H-M_alt    "P 1"
_space_group_IT_number       1

loop_
  _space_group_symop_operation_xyz
  'x, y, z'

loop_
  _atom_site_type_symbol
  _atom_site_label
  _atom_site_symmetry_multiplicity
  _atom_site_fract_x
  _atom_site_fract_y
  _atom_site_fract_z
  _atom_site_occupancy
  Cu  Cu1       1.0  1.7192105374999995e-06  1.1332335744999998e-06  6.756988570000001e-08  1.0000
  Cu  Cu2       1.0  1.1999402431999982e-06  7.470154627999509e-07  0.4999997560632679  1.0000
  H   H1        1.0  0.44533187597497903  0.5481148057649532  0.34465233303429704  1.0000
  H   H2        1.0  0.8976589892748165  0.452033629476844  0.15530403388417116  1.0000
  H   H3        1.0  0.5546701223704814  0.45188657147466665  0.6553488249844435  1.0000
  H   H4        1.0  0.10234013854302051  0.5479666168311113  0.8446950577429819  1.0000
  H   H5        1.0  0.568384555292688  0.4751247138518621  0.2954539068798497  1.0000
  H   H6        1.0  0.09352390009961203  0.5248277505406804  0.20459590497100072  1.0000
  H   H7        1.0  0.4316151381629254  0.524876664000729  0.7045467514643705  1.0000
  H   H8        1.0  0.9064752079989233  0.4751747617285745  0.7954038215587574  1.0000
  H   H9        1.0  0.24536983652755143  0.5925928512996848  0.020091895038426313  1.0000
  H   H10       1.0  0.6532393481504855  0.40758422737518873  0.47988549152571375  1.0000
  H   H11       1.0  0.7546310098563466  0.4074085271016016  0.9799082635782953  1.0000
  H   H12       1.0  0.3467615182749526  0.5924148856349163  0.520113532478554  1.0000
  H   H13       1.0  0.24746187431603064  0.7621105991757844  0.06152708602935771  1.0000
  H   H14       1.0  0.4856210035797801  0.23812840033367166  0.43853130881991825  1.0000
  H   H15       1.0  0.752540124351668  0.2378907786339538  0.9384735722795412  1.0000
  H   H16       1.0  0.514379862845658  0.7618707126764405  0.5614677151843566  1.0000
  H   H17       1.0  0.35218838510035505  0.7970835980227519  0.9267517162614496  1.0000
  H   H18       1.0  0.5552943588425733  0.20302012601958094  0.5731226419932298  1.0000
  H   H19       1.0  0.6478124606390593  0.20291777923829094  0.073249441774955  1.0000
  H   H20       1.0  0.4447076404696089  0.7969812529304076  0.42687701689597907  1.0000
  H   H21       1.0  0.6903100184097821  0.9584279804758392  0.8948944264031056  1.0000
  H   H22       1.0  0.7317138830938816  0.0413352722406373  0.6049473109525254  1.0000
  H   H23       1.0  0.3096896750458313  0.0415733973767516  0.1051062319411216  1.0000
  H   H24       1.0  0.2682863970077633  0.9586649734757697  0.3950522803668052  1.0000
  H   H25       1.0  0.6876302847212372  0.8230141190468032  0.08717227261229253  1.0000
  H   H26       1.0  0.8648077784360452  0.17690496846955742  0.4127104658106333  1.0000
  H   H27       1.0  0.3123705613404226  0.17698725878436505  0.9128283857142705  1.0000
  H   H28       1.0  0.13519021585057092  0.8230930107582779  0.5872889903512615  1.0000
  H   H29       1.0  0.061439978645402994  0.010460939078456  0.3405513538264273  1.0000
  H   H30       1.0  0.05105488608535308  0.9894700300416228  0.15948349795158384  1.0000
  H   H31       1.0  0.9385637786714368  0.9895370400422647  0.6594481022471472  1.0000
  H   H32       1.0  0.9489488317928831  0.010532481001696698  0.840517227927201  1.0000
  H   H33       1.0  0.8260834373676502  0.7839896635009467  0.2449055560145155  1.0000
  H   H34       1.0  0.04242490683653699  0.21604398549494866  0.2551201743556888  1.0000
  H   H35       1.0  0.17391858101935034  0.21600944834749916  0.7550944673917783  1.0000
  H   H36       1.0  0.9575776393608348  0.7839607926713369  0.7448801870236823  1.0000
  H   H37       1.0  0.6612338606651774  0.6997438865392025  0.4421911675726022  1.0000
  H   H38       1.0  0.9613809869176394  0.30011702184643957  0.057872507879899615  1.0000
  H   H39       1.0  0.338764075430248  0.3002608922828926  0.5578086941675836  1.0000
  H   H40       1.0  0.03861929318400563  0.6998832238699676  0.9421270834394309  1.0000
  C   C1        1.0  0.5414765638964028  0.5735879599082806  0.30620335729536663  1.0000
  C   C2        1.0  0.9681013105004366  0.4264530570703044  0.19379820637033876  1.0000
  C   C3        1.0  0.4585231298814491  0.42641341851442854  0.6937968013390191  1.0000
  C   C4        1.0  0.031898383599660456  0.5735483219225229  0.8062014525542055  1.0000
  C   C5        1.0  0.4382255405304463  0.7246456566734024  0.24023194422562005  1.0000
  C   C6        1.0  0.7134290817034667  0.2756673343616356  0.2596704923105904  1.0000
  C   C7        1.0  0.561769581617355  0.27535118877215575  0.7597679440938949  1.0000
  C   C8        1.0  0.28656832690383977  0.724331778712745  0.740328531746677  1.0000
  C   C9        1.0  0.3862892091580931  0.7544155225517386  0.18017307022410023  1.0000
  C   C10       1.0  0.6317452533710153  0.24586368066890427  0.31973524757236055  1.0000
  C   C11       1.0  0.6137093517330214  0.2455835899310941  0.8198264535253444  1.0000
  C   C12       1.0  0.3682544407290749  0.7541376983239302  0.6802644113521837  1.0000
  C   C13       1.0  0.37162084927776107  0.6636277384317637  0.11903209603525512  1.0000
  C   C14       1.0  0.7080726702724647  0.33646669098151694  0.3808983064723321  1.0000
  C   C15       1.0  0.6283771252895605  0.33637250675737107  0.8809679950292449  1.0000
  C   C16       1.0  0.2919281964752118  0.6635324225987136  0.6191002178221013  1.0000
  C   C17       1.0  0.4086863217256392  0.5405354777606133  0.1213335042322825  1.0000
  C   C18       1.0  0.8683507248878257  0.4594079147486951  0.37862406370558693  1.0000
  C   C19       1.0  0.5913064952100697  0.4594613677277906  0.8786663841225604  1.0000
  C   C20       1.0  0.13165187982297513  0.5405900643934416  0.6213753923856516  1.0000
  C   C21       1.0  0.45932896685536645  0.5100639210743195  0.18154644224747332  1.0000
  C   C22       1.0  0.9494435045777151  0.48993820730738236  0.3184232508567533  1.0000
  C   C23       1.0  0.5406609973385842  0.48992952410038987  0.8184537430722261  1.0000
  C   C24       1.0  0.05055679492100033  0.510059771877607  0.6815762052698136  1.0000
  C   C25       1.0  0.47703959998651146  0.6022381717328142  0.24229731450034117  1.0000
  C   C26       1.0  0.8748350963134895  0.39789535510581686  0.2576675320030972  1.0000
  C   C27       1.0  0.5229549358374896  0.3977598064190459  0.757703141134229  1.0000
  C   C28       1.0  0.12516575039264666  0.6021060238655875  0.7423321269037828  1.0000
  C   C29       1.0  0.3234820507864172  0.6980551219573812  0.05340747166348342  1.0000
  C   C30       1.0  0.625712452065393  0.30208361932375993  0.44656640925998664  1.0000
  C   C31       1.0  0.6765182289929894  0.3019451231889079  0.9465926193656812  1.0000
  C   C32       1.0  0.37428782835849717  0.6979166269627726  0.5534326823495022  1.0000
  C   C33       1.0  0.4718932918094508  0.8282161363711679  0.9549374899775174  1.0000
  C   C34       1.0  0.643838292917394  0.1718134363580504  0.5449454764673762  1.0000
  C   C35       1.0  0.528108120856693  0.17178637471499766  0.0450632359365883  1.0000
  C   C36       1.0  0.3561614205797596  0.8281856761033594  0.4550540472644045  1.0000
  C   C37       1.0  0.6396570575164303  0.9076186612266427  0.9398094321404715  1.0000
  C   C38       1.0  0.7319980912120838  0.09226336504622167  0.5600595958431924  1.0000
  C   C39       1.0  0.36034437486902243  0.09238158389822358  0.06019065887103641  1.0000
  C   C40       1.0  0.2679999033967702  0.9077346147517313  0.43993936060886096  1.0000
  C   C41       1.0  0.6436348242038504  0.8411220086019425  0.03979282447097181  1.0000
  C   C42       1.0  0.802683375273439  0.1588670546491713  0.4600890998586848  1.0000
  C   C43       1.0  0.3563671747860865  0.1588793697779209  0.9602073341280857  1.0000
  C   C44       1.0  0.19731461901317712  0.8411309245786567  0.5399103563032099  1.0000
  C   C45       1.0  0.9443500566397559  0.910965157385867  0.34700266913066014  1.0000
  C   C46       1.0  0.033359815309950094  0.08891004906342197  0.15303154805367575  1.0000
  C   C47       1.0  0.05565311467553608  0.08903395501127417  0.6529968545481284  1.0000
  C   C48       1.0  0.9666444691727778  0.9110935952348955  0.8469692454126588  1.0000
  C   C49       1.0  0.8280258213328935  0.8017468055309889  0.2995707168241566  1.0000
  C   C50       1.0  0.02641558196449268  0.19821456737352605  0.20045839862026332  1.0000
  C   C51       1.0  0.17197561137479767  0.19825344016399526  0.7004288744775098  1.0000
  C   C52       1.0  0.9735846784178502  0.8017879443041875  0.7995418276016724  1.0000
  C   C53       1.0  0.7380494114186574  0.7556450258540577  0.4020692019030392  1.0000
  C   C54       1.0  0.9823095039124251  0.24419255030518622  0.09797719964008421  1.0000
  C   C55       1.0  0.2619496970021231  0.24435748698531506  0.5979300249168774  1.0000
  C   C56       1.0  0.017691342793710842  0.7558088286662181  0.902022459266796  1.0000
  N   N1        1.0  0.7448439810091754  0.9148081654220591  0.9930986754256923  1.0000
  N   N2        1.0  0.8300608511116891  0.08510293189802809  0.5067831897816788  1.0000
  N   N3        1.0  0.2551574316569756  0.0851943456641067  0.0069020504884207004  1.0000
  N   N4        1.0  0.16993714317492697  0.9148950473298  0.4932162663802161  1.0000
  N   N5        1.0  0.4766899530189831  0.7866123761052036  0.01801784131354371  1.0000
  N   N6        1.0  0.6903245864319487  0.21346346098415125  0.48188422408381365  1.0000
  N   N7        1.0  0.5233108933649148  0.21338900229608265  0.9819823173031781  1.0000
  N   N8        1.0  0.3096728415724214  0.7865333855588047  0.5181146647806898  1.0000
  N   N9        1.0  0.8868828178124275  0.8803968513404499  0.41033577181679703  1.0000
  N   N10       1.0  0.0063169373155104935  0.11939946171854388  0.08969694005048011  1.0000
  N   N11       1.0  0.11311918149974788  0.11960452760953898  0.5896638870724189  1.0000
  N   N12       1.0  0.9936850616744266  0.8806019166613195  0.9103032185485703  1.0000
  N   N13       1.0  0.6980869994474972  0.7052225568246442  0.335219929800715  1.0000
  N   N14       1.0  0.992948794336705  0.29471304342693116  0.1648167437009533  1.0000
  N   N15       1.0  0.3019126943303547  0.2947788215980651  0.6647802288336707  1.0000
  N   N16       1.0  0.007051466690114692  0.7052894693910189  0.8351824831012991  1.0000
  N   N17       1.0  0.910532779291529  0.6798922876929366  0.08942873815846042  1.0000
  N   N18       1.0  0.23151638668853275  0.3200343265827143  0.4105487384001806  1.0000
  N   N19       1.0  0.0894709579837709  0.3201079568189584  0.9105718525275606  1.0000
  N   N20       1.0  0.7684890691528211  0.6799670500225191  0.5894529192754021  1.0000
  O   O1        1.0  0.011262708007251408  0.7959151838922551  0.06306454362741931  1.0000
  O   O2        1.0  0.2160788725456015  0.20402497245824947  0.4369787184941742  1.0000
  O   O3        1.0  0.98874390011791  0.20408619212143714  0.9369376137403408  1.0000
  O   O4        1.0  0.7839242771169522  0.7959764024794679  0.5630244383462681  1.0000
  O   O5        1.0  0.9026561922465814  0.5513758981070538  0.06758596088336331  1.0000
  O   O6        1.0  0.3516887211372505  0.4486424676790931  0.4325902919884968  1.0000
  O   O7        1.0  0.09734752563165473  0.44862661293626616  0.9324147649954213  1.0000
  O   O8        1.0  0.6483156014951277  0.5513566424161384  0.5674112305119864  1.0000
  O   O9        1.0  0.8207583936279832  0.6937601747810832  0.13731207730489814  1.0000
  O   O10       1.0  0.12849635063837184  0.3060241217991688  0.36240528174132447  1.0000
  O   O11       1.0  0.17923958126156952  0.3062400709781699  0.8626875140497605  1.0000
  O   O12       1.0  0.871512016135938  0.6939738555254991  0.637595673391111  1.0000
  F   F1        1.0  0.3487187623636387  0.8739187258341373  0.18164404824148767  1.0000
  F   F2        1.0  0.47455756250954545  0.1265646829667872  0.31828121773135365  1.0000
  F   F3        1.0  0.6512803651319671  0.12608151990369265  0.8183555430955067  1.0000
  F   F4        1.0  0.5254421513098463  0.8734344300647477  0.6817178062905854  1.0000
  F   F5        1.0  0.453451858829311  0.8179297384614443  0.29779022063505073  1.0000
  F   F6        1.0  0.6353516097581746  0.18260432785806557  0.20207932008347745  1.0000
  F   F7        1.0  0.5465415250331347  0.18206824085207524  0.7022092355975006  1.0000
  F   F8        1.0  0.3646481037389788  0.8173947846033439  0.7979202036483033  1.0000
  F   F9        1.0  0.4957545361376106  0.39038488108901953  0.18024190164187812  1.0000
  F   F10       1.0  0.10564644788347974  0.6095358973841413  0.31975940480275983  1.0000
  F   F11       1.0  0.5042314029892337  0.6096074297547173  0.8197592155629467  1.0000
  F   F12       1.0  0.8943555905450679  0.39046094907312306  0.6802394839910804  1.0000
  F   F13       1.0  0.3995646688900649  0.4506594292909511  0.0636126085396569  1.0000
  F   F14       1.0  0.9491337569928506  0.5491658713007797  0.43636638160607794  1.0000
  F   F15       1.0  0.6004258615861386  0.5493351485686374  0.9363881440774265  1.0000
  F   F16       1.0  0.050870019076576546  0.4508298401482733  0.5636339386944088  1.0000
