data_image0
_chemical_formula_structural       Cu4H24C32S8Br6N16
_chemical_formula_sum              "Cu4 H24 C32 S8 Br6 N16"
_cell_length_a       10.263108600812574
_cell_length_b       11.064194414522719
_cell_length_c       12.868867830459717
_cell_angle_alpha    115.12569306858116
_cell_angle_beta     108.47833046741766
_cell_angle_gamma    93.72003657064842

_space_group_name_H-M_alt    "P 1"
_space_group_IT_number       1

loop_
  _space_group_symop_operation_xyz
  'x, y, z'

loop_
  _atom_site_type_symbol
  _atom_site_label
  _atom_site_symmetry_multiplicity
  _atom_site_fract_x
  _atom_site_fract_y
  _atom_site_fract_z
  _atom_site_occupancy
  Cu  Cu1       1.0  0.953122012350633  0.0600130742226597  0.10897585513645676  1.0000
  Cu  Cu2       1.0  0.046876388172684406  0.939995021907464  0.8910369606216051  1.0000
  Cu  Cu3       1.0  0.35895557704717623  0.23644946658917831  0.6219287541922469  1.0000
  Cu  Cu4       1.0  0.6410408240779191  0.7635504278766945  0.3780758905760705  1.0000
  H   H1        1.0  0.30155874469130584  0.9454545516810455  0.5014333994745428  1.0000
  H   H2        1.0  0.6984368404137982  0.05455047578124812  0.4985737026283985  1.0000
  H   H3        1.0  0.15779219258532606  0.7476969034766725  0.29095757335673494  1.0000
  H   H4        1.0  0.8422128966659627  0.2523050400861209  0.7090461046323995  1.0000
  H   H5        1.0  0.002170309673061905  0.8056593283355226  0.12735806251703238  1.0000
  H   H6        1.0  0.9978339781063565  0.19434365053991343  0.8726419101632246  1.0000
  H   H7        1.0  0.0976100161408482  0.6279041141782783  0.8768037522125879  1.0000
  H   H8        1.0  0.9023712099796342  0.3720968336229761  0.12319438651854131  1.0000
  H   H9        1.0  0.8378354643889666  0.5075695216966241  0.7485546449154157  1.0000
  H   H10       1.0  0.1621475580335385  0.4924263083735454  0.25143273868675203  1.0000
  H   H11       1.0  0.773296263174629  0.33659829396736285  0.5247268080023062  1.0000
  H   H12       1.0  0.2267112043950732  0.6633923679800446  0.4752655520771895  1.0000
  H   H13       1.0  0.8015789927966281  0.5937877372439077  0.10293807620030289  1.0000
  H   H14       1.0  0.19843356118062158  0.4062070275266407  0.8970555038445127  1.0000
  H   H15       1.0  0.6257239996461479  0.6988175172150334  0.0010131183869431955  1.0000
  H   H16       1.0  0.3742844251661737  0.3011772607107445  0.9989755513803047  1.0000
  H   H17       1.0  0.4320490875603014  0.5358326853704726  0.7938128893201508  1.0000
  H   H18       1.0  0.5679509486253168  0.46415695848698857  0.20617802099735622  1.0000
  H   H19       1.0  0.4347288486231661  0.2095361643035716  0.1580556894051455  1.0000
  H   H20       1.0  0.5652679380306154  0.7904699138558158  0.8419388876073839  1.0000
  H   H21       1.0  0.6124018773570086  0.18468273962817966  0.3314711522427416  1.0000
  H   H22       1.0  0.387588005358964  0.8153243610122658  0.6685290720298693  1.0000
  H   H23       1.0  0.8394238389847288  0.12671524609583432  0.30636276645827104  1.0000
  H   H24       1.0  0.16056884641250244  0.8732949277563123  0.6936408387273187  1.0000
  C   C1        1.0  0.15383313034068638  0.1147707262808666  0.35812951106319696  1.0000
  C   C2        1.0  0.8461701389458582  0.8852322509608471  0.6418717611849799  1.0000
  C   C3        1.0  0.2341557565471675  0.9613434046964427  0.42607792935938676  1.0000
  C   C4        1.0  0.7658430907550838  0.0386667607825473  0.5739272093872074  1.0000
  C   C5        1.0  0.1547622743243124  0.8527410080432318  0.31002443415744807  1.0000
  C   C6        1.0  0.8452404384197294  0.1472681239950333  0.6899820663556895  1.0000
  C   C7        1.0  0.07049015414214925  0.8837096840357718  0.22085729893865386  1.0000
  C   C8        1.0  0.9295128496100915  0.11629636606034668  0.7791489201841344  1.0000
  C   C9        1.0  0.11071999271666043  0.43565290297947723  0.6086039819358504  1.0000
  C   C10       1.0  0.889287943483552  0.5643480055088546  0.39140235738774004  1.0000
  C   C11       1.0  0.060016123869118594  0.5532706770453045  0.7785823229315694  1.0000
  C   C12       1.0  0.9399766815941389  0.4467271764922671  0.22141679077631682  1.0000
  C   C13       1.0  0.9180506293405344  0.4860586846067251  0.708681557359192  1.0000
  C   C14       1.0  0.0819419081539294  0.5139381501599729  0.2913132302569394  1.0000
  C   C15       1.0  0.882727771713391  0.3920446345422377  0.584340964174494  1.0000
  C   C16       1.0  0.11727708109982159  0.6079521865073971  0.41565533540223487  1.0000
  C   C17       1.0  0.5895018582825317  0.3147651176982151  0.8611411846173879  1.0000
  C   C18       1.0  0.41049946861039627  0.6852255450492207  0.1388535298046562  1.0000
  C   C19       1.0  0.7130637247585766  0.5296781214416626  0.01494034651884129  1.0000
  C   C20       1.0  0.2869473299816647  0.47031458446329566  0.9850559894596598  1.0000
  C   C21       1.0  0.6177843412136851  0.5886377598460726  0.9585390027716229  1.0000
  C   C22       1.0  0.3822238665776396  0.4113559811333334  0.041454671872422535  1.0000
  C   C23       1.0  0.5108750852981814  0.499258217259424  0.845369317710535  1.0000
  C   C24       1.0  0.48911627974383964  0.5007293714426239  0.15462566970899852  1.0000
  C   C25       1.0  0.6782199328279716  0.1346595730312572  0.04566714847780413  1.0000
  C   C26       1.0  0.32177928552649593  0.8653392969625313  0.9543347145599836  1.0000
  C   C27       1.0  0.5352526336034772  0.1850156990061151  0.15415353546264748  1.0000
  C   C28       1.0  0.4647460087914085  0.8149852402174531  0.8458411725508836  1.0000
  C   C29       1.0  0.6330372893856547  0.17100511176965233  0.24958247725391663  1.0000
  C   C30       1.0  0.36695023561682666  0.8290050781478728  0.7504151844798912  1.0000
  C   C31       1.0  0.7569395867557417  0.13819569605352197  0.23557281393416926  1.0000
  C   C32       1.0  0.24305054694642078  0.8618124294162968  0.7644286261073318  1.0000
  S   S1        1.0  0.1522167162651584  0.27864585327290564  0.36894195857298223  1.0000
  S   S2        1.0  0.8477985542925239  0.7213642929069266  0.6310657145082105  1.0000
  S   S3        1.0  0.2520188907065233  0.4117318400560564  0.5543926072910069  1.0000
  S   S4        1.0  0.7479889884890767  0.5882731812623022  0.445612118868965  1.0000
  S   S5        1.0  0.7216279759812279  0.10387028274083579  0.9148554937617134  1.0000
  S   S6        1.0  0.2783695467201639  0.8961172991026771  0.08514024963812249  1.0000
  S   S7        1.0  0.5520177576854834  0.13432597636098362  0.7997777899957441  1.0000
  S   S8        1.0  0.44798534915017996  0.8656677594790522  0.2002208273264968  1.0000
  Br  Br1       1.0  0.1303096249865732  0.18168625400800661  0.07356750635678817  1.0000
  Br  Br2       1.0  0.8696942542247468  0.8183146418869356  0.9264471415613469  1.0000
  Br  Br3       1.0  0.1974774605556604  0.16244529129775032  0.6998163058684668  1.0000
  Br  Br4       1.0  0.8025299361562901  0.8375401890661394  0.30019900144639416  1.0000
  Br  Br5       1.0  0.5396018022177103  0.2586819770434587  0.5377299686787111  1.0000
  Br  Br6       1.0  0.46039940885484043  0.7413210045039307  0.4622700148017527  1.0000
  N   N1        1.0  0.07003402784839352  0.014358709276969302  0.24413466703586548  1.0000
  N   N2        1.0  0.9299769050146623  0.985650410082464  0.7558746558059822  1.0000
  N   N3        1.0  0.23348644595885298  0.0922768132000016  0.45008799706295827  1.0000
  N   N4        1.0  0.7665080994251382  0.9077282202016902  0.5499165167043498  1.0000
  N   N5        1.0  0.15826893815365387  0.5286159150565908  0.7284928295793165  1.0000
  N   N6        1.0  0.8417292174402888  0.4713870615896239  0.2715110526049144  1.0000
  N   N7        1.0  0.9793499068888281  0.3649511927884674  0.5326677701175555  1.0000
  N   N8        1.0  0.020658056596445852  0.6350456134722152  0.46733473930466113  1.0000
  N   N9        1.0  0.4977763171734253  0.3623171918364463  0.7943918799965031  1.0000
  N   N10       1.0  0.5022173043098235  0.6376755287046976  0.20560477637675223  1.0000
  N   N11       1.0  0.697979188824938  0.3935804323086884  0.9674571003915131  1.0000
  N   N12       1.0  0.3020198203765148  0.6064092129442997  0.03253355433249541  1.0000
  N   N13       1.0  0.7810280742855226  0.11923317928909682  0.1330342773209097  1.0000
  N   N14       1.0  0.21896391940339302  0.8807698057302745  0.8669680713023169  1.0000
  N   N15       1.0  0.5579141681465742  0.16736592364829045  0.05187845477494337  1.0000
  N   N16       1.0  0.4420862244715025  0.8326380992702482  0.9481147130737925  1.0000
