data_image0
_chemical_formula_structural       Zn4H36C48N24Cl4O4
_chemical_formula_sum              "Zn4 H36 C48 N24 Cl4 O4"
_cell_length_a       8.193113669023319
_cell_length_b       9.501840613052627
_cell_length_c       17.47063463212475
_cell_angle_alpha    89.99963971599453
_cell_angle_beta     89.99975806369041
_cell_angle_gamma    90.00012459037576

_space_group_name_H-M_alt    "P 1"
_space_group_IT_number       1

loop_
  _space_group_symop_operation_xyz
  'x, y, z'

loop_
  _atom_site_type_symbol
  _atom_site_label
  _atom_site_symmetry_multiplicity
  _atom_site_fract_x
  _atom_site_fract_y
  _atom_site_fract_z
  _atom_site_occupancy
  Zn  Zn1       1.0  0.052959063727399815  0.509492545067843  0.9740323816277653  1.0000
  Zn  Zn2       1.0  0.9470426082900048  0.4905062646031198  0.4740342306559313  1.0000
  Zn  Zn3       1.0  0.44704161201320863  0.0094947832511068  0.47403097260881577  1.0000
  Zn  Zn4       1.0  0.5529637216376955  0.9905071837294557  0.9740316329424631  1.0000
  H   H1        1.0  0.5572157838379398  0.3441246885661896  0.855386213874695  1.0000
  H   H2        1.0  0.4427820665095156  0.6558733882813428  0.355383351837027  1.0000
  H   H3        1.0  0.9427802504736749  0.8441258018371868  0.35538997235327235  1.0000
  H   H4        1.0  0.05721393823282741  0.1558733273948931  0.8553864620289389  1.0000
  H   H5        1.0  0.4106847993016417  0.06328547591882477  0.6394828344174783  1.0000
  H   H6        1.0  0.5893284066801528  0.9367182548710532  0.1394855884428736  1.0000
  H   H7        1.0  0.0893104592736051  0.5632827728724052  0.13948615321670133  1.0000
  H   H8        1.0  0.9106893207616481  0.43671569572688174  0.6394891383346675  1.0000
  H   H9        1.0  0.5675904584031031  0.5661125174842853  0.6210079615911185  1.0000
  H   H10       1.0  0.4324107073489998  0.43388721724926427  0.12100645168286663  1.0000
  H   H11       1.0  0.932405745203674  0.0661105186593289  0.12100887132643122  1.0000
  H   H12       1.0  0.0675917589304973  0.9338902684885542  0.6210072591165599  1.0000
  H   H13       1.0  0.45695104442837226  0.9329163296162051  0.7604505761923407  1.0000
  H   H14       1.0  0.5430549776597076  0.06708705474217419  0.260452961743546  1.0000
  H   H15       1.0  0.043041629258773605  0.43291149996613854  0.260453407401215  1.0000
  H   H16       1.0  0.9569595106559349  0.5670866222261565  0.7604541372719069  1.0000
  H   H17       1.0  0.5106213516380083  0.710055755302818  0.5080153114478778  1.0000
  H   H18       1.0  0.4893783829518271  0.2899431811870414  0.008017042037629103  1.0000
  H   H19       1.0  0.9893750063941696  0.21005175783120217  0.008017824713014902  1.0000
  H   H20       1.0  0.010623507644226003  0.7899440213612721  0.5080168183353139  1.0000
  H   H21       1.0  0.6674139722342433  0.8400404659333987  0.8244813987901409  1.0000
  H   H22       1.0  0.3325902570029058  0.15996007312028834  0.324484458989474  1.0000
  H   H23       1.0  0.8325872100826858  0.34003828096641797  0.324487086758765  1.0000
  H   H24       1.0  0.16741823966608388  0.659962258055309  0.8244844949101591  1.0000
  H   H25       1.0  0.3539381613124278  0.34551738479468946  0.7647726481496024  1.0000
  H   H26       1.0  0.6460641605609112  0.6544817399122776  0.26476766820733394  1.0000
  H   H27       1.0  0.1460579137307363  0.8455147875791834  0.2647712746385835  1.0000
  H   H28       1.0  0.8539395259860286  0.1544822322612731  0.7647701865049188  1.0000
  H   H29       1.0  0.5004310554264393  0.3652499186019115  0.6902628681988788  1.0000
  H   H30       1.0  0.4995731529528769  0.6347511201534318  0.1902582479441435  1.0000
  H   H31       1.0  0.9995628467315071  0.8652521901865243  0.19026422384858682  1.0000
  H   H32       1.0  0.0004364794734427999  0.13474884853117428  0.6902626161898341  1.0000
  H   H33       1.0  0.336574056982279  0.48551694898338144  0.6974503153407454  1.0000
  H   H34       1.0  0.6634264255344888  0.514480849363693  0.1974469242489789  1.0000
  H   H35       1.0  0.1634180926749522  0.9855206986856329  0.1974523415196074  1.0000
  H   H36       1.0  0.8365787282163168  0.0144802569178779  0.6974489047917276  1.0000
  C   C1        1.0  0.5215034022204463  0.5139542722286662  0.783457833662915  1.0000
  C   C2        1.0  0.47849509102120896  0.48604463638658046  0.283455481089689  1.0000
  C   C3        1.0  0.9784912171269939  0.013953411745632098  0.2834609410207279  1.0000
  C   C4        1.0  0.021504835012130696  0.9860454968309397  0.7834586700138859  1.0000
  C   C5        1.0  0.5556811137419758  0.6568298418027255  0.7727762031996974  1.0000
  C   C6        1.0  0.444321136573727  0.3431712951758499  0.2727766968918175  1.0000
  C   C7        1.0  0.9443127428809464  0.15682576032180148  0.2727776615734925  1.0000
  C   C8        1.0  0.05568584581282471  0.843173271788082  0.7727769556924287  1.0000
  C   C9        1.0  0.4432913600086153  0.9520038485765667  0.638790981284892  1.0000
  C   C10       1.0  0.5567169700120971  0.0479977853624476  0.1387922600773521  1.0000
  C   C11       1.0  0.0566987878715892  0.4520011492511813  0.1387932128555818  1.0000
  C   C12       1.0  0.9432961162129203  0.5479973273625163  0.6387951800269179  1.0000
  C   C13       1.0  0.5282099236491719  0.6742262200494408  0.6297688028645823  1.0000
  C   C14       1.0  0.4717887227202057  0.3257734133675854  0.1297681564699928  1.0000
  C   C15       1.0  0.9717815936835166  0.1742253470691821  0.1297702064363619  1.0000
  C   C16       1.0  0.028214611601228505  0.8257742863323259  0.6297690424568572  1.0000
  C   C17       1.0  0.46945196029720654  0.8780125570733123  0.7059626541471858  1.0000
  C   C18       1.0  0.5305533282702511  0.12198724767551991  0.2059631597400795  1.0000
  C   C19       1.0  0.03053862009827671  0.37801191382743576  0.2059649378984645  1.0000
  C   C20       1.0  0.9694581246883303  0.621987890886963  0.705965455109741  1.0000
  C   C21       1.0  0.6722782514639009  0.5111247778132793  0.9061487090897486  1.0000
  C   C22       1.0  0.32772036570667507  0.48887271202632837  0.4061455028277551  1.0000
  C   C23       1.0  0.8277262489577737  0.011128898385734902  0.40614753807879833  1.0000
  C   C24       1.0  0.17227114768216722  0.9888717487390651  0.9061461014454724  1.0000
  C   C25       1.0  0.4995643071980781  0.7549856573532664  0.5650606833905982  1.0000
  C   C26       1.0  0.5004373586012179  0.24501261948260128  0.0650608283865779  1.0000
  C   C27       1.0  0.00043332326505660004  0.2549839055453518  0.06506245481507018  1.0000
  C   C28       1.0  0.9995634603675397  0.7450143712627906  0.5650630636903385  1.0000
  C   C29       1.0  0.6993121645099123  0.6612536677780694  0.8962397985714858  1.0000
  C   C30       1.0  0.3006877617497992  0.338744989055904  0.39624002151942517  1.0000
  C   C31       1.0  0.8006891435779979  0.1612545806401471  0.3962421158301197  1.0000
  C   C32       1.0  0.19931322374598892  0.8387461810348995  0.8962405662000208  1.0000
  C   C33       1.0  0.6417324748581308  0.7279873737400634  0.8316662433626475  1.0000
  C   C34       1.0  0.3582716901576504  0.2720130822248876  0.3316700139640929  1.0000
  C   C35       1.0  0.858265918002914  0.22798839393976775  0.33167130771068554  1.0000
  C   C36       1.0  0.1417333648513903  0.7720141668561169  0.8316683839516372  1.0000
  C   C37       1.0  0.7883184475658283  0.735775810009045  0.9557749124967998  1.0000
  C   C38       1.0  0.211680946565366  0.2642232107902913  0.4557761401976563  1.0000
  C   C39       1.0  0.7116825173794653  0.235776556909336  0.45577912447079433  1.0000
  C   C40       1.0  0.28831687673015693  0.7642256211399214  0.9557776521087861  1.0000
  C   C41       1.0  0.5142955507682886  0.7349519146549993  0.7026767684578346  1.0000
  C   C42       1.0  0.48570732608960304  0.2650510853612147  0.20267916388413454  1.0000
  C   C43       1.0  0.9856954689082471  0.23495106760759651  0.20267986144116892  1.0000
  C   C44       1.0  0.014302525786618501  0.7650487751078145  0.7026783604672816  1.0000
  C   C45       1.0  0.422815764951018  0.42284055715892066  0.7311102470894326  1.0000
  C   C46       1.0  0.5771819756477896  0.5771579043845421  0.23110509655323597  1.0000
  C   C47       1.0  0.07717470436887913  0.9228420412138689  0.23111130052861742  1.0000
  C   C48       1.0  0.9228218156710427  0.0771574727263413  0.7311091946149375  1.0000
  N   N1        1.0  0.8672670803519013  0.8885978868803405  0.0399000014037298  1.0000
  N   N2        1.0  0.1327348103205281  0.11139752361546582  0.5399022164018277  1.0000
  N   N3        1.0  0.6327355481845487  0.38860112409012965  0.5399012437807615  1.0000
  N   N4        1.0  0.36726634249455253  0.6113995485440427  0.0399009740157936  1.0000
  N   N5        1.0  0.9593857287234401  0.7775057669198233  0.04778533104085621  1.0000
  N   N6        1.0  0.04061487093107981  0.2224916572397575  0.5477884947094793  1.0000
  N   N7        1.0  0.5406104449099871  0.27750988479012756  0.5477879019569798  1.0000
  N   N8        1.0  0.4593864931344953  0.7224928014977863  0.0477870685661088  1.0000
  N   N9        1.0  0.9123015872182378  0.6800991130395531  0.9957957541736351  1.0000
  N   N10       1.0  0.08769866973426592  0.31989839252705105  0.49579875598451656  1.0000
  N   N11       1.0  0.5876952172179133  0.18010173363231263  0.49579906868904544  1.0000
  N   N12       1.0  0.41230381919005776  0.8199020864793382  0.9957988757938381  1.0000
  N   N13       1.0  0.7599324617115074  0.8668754929859048  0.9822860604067358  1.0000
  N   N14       1.0  0.240066695463625  0.1331232212429256  0.48228710736970737  1.0000
  N   N15       1.0  0.7400685987543127  0.3668731355386541  0.4822884985951106  1.0000
  N   N16       1.0  0.2599305584041431  0.6331245262426464  0.9822881035174476  1.0000
  N   N17       1.0  0.4581137988937202  0.8917917209917192  0.5690878202117133  1.0000
  N   N18       1.0  0.5418890514427944  0.10820966654684837  0.0690900674700075  1.0000
  N   N19       1.0  0.041874378226246706  0.3917910988901312  0.0690889365701537  1.0000
  N   N20       1.0  0.958123589951022  0.6082060789265712  0.5690900959017355  1.0000
  N   N21       1.0  0.5779968185173703  0.4505883344279553  0.8479237750555981  1.0000
  N   N22       1.0  0.42199621637893614  0.5494119335594194  0.34792189089670705  1.0000
  N   N23       1.0  0.9219946703215527  0.9505851992213934  0.3479304369447362  1.0000
  N   N24       1.0  0.07799958506200971  0.049414016276564596  0.8479261044001448  1.0000
  Cl  Cl1       1.0  0.06311428512746892  0.3935619773423724  0.8623932365533165  1.0000
  Cl  Cl2       1.0  0.9368908258014274  0.6064370708928948  0.3623935646511569  1.0000
  Cl  Cl3       1.0  0.4369066705224398  0.8935672893859844  0.3623907104864657  1.0000
  Cl  Cl4       1.0  0.5631033225812702  0.10644017829507392  0.8623926563644346  1.0000
  O   O1        1.0  0.722473730534972  0.43664210378966567  0.9596923478739613  1.0000
  O   O2        1.0  0.2775207464411906  0.5633589765664127  0.45969242139157984  1.0000
  O   O3        1.0  0.777517944479385  0.9366365943485206  0.4596998703550811  1.0000
  O   O4        1.0  0.2224716502838149  0.0633602762161942  0.9596980638707322  1.0000
