data_image0
_chemical_formula_structural       Na4Gd4H24C20O40
_chemical_formula_sum              "Na4 Gd4 H24 C20 O40"
_cell_length_a       6.206869566121394
_cell_length_b       9.527799943061313
_cell_length_c       15.668318355743311
_cell_angle_alpha    90.00012480551922
_cell_angle_beta     92.7139727314948
_cell_angle_gamma    90.00038502509075

_space_group_name_H-M_alt    "P 1"
_space_group_IT_number       1

loop_
  _space_group_symop_operation_xyz
  'x, y, z'

loop_
  _atom_site_type_symbol
  _atom_site_label
  _atom_site_symmetry_multiplicity
  _atom_site_fract_x
  _atom_site_fract_y
  _atom_site_fract_z
  _atom_site_occupancy
  Na  Na1       1.0  0.9809445830694017  0.9687603854403902  0.2731819403490121  1.0000
  Na  Na2       1.0  0.019050174841460408  0.4687613475179758  0.2268152390674203  1.0000
  Na  Na3       1.0  0.0190565815425003  0.031239429522486293  0.726816855765577  1.0000
  Na  Na4       1.0  0.980947763946304  0.5312405665582176  0.7731834921242253  1.0000
  Gd  Gd1       1.0  0.4341205606307099  0.9745042079586669  0.12141245924463107  1.0000
  Gd  Gd2       1.0  0.5658806759190823  0.4745039122935566  0.3785886873501738  1.0000
  Gd  Gd3       1.0  0.5658983349188489  0.0254966566061228  0.8785879701997459  1.0000
  Gd  Gd4       1.0  0.4341075630239004  0.5254948530850567  0.6214124015539182  1.0000
  H   H1        1.0  0.6637885003577466  0.4709749497236329  0.07466240363979887  1.0000
  H   H2        1.0  0.3362062584912095  0.9709664814123187  0.425337331572841  1.0000
  H   H3        1.0  0.3362207233000944  0.5290322121799704  0.9253371929136589  1.0000
  H   H4        1.0  0.6637803563562699  0.029029135284297097  0.5746650011108156  1.0000
  H   H5        1.0  0.38002843592279595  0.475258650141967  0.0827282599577046  1.0000
  H   H6        1.0  0.6199615181194956  0.9752534899099103  0.41727266052696166  1.0000
  H   H7        1.0  0.6199646641122031  0.5247432639234901  0.9172703738471666  1.0000
  H   H8        1.0  0.3800234726380083  0.024740027664947196  0.5827309159370344  1.0000
  H   H9        1.0  0.060629681705322  0.7179272707345278  0.3535931264038013  1.0000
  H   H10       1.0  0.9393704893606484  0.21792565846388356  0.14640511610137  1.0000
  H   H11       1.0  0.9393602092144135  0.2820704450793555  0.6464035281071572  1.0000
  H   H12       1.0  0.0606371101740777  0.7820731069565242  0.8535957242277233  1.0000
  H   H13       1.0  0.859355104524404  0.7716865247907447  0.40025666664340054  1.0000
  H   H14       1.0  0.14064401953296368  0.27169280148863345  0.09974162387607777  1.0000
  H   H15       1.0  0.1406412213181554  0.2283101414806694  0.599742032082055  1.0000
  H   H16       1.0  0.8593667946866503  0.7283080630617178  0.9002605576232695  1.0000
  H   H17       1.0  0.0608583983935915  0.21598665713960224  0.36771961984927504  1.0000
  H   H18       1.0  0.9391368967671169  0.7159881469626866  0.13228043673285575  1.0000
  H   H19       1.0  0.9391411253808001  0.7840100091447366  0.632282334411137  1.0000
  H   H20       1.0  0.0608626382127966  0.2840169158012742  0.8677202412896603  1.0000
  H   H21       1.0  0.8717953584759074  0.16584893384348473  0.42192899300012937  1.0000
  H   H22       1.0  0.12820423654230953  0.6658529840097598  0.078072362165166  1.0000
  H   H23       1.0  0.1282073799612675  0.8341456333298324  0.5780743024273958  1.0000
  H   H24       1.0  0.8717937134123231  0.33414997962437093  0.9219250927830912  1.0000
  C   C1        1.0  0.621838889069842  0.21756410139544607  0.24752556533299233  1.0000
  C   C2        1.0  0.3781532415829502  0.7175803746169293  0.25246932372021996  1.0000
  C   C3        1.0  0.3781606682051333  0.782435713562691  0.7524725601972477  1.0000
  C   C4        1.0  0.621854397021977  0.28241944035564603  0.7475270497550497  1.0000
  C   C5        1.0  0.38022209850375793  0.2130483978798594  0.264993864982081  1.0000
  C   C6        1.0  0.6197748345362654  0.713065661831223  0.23499983845504593  1.0000
  C   C7        1.0  0.6197822751792117  0.7869472188526672  0.7350069104201394  1.0000
  C   C8        1.0  0.38023440028290867  0.2869415000700783  0.7649984818542419  1.0000
  C   C9        1.0  0.9363407109461264  0.9908100744615924  0.04045771674814349  1.0000
  C   C10       1.0  0.0636671488933302  0.49080683291872856  0.4595435841012616  1.0000
  C   C11       1.0  0.06367816789457238  0.0091970874680953  0.9595446270672099  1.0000
  C   C12       1.0  0.9363291825409447  0.5091919324720137  0.5404544765036761  1.0000
  C   C13       1.0  0.502787830932121  0.2962048752936752  0.019580058118918893  1.0000
  C   C14       1.0  0.49720668450293454  0.7962025584977397  0.4804213623186015  1.0000
  C   C15       1.0  0.4972213815422819  0.7037980883712721  0.9804208146755753  1.0000
  C   C16       1.0  0.5027734619321791  0.20379305818801902  0.5195827548822862  1.0000
  C   C17       1.0  0.5086525843151221  0.4522881758404083  0.03913945313384199  1.0000
  C   C18       1.0  0.4913387631791508  0.9522826133608997  0.4608589129405941  1.0000
  C   C19       1.0  0.4913357494937215  0.5477095399583689  0.9608507876939782  1.0000
  C   C20       1.0  0.5086446314193438  0.047714052887649  0.5391427166972418  1.0000
  O   O1        1.0  0.6977844641320063  0.11494658891830768  0.20678055608850338  1.0000
  O   O2        1.0  0.30220808751104755  0.6149311926345291  0.29322697423982896  1.0000
  O   O3        1.0  0.30221988730009736  0.885062672101959  0.7932227718122746  1.0000
  O   O4        1.0  0.6977963475427201  0.3850612754045954  0.7067667818170733  1.0000
  O   O5        1.0  0.7253409833439618  0.3230945112257828  0.2751783447920744  1.0000
  O   O6        1.0  0.2746714957765589  0.8230808441810424  0.2248304923150499  1.0000
  O   O7        1.0  0.27465694990179657  0.6769147497732533  0.724821024527152  1.0000
  O   O8        1.0  0.7253361260697985  0.17691582211427456  0.7751677955241261  1.0000
  O   O9        1.0  0.27601090111315324  0.10880054594036176  0.23560102880613698  1.0000
  O   O10       1.0  0.7239993781600446  0.6087858356643423  0.2644011063089308  1.0000
  O   O11       1.0  0.723996692835371  0.891197169920957  0.764400449644256  1.0000
  O   O12       1.0  0.2760130433909537  0.39121397933050156  0.7356017457739836  1.0000
  O   O13       1.0  0.30517089033810413  0.31474440030004297  0.3067703902751262  1.0000
  O   O14       1.0  0.6948237755471  0.8147324516367364  0.1932361628831529  1.0000
  O   O15       1.0  0.6948253908756712  0.6852554146613128  0.6932334134293896  1.0000
  O   O16       1.0  0.30518542574939295  0.18526736334979427  0.8067659861531524  1.0000
  O   O17       1.0  0.7315915317709809  0.9955032418884144  0.02995004002817579  1.0000
  O   O18       1.0  0.2684067111182031  0.495498833139159  0.47004979682770187  1.0000
  O   O19       1.0  0.26843056731317455  0.0045018209291001  0.9700530068322093  1.0000
  O   O20       1.0  0.7315686747156178  0.5045009817606925  0.5299452892803274  1.0000
  O   O21       1.0  0.04319996820042601  0.9728219378468523  0.10959778445172927  1.0000
  O   O22       1.0  0.956801272957186  0.47282024270929657  0.3904008071355349  1.0000
  O   O23       1.0  0.9568221197168683  0.027182075412724802  0.8904065386520371  1.0000
  O   O24       1.0  0.04318058126690259  0.5271753739604463  0.6095924944521298  1.0000
  O   O25       1.0  0.41559879280352874  0.21724321976577704  0.0745406281703964  1.0000
  O   O26       1.0  0.5843997302218823  0.7172379342004119  0.4254607714562652  1.0000
  O   O27       1.0  0.5844185010063541  0.782760793473848  0.9254584925699092  1.0000
  O   O28       1.0  0.4155772238620727  0.28275768247127087  0.5745394520875776  1.0000
  O   O29       1.0  0.5875365582871693  0.25021713220235137  0.9524678005879748  1.0000
  O   O30       1.0  0.41246201637324026  0.7502128654388683  0.5475339890120237  1.0000
  O   O31       1.0  0.41246780985379417  0.7497858314530105  0.04753361294182668  1.0000
  O   O32       1.0  0.5875262058166868  0.249783800822719  0.4524690142567564  1.0000
  O   O33       1.0  0.003536703218479399  0.7997351724147563  0.38280618884287065  1.0000
  O   O34       1.0  0.9964610863993925  0.2997379009209311  0.11719402556316537  1.0000
  O   O35       1.0  0.9964579985451467  0.20026149385538616  0.6171937536645016  1.0000
  O   O36       1.0  0.0035481204777668015  0.7002619140644484  0.8828074853510585  1.0000
  O   O37       1.0  0.9979252615328277  0.1319116251054879  0.39256409138805276  1.0000
  O   O38       1.0  0.0020707615756024  0.6319131328611646  0.10743587180687798  1.0000
  O   O39       1.0  0.0020678384745523013  0.8680850411587715  0.6074345424128892  1.0000
  O   O40       1.0  0.9979207478810609  0.3680919298768258  0.892560177049745  1.0000
