data_image0
_chemical_formula_structural       Sm2H18C28N2O16
_chemical_formula_sum              "Sm2 H18 C28 N2 O16"
_cell_length_a       7.289681049500862
_cell_length_b       8.588564752643109
_cell_length_c       11.785660989975302
_cell_angle_alpha    75.46575307539213
_cell_angle_beta     87.05821887358013
_cell_angle_gamma    85.41533806771463

_space_group_name_H-M_alt    "P 1"
_space_group_IT_number       1

loop_
  _space_group_symop_operation_xyz
  'x, y, z'

loop_
  _atom_site_type_symbol
  _atom_site_label
  _atom_site_symmetry_multiplicity
  _atom_site_fract_x
  _atom_site_fract_y
  _atom_site_fract_z
  _atom_site_occupancy
  Sm  Sm1       1.0  0.29989050610730333  0.19267466270028416  0.4934132001162084  1.0000
  Sm  Sm2       1.0  0.7001133784778804  0.8073208074850553  0.5065863557403603  1.0000
  H   H1        1.0  0.9049191169645854  0.19903525194038707  0.46545049488677387  1.0000
  H   H2        1.0  0.0950819294950024  0.8009614328300924  0.5345489064835577  1.0000
  H   H3        1.0  0.9093118190283319  0.38720098047075874  0.4339000992544229  1.0000
  H   H4        1.0  0.09068749227504477  0.6128005314468936  0.5660984348976967  1.0000
  H   H5        1.0  0.8924341706061015  0.11998132366478838  0.15452371995043276  1.0000
  H   H6        1.0  0.10755950476572453  0.8800214578263308  0.8454781177760253  1.0000
  H   H7        1.0  0.35647257184828623  0.23960151807440155  0.9121323497264627  1.0000
  H   H8        1.0  0.6435240972775633  0.7603976605240632  0.0878717873203883  1.0000
  H   H9        1.0  0.5650517418424671  0.10530411759941669  0.0712335531828359  1.0000
  H   H10       1.0  0.43494617055792884  0.8946974218124025  0.9287667099995787  1.0000
  H   H11       1.0  0.8235951058312453  0.36922884845006365  0.06695766665638557  1.0000
  H   H12       1.0  0.17640539875390715  0.6307750703568756  0.933040380470935  1.0000
  H   H13       1.0  0.6166109880117647  0.5558964166487144  0.9241325049576119  1.0000
  H   H14       1.0  0.38338955406796776  0.44410746760127023  0.07586300203998773  1.0000
  H   H15       1.0  0.9337147430555818  0.39965408317731027  0.6463564019291396  1.0000
  H   H16       1.0  0.06628116902725625  0.6003377967269897  0.3536440447117215  1.0000
  H   H17       1.0  0.12572046518645416  0.21873275535037348  0.7971001940493211  1.0000
  H   H18       1.0  0.8742794283109917  0.781260362934013  0.2029033068926154  1.0000
  C   C1        1.0  0.4858434172707009  0.9735959419700606  0.2989974440340148  1.0000
  C   C2        1.0  0.5141621996456396  0.026395826107965085  0.7009968263642179  1.0000
  C   C3        1.0  0.350155628932754  0.04934965578128469  0.2047132111351431  1.0000
  C   C4        1.0  0.6498409998734545  0.950650682413986  0.7952873133649021  1.0000
  C   C5        1.0  0.15817681708724515  0.052221232104713494  0.22563488303886461  1.0000
  C   C6        1.0  0.8418197742243906  0.9477791406475119  0.7743681815909084  1.0000
  C   C7        1.0  0.039872249180938  0.12324169980566778  0.13480413264294097  1.0000
  C   C8        1.0  0.96012812759723  0.8767634592309648  0.865196228906946  1.0000
  C   C9        1.0  0.10944545227731341  0.19662343741894966  0.02370385423743218  1.0000
  C   C10       1.0  0.8905591490312335  0.8033804910573535  0.9762957794783061  1.0000
  C   C11       1.0  0.2995498881363687  0.18682715467368635  0.9995908677108787  1.0000
  C   C12       1.0  0.7004534045816089  0.8131755956240382  0.0004107207423160956  1.0000
  C   C13       1.0  0.41709006901213297  0.11188837438857037  0.0900651434826898  1.0000
  C   C14       1.0  0.5829078308900721  0.8881131765422267  0.909935966409634  1.0000
  C   C15       1.0  0.07216646649593637  0.9789474208862429  0.34349388178605983  1.0000
  C   C16       1.0  0.9278290065230693  0.021050475862786296  0.6565045896090567  1.0000
  C   C17       1.0  0.8395110803131162  0.380462393867127  0.9729963340626853  1.0000
  C   C18       1.0  0.16048657364824956  0.6195427510439302  0.027002405288314366  1.0000
  C   C19       1.0  0.7279671941206874  0.48284852491536856  0.8938369961760984  1.0000
  C   C20       1.0  0.2720349428100804  0.5171517839361214  0.1061625391721677  1.0000
  C   C21       1.0  0.763902600860533  0.5079136813607192  0.7695461500573302  1.0000
  C   C22       1.0  0.2360925609016108  0.49208899200334594  0.23044803166947506  1.0000
  C   C23       1.0  0.9072529546364265  0.3999456208412511  0.7378643514978692  1.0000
  C   C24       1.0  0.09274963385637142  0.600048659646525  0.26213631238623947  1.0000
  C   C25       1.0  0.014539267283218714  0.29842006659959  0.8205768833475773  1.0000
  C   C26       1.0  0.9854573087051579  0.7015814427114716  0.17942087531557152  1.0000
  C   C27       1.0  0.5917936168482144  0.4573231301713037  0.48367645740708554  1.0000
  C   C28       1.0  0.40821684510781614  0.5427110285762209  0.5163257870657603  1.0000
  N   N1        1.0  0.9856276961594261  0.29006338057806846  0.9379146734402043  1.0000
  N   N2        1.0  0.014374235150150124  0.7099393626568825  0.0620861039135505  1.0000
  O   O1        1.0  0.5165965628180375  0.04716253177091549  0.378072973093893  1.0000
  O   O2        1.0  0.4834055491163484  0.9528378001185442  0.6219282556741987  1.0000
  O   O3        1.0  0.5691246983731376  0.84034510304361  0.2960072577768856  1.0000
  O   O4        1.0  0.4308700396484256  0.1596624506063478  0.7039902546707992  1.0000
  O   O5        1.0  0.1627868858987186  0.9757998489021842  0.4337857105281486  1.0000
  O   O6        1.0  0.8372126185276588  0.024199240150991796  0.5662124283283987  1.0000
  O   O7        1.0  0.9156972573820642  0.9240202237217898  0.34553110931778974  1.0000
  O   O8        1.0  0.0843034403260958  0.07598127222067319  0.6544665425139656  1.0000
  O   O9        1.0  0.6749145668751385  0.6191058805798518  0.696884512793659  1.0000
  O   O10       1.0  0.3250883425476517  0.3808847368137619  0.3031134413723109  1.0000
  O   O11       1.0  0.5897174134644061  0.3130906425227805  0.47877226414966156  1.0000
  O   O12       1.0  0.41028347346950517  0.6868892133614322  0.5212337195711215  1.0000
  O   O13       1.0  0.7339063795531191  0.5393440163797791  0.4644840199772132  1.0000
  O   O14       1.0  0.26608368815191613  0.4606526925213003  0.5355148195669344  1.0000
  O   O15       1.0  0.9858904642230399  0.28794620287763445  0.4301427495825508  1.0000
  O   O16       1.0  0.01411492490077393  0.712046897581956  0.5698606089175228  1.0000
