data_image0
_chemical_formula_structural       Zn2H62C62N2O8
_chemical_formula_sum              "Zn2 H62 C62 N2 O8"
_cell_length_a       10.809686995678135
_cell_length_b       18.234699098096215
_cell_length_c       19.65596919500575
_cell_angle_alpha    89.98867922748533
_cell_angle_beta     90.04329348392075
_cell_angle_gamma    89.7219785685391

_space_group_name_H-M_alt    "P 1"
_space_group_IT_number       1

loop_
  _space_group_symop_operation_xyz
  'x, y, z'

loop_
  _atom_site_type_symbol
  _atom_site_label
  _atom_site_symmetry_multiplicity
  _atom_site_fract_x
  _atom_site_fract_y
  _atom_site_fract_z
  _atom_site_occupancy
  Zn  Zn1       1.0  0.4979507031546644  0.4236234149435276  0.4986527834393828  1.0000
  Zn  Zn2       1.0  0.5018679319247639  0.5763351612818964  0.49867682756946863  1.0000
  H   H1        1.0  0.08302868271034919  0.43880059356299467  0.6053024069942199  1.0000
  H   H2        1.0  0.916000193433426  0.5607775425863507  0.40242481642610534  1.0000
  H   H3        1.0  0.9324907640035105  0.37131122457925864  0.5036414225378396  1.0000
  H   H4        1.0  0.06735892209018599  0.6287219079510963  0.5033814318748641  1.0000
  H   H5        1.0  0.083241035873165  0.4391106652178109  0.40242108122542675  1.0000
  H   H6        1.0  0.9174428084539556  0.5613624909592473  0.6053010550386021  1.0000
  H   H7        1.0  0.3283665030219751  0.5592973121155821  0.15442531040400811  1.0000
  H   H8        1.0  0.34213013633313233  0.42942366403219256  0.8432716447513898  1.0000
  H   H9        1.0  0.6593200617007255  0.5706877161688338  0.8429963294984762  1.0000
  H   H10       1.0  0.673401065668301  0.4408647629615811  0.15487732893084435  1.0000
  H   H11       1.0  0.5164454214709336  0.3824984725323545  0.06218979623681522  1.0000
  H   H12       1.0  0.4878792337793456  0.6177432278410678  0.9355412621489807  1.0000
  H   H13       1.0  0.5141005689888515  0.38243721378329093  0.9356315403736989  1.0000
  H   H14       1.0  0.4857685409354103  0.6177154386374539  0.062086758018566  1.0000
  H   H15       1.0  0.43675880013297064  0.30704408086911883  0.3982399867746836  1.0000
  H   H16       1.0  0.5636198316917032  0.6929313507969822  0.39840930440353634  1.0000
  H   H17       1.0  0.5558479553302007  0.3077702018915147  0.597922651409384  1.0000
  H   H18       1.0  0.4432050118606695  0.692146627563325  0.5977459352986969  1.0000
  H   H19       1.0  0.43944589317649013  0.16908517075393797  0.3934902174521896  1.0000
  H   H20       1.0  0.5611610834773797  0.8308978595691271  0.3936643280608721  1.0000
  H   H21       1.0  0.5555730001537142  0.16983518259123542  0.6035717273120512  1.0000
  H   H22       1.0  0.44349247030134364  0.8300808910593317  0.603407423052886  1.0000
  H   H23       1.0  0.23711907709405716  0.6762582027180172  0.3310587284812243  1.0000
  H   H24       1.0  0.3997247388269258  0.6614407799676272  0.3318348051265617  1.0000
  H   H25       1.0  0.32321416508806067  0.6817058449799517  0.25379258756522927  1.0000
  H   H26       1.0  0.21018106213427498  0.5614021460454666  0.2617634582407363  1.0000
  H   H27       1.0  0.2821298796754448  0.5433425046448975  0.3407542236237547  1.0000
  H   H28       1.0  0.27265315219136  0.3030507664679972  0.675969180023806  1.0000
  H   H29       1.0  0.43284322775164696  0.3234724585985376  0.6841529028626212  1.0000
  H   H30       1.0  0.3416116423979502  0.3102169417633717  0.7581537419007844  1.0000
  H   H31       1.0  0.22254314329911298  0.42486068549777656  0.7324313537270016  1.0000
  H   H32       1.0  0.30218661866984314  0.43499938848437136  0.6545393139325882  1.0000
  H   H33       1.0  0.659070734034671  0.6899181104354922  0.7577372144730463  1.0000
  H   H34       1.0  0.5671945959775471  0.6765273379286468  0.6839008108265079  1.0000
  H   H35       1.0  0.7272883430429501  0.6970036249317175  0.675413223233207  1.0000
  H   H36       1.0  0.7780785774187889  0.575291824224763  0.7319485093639673  1.0000
  H   H37       1.0  0.697826577818354  0.5650587856328072  0.6541934743450996  1.0000
  H   H38       1.0  0.763219023875621  0.3236015694094547  0.3316449864491844  1.0000
  H   H39       1.0  0.6006134456749733  0.3385636549636288  0.33189047019781276  1.0000
  H   H40       1.0  0.6776806072606191  0.3183958454764593  0.2540794555246819  1.0000
  H   H41       1.0  0.7908594186078088  0.4385906660283679  0.2625621717796562  1.0000
  H   H42       1.0  0.7184247709859547  0.45654567749663494  0.34135791925558584  1.0000
  H   H43       1.0  0.7942195458124887  0.03753667298755659  0.3967240646324087  1.0000
  H   H44       1.0  0.711712855330731  0.12167576311995992  0.39142523849236716  1.0000
  H   H45       1.0  0.8673421372957504  0.12093281419766559  0.4206592386115346  1.0000
  H   H46       1.0  0.7225335325774083  0.13534161029516412  0.5183323579762275  1.0000
  H   H47       1.0  0.8055484919222451  0.052984471070594494  0.525525802526822  1.0000
  H   H48       1.0  0.2062544270263444  0.9623190817248782  0.39596158892625516  1.0000
  H   H49       1.0  0.2888606952493049  0.8781904622376617  0.39099690040612967  1.0000
  H   H50       1.0  0.1331334526619798  0.8789053782807341  0.41984344409105034  1.0000
  H   H51       1.0  0.19429928641345373  0.947005301440882  0.5247490564475754  1.0000
  H   H52       1.0  0.2773033182326116  0.8646097450996421  0.517908086695499  1.0000
  H   H53       1.0  0.13212129373153658  0.11975177157064108  0.5796813369315785  1.0000
  H   H54       1.0  0.20913635967087169  0.03705740272744149  0.6033526704037655  1.0000
  H   H55       1.0  0.2888493532184738  0.12178912262998412  0.6070402322992622  1.0000
  H   H56       1.0  0.2730196909235332  0.13429227286813727  0.4801901726316801  1.0000
  H   H57       1.0  0.19197636906859827  0.0515480948375497  0.4745651556391835  1.0000
  H   H58       1.0  0.7902997092463835  0.9627965203518374  0.6041536825974064  1.0000
  H   H59       1.0  0.7105380414633443  0.8780908648271863  0.6076293197607612  1.0000
  H   H60       1.0  0.8673930882137311  0.8800867094112231  0.5806510796387485  1.0000
  H   H61       1.0  0.8081510705277283  0.948370307302973  0.4754089782960024  1.0000
  H   H62       1.0  0.7270367156639139  0.8656561416371459  0.4808314683924167  1.0000
  C   C1        1.0  0.499970055865127  0.4999778948739362  0.6322685179422508  1.0000
  C   C2        1.0  0.5002249335041  0.5000128746392533  0.365421419304731  1.0000
  C   C3        1.0  0.509983526320589  0.4341733125937921  0.034339678297008916  1.0000
  C   C4        1.0  0.494024640181749  0.5660832955649512  0.9634039857295636  1.0000
  C   C5        1.0  0.5080748254151074  0.4340978349970469  0.9634593214252976  1.0000
  C   C6        1.0  0.49214232257411783  0.5660278298109915  0.03428657485703471  1.0000
  C   C7        1.0  0.5010352751669984  0.5000906673915536  0.9268033346090409  1.0000
  C   C8        1.0  0.5010629448320002  0.5001139101215486  0.07093864116959742  1.0000
  C   C9        1.0  0.4635223790979808  0.2738367860200127  0.4420715235474333  1.0000
  C   C10       1.0  0.5366485381024475  0.7261346762061861  0.4421704254657613  1.0000
  C   C11       1.0  0.5295556773027882  0.2742204504951573  0.5543660730936253  1.0000
  C   C12       1.0  0.46989097135909924  0.7257133845871805  0.5542807393845878  1.0000
  C   C13       1.0  0.4646214573884961  0.197648229432815  0.4401812408255026  1.0000
  C   C14       1.0  0.535607847510718  0.8023291323922306  0.4402822323313701  1.0000
  C   C15       1.0  0.5298541630778927  0.19807772926298378  0.5567342607120268  1.0000
  C   C16       1.0  0.46968593150032223  0.801861561645495  0.5566668653487171  1.0000
  C   C17       1.0  0.497733280712964  0.15794622885868387  0.49858214013718793  1.0000
  C   C18       1.0  0.5021806530706668  0.842006300990981  0.49860047594301454  1.0000
  C   C19       1.0  0.613567811497468  0.0388752739321845  0.4990910631068602  1.0000
  C   C20       1.0  0.38641942802473034  0.9610667303507366  0.4988058666217514  1.0000
  C   C21       1.0  0.38535296027176  0.03836927101865229  0.49909895569934565  1.0000
  C   C22       1.0  0.6146242403185908  0.9615710214471347  0.49940541969251484  1.0000
  C   C23       1.0  0.5010646077297166  0.9236670825450727  0.49889280938639075  1.0000
  C   C24       1.0  0.49890129841826086  0.0762787832274441  0.4988672583704386  1.0000
  C   C25       1.0  0.7380189128321176  0.49626033930330465  0.5018852348472224  1.0000
  C   C26       1.0  0.26180814250486856  0.5037331677851142  0.5016475809249672  1.0000
  C   C27       1.0  0.9639261510713338  0.42826440923440867  0.5038440819955599  1.0000
  C   C28       1.0  0.0359384676768997  0.5717653682456857  0.5036987218214364  1.0000
  C   C29       1.0  0.043873610500206404  0.46583345275497123  0.4473871631081467  1.0000
  C   C30       1.0  0.9558044480900918  0.534284118111387  0.5602639313433289  1.0000
  C   C31       1.0  0.04440653848794798  0.46582962716252757  0.5602731629826465  1.0000
  C   C32       1.0  0.9556845184488764  0.534104642338157  0.4473699529889572  1.0000
  C   C33       1.0  0.12482138827078869  0.5039750732589852  0.5041678215007721  1.0000
  C   C34       1.0  0.8750287141240847  0.4960419875172803  0.5043141331857229  1.0000
  C   C35       1.0  0.4021708985835203  0.533940885222357  0.2537063529790019  1.0000
  C   C36       1.0  0.4103684736909088  0.4592761657674345  0.744045011125394  1.0000
  C   C37       1.0  0.5903837930269943  0.5407622702833023  0.7438600772165033  1.0000
  C   C38       1.0  0.5989642830314635  0.4661706239155237  0.2539490462028127  1.0000
  C   C39       1.0  0.4047369065769216  0.5339964971092784  0.18254566554134044  1.0000
  C   C40       1.0  0.41254039628532974  0.45978608295263956  0.8151844316250705  1.0000
  C   C41       1.0  0.5887308743047582  0.5403219290210329  0.8150134887911521  1.0000
  C   C42       1.0  0.5968790794967375  0.4662019634673342  0.1827750153587289  1.0000
  C   C43       1.0  0.5009348855188803  0.5001321639718056  0.1462704186533159  1.0000
  C   C44       1.0  0.5007672767540683  0.5000884452383615  0.8514719245119623  1.0000
  C   C45       1.0  0.5004442175983214  0.5000106315527689  0.2889037734018274  1.0000
  C   C46       1.0  0.5002435865769285  0.5000150814337301  0.7087486874922108  1.0000
  C   C47       1.0  0.2957428489109261  0.569922512086194  0.29110723189890564  1.0000
  C   C48       1.0  0.314867894331087  0.6524079740121065  0.3024679215681162  1.0000
  C   C49       1.0  0.3123100690316178  0.41559280328054626  0.7071936856675338  1.0000
  C   C50       1.0  0.34117772377648947  0.33307637583988026  0.7064014660713697  1.0000
  C   C51       1.0  0.6880927811935678  0.5844860447522675  0.7068426202026218  1.0000
  C   C52       1.0  0.6590778772410458  0.6669785758944541  0.7060149255956247  1.0000
  C   C53       1.0  0.7050644355182526  0.4300751775350519  0.2916280534277931  1.0000
  C   C54       1.0  0.6857350219597151  0.347579511268485  0.30282074680204835  1.0000
  C   C55       1.0  0.7339863215841119  0.08095583353839689  0.49526863879697924  1.0000
  C   C56       1.0  0.7795969979772579  0.09075896440486989  0.4218227847539354  1.0000
  C   C57       1.0  0.2660270524458568  0.9189859726055829  0.49473705858331135  1.0000
  C   C58       1.0  0.22080113235510615  0.9091157089406181  0.42118190642604253  1.0000
  C   C59       1.0  0.26393391136856076  0.08002018742770636  0.5037767663476205  1.0000
  C   C60       1.0  0.2208675807500597  0.09017117908638987  0.5776908959850502  1.0000
  C   C61       1.0  0.736009267136559  0.9199113222633668  0.5044360990532939  1.0000
  C   C62       1.0  0.7786826339469995  0.9097099999733513  0.5784478925638299  1.0000
  N   N1        1.0  0.49613835640028725  0.31133983821880656  0.4981259516728826  1.0000
  N   N2        1.0  0.5036116926269613  0.6886062696465983  0.49813424089040137  1.0000
  O   O1        1.0  0.527706757255295  0.43988851483664604  0.6028480861867181  1.0000
  O   O2        1.0  0.5297463936723189  0.5595622253571548  0.3949155562896892  1.0000
  O   O3        1.0  0.47047340185272907  0.44043379570957353  0.3948146591481532  1.0000
  O   O4        1.0  0.4720567995031572  0.5600400983453183  0.6028136439867708  1.0000
  O   O5        1.0  0.6841230271353708  0.43717375912265066  0.48434979946257795  1.0000
  O   O6        1.0  0.3156690944837592  0.5628183023489156  0.4841493712223866  1.0000
  O   O7        1.0  0.3145462837567692  0.4428755162508012  0.516074644067331  1.0000
  O   O8        1.0  0.6852916002049979  0.5570806640063992  0.5163562707345833  1.0000
