data_image0
_chemical_formula_structural       Al2H18C26S2N2O10
_chemical_formula_sum              "Al2 H18 C26 S2 N2 O10"
_cell_length_a       6.639854675075503
_cell_length_b       12.790326715380818
_cell_length_c       17.65220797815372
_cell_angle_alpha    81.41043133320703
_cell_angle_beta     79.1978035987844
_cell_angle_gamma    73.56899247959419

_space_group_name_H-M_alt    "P 1"
_space_group_IT_number       1

loop_
  _space_group_symop_operation_xyz
  'x, y, z'

loop_
  _atom_site_type_symbol
  _atom_site_label
  _atom_site_symmetry_multiplicity
  _atom_site_fract_x
  _atom_site_fract_y
  _atom_site_fract_z
  _atom_site_occupancy
  Al  Al1       1.0  0.49791418354224953  0.5169823909561659  0.49850570628505864  1.0000
  Al  Al2       1.0  0.9979285783563014  0.5165660847190879  0.5000872382843369  1.0000
  H   H1        1.0  0.2917934122015994  0.38903880729643003  0.5547424143138855  1.0000
  H   H2        1.0  0.7682632128202584  0.57527949020664  0.4035377497016697  1.0000
  H   H3        1.0  0.7153744858545111  0.41044214868294665  0.27705977904482654  1.0000
  H   H4        1.0  0.7885802915890495  0.3869825943188091  0.13555962602188032  1.0000
  H   H5        1.0  0.04913800175125262  0.5396002464803547  0.2633661207845748  1.0000
  H   H6        1.0  0.9099552539349888  0.5435451126150074  0.7344325389297667  1.0000
  H   H7        1.0  0.3337472085254873  0.45784923260063703  0.7260113597119543  1.0000
  H   H8        1.0  0.2792121000569665  0.41811871586003246  0.8708656831033678  1.0000
  H   H9        1.0  0.12529668324026494  0.5324498585467271  0.05368559517513209  1.0000
  H   H10       1.0  0.9428981917527891  0.5697894998768974  0.1344652593509323  1.0000
  H   H11       1.0  0.8269768140465105  0.5211217178966269  0.9470840379300965  1.0000
  H   H12       1.0  0.9775961243610993  0.5633895757284508  0.8639080862810786  1.0000
  H   H13       1.0  0.5444172242860007  0.8085150142067833  0.4637234810675184  1.0000
  H   H14       1.0  0.5009115803577872  0.9388011348564692  0.4075084868612323  1.0000
  H   H15       1.0  0.4463741266660789  0.8249571990080686  0.3757047148515795  1.0000
  H   H16       1.0  0.5436563986656893  0.22086817956542157  0.6191091319502604  1.0000
  H   H17       1.0  0.5119889379523245  0.08981517994953951  0.6089719866073937  1.0000
  H   H18       1.0  0.4454232560961131  0.2010165467354598  0.5371482997735981  1.0000
  C   C1        1.0  0.8589913674112709  0.3183758020853207  0.5057997329119885  1.0000
  C   C2        1.0  0.6642548782899952  0.5198679784149933  0.6366660850705088  1.0000
  C   C3        1.0  0.1367309319014396  0.7114428624703495  0.4956070405648775  1.0000
  C   C4        1.0  0.3336936883475374  0.4976895991966473  0.3612060669787454  1.0000
  C   C5        1.0  0.37763842763819616  0.47829483718887655  0.2776881740395964  1.0000
  C   C6        1.0  0.587232395249096  0.4340809091419616  0.2423252147289574  1.0000
  C   C7        1.0  0.6270279563486342  0.420798758075165  0.1638674102829043  1.0000
  C   C8        1.0  0.4612432124659876  0.45220426941218517  0.11872518019004019  1.0000
  C   C9        1.0  0.2478509535571192  0.49446297715061166  0.15506503663313964  1.0000
  C   C10       1.0  0.2104137722354978  0.5061332570928841  0.23458613825690117  1.0000
  C   C11       1.0  0.5013072129480562  0.44801195556596  0.0376475442349076  1.0000
  C   C12       1.0  0.5191807548539347  0.4524714715475399  0.9669032971985771  1.0000
  C   C13       1.0  0.5556082244102643  0.4655803053206285  0.8850401249963086  1.0000
  C   C14       1.0  0.7370476397323317  0.5018271041512676  0.846637544301764  1.0000
  C   C15       1.0  0.7702906629650813  0.5181363349825148  0.7653661995325293  1.0000
  C   C16       1.0  0.6242712274625148  0.5038485303910322  0.7229845868932544  1.0000
  C   C17       1.0  0.4440849774795411  0.46946166213408713  0.7605758354840902  1.0000
  C   C18       1.0  0.4139860730633275  0.4483152538457703  0.8407234516495095  1.0000
  C   C19       1.0  0.21564002561582632  0.8995275933894864  0.4680896189422086  1.0000
  C   C20       1.0  0.7812020823908626  0.12987401114224184  0.535128214034664  1.0000
  C   C21       1.0  0.08437417472949692  0.8301699970720978  0.4976709491133349  1.0000
  C   C22       1.0  0.9114825760730341  0.1994181695716436  0.5048444473033911  1.0000
  C   C23       1.0  0.8935340748829361  0.020789882793998498  0.5211169182633739  1.0000
  C   C24       1.0  0.1026945602594722  0.008591195805024703  0.48183496198382875  1.0000
  C   C25       1.0  0.43884624466508615  0.8666759005305386  0.42665937520359176  1.0000
  C   C26       1.0  0.5589806274507225  0.16215644165473725  0.5776069816538795  1.0000
  S   S1        1.0  0.83092753115227  0.8967248481820179  0.5408610800611484  1.0000
  S   S2        1.0  0.16449344424937357  0.13288934785666842  0.4613318418427497  1.0000
  N   N1        1.0  0.08402267829569612  0.5212399858428824  0.11206777343652165  1.0000
  N   N2        1.0  0.8780118027624084  0.5168729160989615  0.8894435817588972  1.0000
  O   O1        1.0  0.6620188483673104  0.3681027220217815  0.5204678793922001  1.0000
  O   O2        1.0  0.8572052255933615  0.5047753455995407  0.6043362468272164  1.0000
  O   O3        1.0  0.9841262834375256  0.6654083596215588  0.5112003853402243  1.0000
  O   O4        1.0  0.4944941355716638  0.48639769583098763  0.39458753269379804  1.0000
  O   O5        1.0  0.33253238299006693  0.662266162215744  0.47770228135174625  1.0000
  O   O6        1.0  0.13947490077887886  0.5258798361300949  0.39305757992284646  1.0000
  O   O7        1.0  0.013111164725337595  0.36357316069251805  0.4921363332424349  1.0000
  O   O8        1.0  0.5039400271781459  0.5442075096760705  0.6013875469348307  1.0000
  O   O9        1.0  0.2573881141970205  0.46616811998488594  0.5358682330387906  1.0000
  O   O10       1.0  0.7435519988647741  0.562912095029816  0.4596427451944294  1.0000
