data_image0
_chemical_formula_structural       C56F12H24N16O8Zn4
_chemical_formula_sum              "C56 F12 H24 N16 O8 Zn4"
_cell_length_a       17.999109688192856
_cell_length_b       17.984164687276444
_cell_length_c       18.590915247435817
_cell_angle_alpha    105.349802621152
_cell_angle_beta     115.51649050721232
_cell_angle_gamma    106.29832308141282

_space_group_name_H-M_alt    "P 1"
_space_group_IT_number       1

loop_
  _space_group_symop_operation_xyz
  'x, y, z'

loop_
  _atom_site_type_symbol
  _atom_site_label
  _atom_site_symmetry_multiplicity
  _atom_site_fract_x
  _atom_site_fract_y
  _atom_site_fract_z
  _atom_site_occupancy
  C   C1        1.0  0.2958250481837722  0.6839834379832439  0.76140547843994  1.0000
  C   C2        1.0  0.5400499811018804  0.36844212353570077  0.35086409674939023  1.0000
  C   C3        1.0  0.8117268410053097  0.6501676035697769  0.33424533071151785  1.0000
  C   C4        1.0  0.6069632462199264  0.5171067417229408  0.30367821537033285  1.0000
  C   C5        1.0  0.3158236264142429  0.47723692684898106  0.6656012482950828  1.0000
  C   C6        1.0  0.21346870174350105  0.3033249984794039  0.6965182744374657  1.0000
  C   C7        1.0  0.76289205955279  0.4968698311770581  0.643533045335424  1.0000
  C   C8        1.0  0.20337745242677116  0.6823597557074378  0.3269329209322791  1.0000
  C   C9        1.0  0.8529934597398139  0.11919226566556776  0.35651172846952744  1.0000
  C   C10       1.0  0.35496994443576546  0.8765948956756303  0.6730733795992592  1.0000
  C   C11       1.0  0.9740520535575069  0.8230876171742094  0.5838111138868598  1.0000
  C   C12       1.0  0.017649007185674685  0.1891414731858916  0.6492367481364242  1.0000
  C   C13       1.0  0.2393078616845158  0.3901328769104778  0.4161209434824756  1.0000
  C   C14       1.0  0.3655022105551921  0.3596686075910753  0.3984362188720851  1.0000
  C   C15       1.0  0.38866657403497834  0.3647361122945654  0.3383584308381629  1.0000
  C   C16       1.0  0.961284344002152  0.967022815361169  0.601565259075933  1.0000
  C   C17       1.0  0.8456898708681776  0.314317603538278  0.2665178514043093  1.0000
  C   C18       1.0  0.026356627888894285  0.05018559193922561  0.6617804858474585  1.0000
  C   C19       1.0  0.4670968908818409  0.3627636859000773  0.34249402581615845  1.0000
  C   C20       1.0  0.2943234975128205  0.371845426919691  0.402905927086465  1.0000
  C   C21       1.0  0.020319397444751305  0.12453395913637168  0.657682575898356  1.0000
  C   C22       1.0  0.9689871539867524  0.8913508425319209  0.5970869947408913  1.0000
  C   C23       1.0  0.9226871219778157  0.5344329737621364  0.2386052473091452  1.0000
  C   C24       1.0  0.6790106740888928  0.4287194114428131  0.33915852324048495  1.0000
  C   C25       1.0  0.18800952669102594  0.4265815520495834  0.5213053357893429  1.0000
  C   C26       1.0  0.08957027969528743  0.3398236669264421  0.6608867303678282  1.0000
  C   C27       1.0  0.905363218477461  0.6666732987529683  0.47861670143673507  1.0000
  C   C28       1.0  0.0477707335236984  0.5791382871386546  0.7333455316533701  1.0000
  C   C29       1.0  0.047558105942613185  0.7205256253614606  0.5921105601041033  1.0000
  C   C30       1.0  0.9388206998636831  0.2758521502288716  0.5927368672282185  1.0000
  C   C31       1.0  0.12845638648826696  0.4553942394117242  0.40778096898713306  1.0000
  C   C32       1.0  0.6831646836140449  0.34600229453925374  0.4073119357090532  1.0000
  C   C33       1.0  0.8980729462253761  0.5209967773524083  0.6396072436771476  1.0000
  C   C34       1.0  0.07087190523802879  0.6218718568968313  0.3315740211198843  1.0000
  C   C35       1.0  0.8812648370354311  0.2583115983253634  0.36033679902084964  1.0000
  C   C36       1.0  0.29022384726358286  0.7393311984489016  0.6684085912724311  1.0000
  C   C37       1.0  0.3438716083367337  0.7604362800812722  0.7604482978281696  1.0000
  C   C38       1.0  0.8331952625969095  0.23340030283795693  0.26720330242886087  1.0000
  C   C39       1.0  1.0722153184877118e-05  0.5835026755158025  0.23955578395568017  1.0000
  C   C40       1.0  0.9662764486679405  0.5660581114840609  0.7327019405441533  1.0000
  C   C41       1.0  0.625507929552583  0.3794920706053446  0.3637384379462887  1.0000
  C   C42       1.0  0.18576917041618646  0.41783679978618676  0.44195077354613943  1.0000
  C   C43       1.0  0.015828029385737404  0.2617427493825844  0.6363236495798007  1.0000
  C   C44       1.0  0.9758943171152126  0.7437028012961945  0.5579560845715577  1.0000
  C   C45       1.0  0.9610779613962988  0.5824882228881308  0.8076210138812172  1.0000
  C   C46       1.0  0.999517679267221  0.5912916707956057  0.16679058319238743  1.0000
  C   C47       1.0  0.7746350543704139  0.15329323366209016  0.19226691292851675  1.0000
  C   C48       1.0  0.42438395184897304  0.8327111443763184  0.8332041191247939  1.0000
  C   C49       1.0  0.9668120741460764  0.5912254744052631  0.8781030165458006  1.0000
  C   C50       1.0  0.9908922715069862  0.5936180338983517  0.09813127610229337  1.0000
  C   C51       1.0  0.7129052666240057  0.08859207964854213  0.12178712231069251  1.0000
  C   C52       1.0  0.4953546457325261  0.8927233689345897  0.9018053167674581  1.0000
  C   C53       1.0  0.9736031704526195  0.5952014905943912  0.9537295275934169  1.0000
  C   C54       1.0  0.9822214343940842  0.5955462850588731  0.023562102148865418  1.0000
  C   C55       1.0  0.641253362122093  0.019789889672033188  0.04618766087186539  1.0000
  C   C56       1.0  0.5718179772963263  0.9586117293783682  0.9763641430676413  1.0000
  F   F1        1.0  0.3183187937578963  0.6678239939899483  0.8321677287206414  1.0000
  F   F2        1.0  0.8499412296303246  0.22133420309893365  0.5537715920421107  1.0000
  F   F3        1.0  0.10428696650524208  0.4653932925552269  0.333345786059752  1.0000
  F   F4        1.0  0.6676210115600368  0.2960010280448557  0.4462987691149534  1.0000
  F   F5        1.0  0.13188402603508084  0.7707398237905706  0.6665172123619457  1.0000
  F   F6        1.0  0.3323142463927126  0.3780396800301347  0.2700924726458069  1.0000
  F   F7        1.0  0.42275144301513  0.3463326041795439  0.4663043285225541  1.0000
  F   F8        1.0  0.10770382194911565  0.061938258702212985  0.7301104694046856  1.0000
  F   F9        1.0  0.8126616639988667  0.32810032481818047  0.19425272144533778  1.0000
  F   F10       1.0  0.8802698431691095  0.9565336449939179  0.5336276492026714  1.0000
  F   F11       1.0  0.8358759579499161  0.4861695072773883  0.16785395176466972  1.0000
  F   F12       1.0  0.1337205755549814  0.6183547924095478  0.8055870810031321  1.0000
  H   H1        1.0  0.6331997661841413  0.5506037222294607  0.37455159043534547  1.0000
  H   H2        1.0  0.7829109620508061  0.5824772766983699  0.2871549395900175  1.0000
  H   H3        1.0  0.8786042621574878  0.6888089637639467  0.34581345022637316  1.0000
  H   H4        1.0  0.763733795401663  0.6764210581572174  0.3074634621058793  1.0000
  H   H5        1.0  0.533770694125316  0.47064319665246046  0.2660769050247822  1.0000
  H   H6        1.0  0.6164343839403015  0.5644068813406944  0.2775723785211568  1.0000
  H   H7        1.0  0.2952525764364749  0.495810354372125  0.7126546151896136  1.0000
  H   H8        1.0  0.3430297129686293  0.5323986294299131  0.6538306274032877  1.0000
  H   H9        1.0  0.3686359557767317  0.455842500154823  0.6924907333322636  1.0000
  H   H10       1.0  0.176237211342652  0.2586982671263343  0.625667320907837  1.0000
  H   H11       1.0  0.2046584162431912  0.2677222999595302  0.734192242471437  1.0000
  H   H12       1.0  0.28680568270478785  0.33895039495276785  0.7226553609101813  1.0000
  H   H13       1.0  0.7906829238247465  0.5647265767241619  0.6894928191957205  1.0000
  H   H14       1.0  0.7732304813266069  0.4585356747886706  0.6809019365377792  1.0000
  H   H15       1.0  0.6893025964632145  0.4706683464642439  0.5934036383245314  1.0000
  H   H16       1.0  0.17591190381894944  0.7125161844559144  0.28435959067653016  1.0000
  H   H17       1.0  0.19131926607305866  0.6182938909410609  0.285928013953793  1.0000
  H   H18       1.0  0.27728578432595413  0.7234611892287146  0.37664564318497906  1.0000
  H   H19       1.0  0.8747193204150747  0.10091701315913332  0.3104284417131851  1.0000
  H   H20       1.0  0.7773960792385138  0.09241609280272908  0.31929845539890067  1.0000
  H   H21       1.0  0.8768547526321838  0.09564147263579066  0.40664084345681323  1.0000
  H   H22       1.0  0.4276668102827867  0.8918747974961502  0.7157569726834082  1.0000
  H   H23       1.0  0.33166735542042125  0.9052573231280262  0.7139577997854047  1.0000
  H   H24       1.0  0.34633296695202626  0.9009088514432192  0.6233739719203584  1.0000
  N   N1        1.0  0.22393721208626952  0.6241745785620905  0.6817863677012355  1.0000
  N   N2        1.0  0.13564768219495674  0.46389031445278306  0.529945918465593  1.0000
  N   N3        1.0  0.0572528460896891  0.39234218308310886  0.6338437966994946  1.0000
  N   N4        1.0  0.9340267455916019  0.6056470827947465  0.469979348514947  1.0000
  N   N5        1.0  0.7584967354954202  0.4234215705018799  0.3661706952598037  1.0000
  N   N6        1.0  0.02429208780687714  0.6396828570065409  0.5400424160587105  1.0000
  N   N7        1.0  0.9613836361324317  0.3517638982731199  0.5908987497453636  1.0000
  N   N8        1.0  0.09966132254968581  0.484154620165512  0.45984186937837274  1.0000
  N   N9        1.0  0.8932098039503914  0.379324331701973  0.3471119596245202  1.0000
  N   N10       1.0  0.7608490947089023  0.3704060470870801  0.4091362715556741  1.0000
  N   N11       1.0  0.937215327238256  0.508272609508559  0.5924374471029238  1.0000
  N   N12       1.0  0.03660381691076963  0.5979570516147205  0.3776719668524109  1.0000
  N   N13       1.0  0.9157586107476303  0.3446338504504922  0.4074599190107405  1.0000
  N   N14       1.0  0.22030006192942134  0.6589616698247199  0.6223219815970893  1.0000
  N   N15       1.0  0.9424797327756947  0.5421159667273726  0.31824332143773393  1.0000
  N   N16       1.0  0.032153596334857905  0.5460106109589802  0.6527262822251245  1.0000
  O   O1        1.0  0.66080527355178  0.47397302622282206  0.29249247191661715  1.0000
  O   O2        1.0  0.1615865540869093  0.6751435438314884  0.37749208882888763  1.0000
  O   O3        1.0  0.8959345027883856  0.21198239344175826  0.4062283954575959  1.0000
  O   O4        1.0  0.2975481429018599  0.7842158419134079  0.6224704694038365  1.0000
  O   O5        1.0  0.8059536198359465  0.48988767796654287  0.5938138127922841  1.0000
  O   O6        1.0  0.23800001300384813  0.4041625157633887  0.5821000612033486  1.0000
  O   O7        1.0  0.18138635422342708  0.3682890812931134  0.707556011664856  1.0000
  O   O8        1.0  0.8222571322041077  0.6559643914572391  0.4178543801272667  1.0000
  Zn  Zn1       1.0  0.11814542242905172  0.504463649625869  0.6309430773179372  1.0000
  Zn  Zn2       1.0  0.8735115547508626  0.48715383417472674  0.3690428502172195  1.0000
  Zn  Zn3       1.0  0.1040970927847694  0.6040651622356918  0.5000010371924972  1.0000
  Zn  Zn4       1.0  0.8873841597553989  0.38737130134632736  0.49997753789551785  1.0000
