data_image0
_chemical_formula_structural       Zr6H16C48Cl12O32
_chemical_formula_sum              "Zr6 H16 C48 Cl12 O32"
_cell_length_a       14.825511533899158
_cell_length_b       14.825309125130156
_cell_length_c       14.825568155138978
_cell_angle_alpha    60.0000422724557
_cell_angle_beta     59.99904519859002
_cell_angle_gamma    60.00074192799423

_space_group_name_H-M_alt    "P 1"
_space_group_IT_number       1

loop_
  _space_group_symop_operation_xyz
  'x, y, z'

loop_
  _atom_site_type_symbol
  _atom_site_label
  _atom_site_symmetry_multiplicity
  _atom_site_fract_x
  _atom_site_fract_y
  _atom_site_fract_z
  _atom_site_occupancy
  Zr  Zr1       1.0  0.880792966881856  0.8807617763586749  0.6192411681088429  1.0000
  Zr  Zr2       1.0  0.11923258368999252  0.11927790248923739  0.380736147318558  1.0000
  Zr  Zr3       1.0  0.11924413790635638  0.880802609182638  0.619220912038635  1.0000
  Zr  Zr4       1.0  0.8807566999791233  0.11920426295295551  0.38079657394249017  1.0000
  Zr  Zr5       1.0  0.11923833655518462  0.8807470678029857  0.38076249957639857  1.0000
  Zr  Zr6       1.0  0.8807601921716283  0.1192399567031331  0.6192135329436255  1.0000
  H   H1        1.0  0.09376700447551639  0.7187138426351113  0.5937642557471959  1.0000
  H   H2        1.0  0.09375693431407224  0.09376428362128311  0.21871183313685089  1.0000
  H   H3        1.0  0.09376539531518084  0.09375667490794366  0.5937689592987281  1.0000
  H   H4        1.0  0.7187178408660556  0.09376388112891498  0.59375486761855  1.0000
  H   H5        1.0  0.13614086234938555  0.5946825356113409  0.3596924740259552  1.0000
  H   H6        1.0  0.8596944541901762  0.4094862240937047  0.6361337483150039  1.0000
  H   H7        1.0  0.5946869019182371  0.13613766543327444  0.9094833260080221  1.0000
  H   H8        1.0  0.4094882506112608  0.8596918291123573  0.09468585837050363  1.0000
  H   H9        1.0  0.8596964093240086  0.1361287534488228  0.09468887641367744  1.0000
  H   H10       1.0  0.13613398843624913  0.8596941652881186  0.909483830615855  1.0000
  H   H11       1.0  0.5946914936736079  0.40948318414523754  0.3596918281290941  1.0000
  H   H12       1.0  0.40948523547894666  0.5946847620416021  0.6361325157715568  1.0000
  H   H13       1.0  0.8597015719401994  0.594672394413749  0.9094892183866746  1.0000
  H   H14       1.0  0.1361400207602869  0.40949338089509985  0.09467321709844612  1.0000
  H   H15       1.0  0.5946785952944252  0.8596963413931037  0.6361358366384878  1.0000
  H   H16       1.0  0.4094973392856786  0.13613375258140795  0.3596924613457658  1.0000
  C   C1        1.0  0.993578263848881  0.6996271546792132  0.5008647956750566  1.0000
  C   C2        1.0  0.3059275048133259  0.0008646244408865312  0.19962761259147044  1.0000
  C   C3        1.0  0.0008619515243067495  0.305930850928462  0.4935810989617265  1.0000
  C   C4        1.0  0.6996284808679073  0.9935788934844754  0.8059304199009817  1.0000
  C   C5        1.0  0.0008595682070049565  0.6996373431096359  0.8059205866123448  1.0000
  C   C6        1.0  0.6996329511638208  0.0008501471039182057  0.49359296384145074  1.0000
  C   C7        1.0  0.993587137292863  0.30592469792403437  0.19963164417210075  1.0000
  C   C8        1.0  0.30592258458342747  0.9935940266786079  0.5008570882667412  1.0000
  C   C9        1.0  0.3059259573147555  0.6996323156282784  0.4935778353586144  1.0000
  C   C10       1.0  0.9935762459214031  0.0008703637114281494  0.8059240880268491  1.0000
  C   C11       1.0  0.6996284032121949  0.3059240617156575  0.5008699814008112  1.0000
  C   C12       1.0  0.0008689952042357944  0.9935768340108383  0.19962657026421468  1.0000
  C   C13       1.0  0.0036749499793555834  0.40666249141406047  0.49163478455223236  1.0000
  C   C14       1.0  0.9916382405166928  0.5980269233225785  0.5036708184055457  1.0000
  C   C15       1.0  0.0833092908185477  0.45948110175960727  0.4131598599535167  1.0000
  C   C16       1.0  0.9131601460566828  0.5440510153294015  0.5833041496612807  1.0000
  C   C17       1.0  0.07538545664461054  0.553416360135941  0.4204541716487071  1.0000
  C   C18       1.0  0.9204579815841567  0.4507443331981947  0.5753802563002067  1.0000
  C   C19       1.0  0.40666664796270874  0.0036735443872260663  0.0980272270993012  1.0000
  C   C20       1.0  0.5980310866715465  0.9916330531807634  0.9066651886131891  1.0000
  C   C21       1.0  0.4594871529189675  0.08330644914076397  0.044049417902662945  1.0000
  C   C22       1.0  0.5440541740436016  0.9131572847488414  0.9594832615626812  1.0000
  C   C23       1.0  0.5534228581928105  0.0753811416559814  0.9507419680534284  1.0000
  C   C24       1.0  0.45074753549211244  0.9204543860321335  0.05341850718512104  1.0000
  C   C25       1.0  0.9916377709328044  0.0036718647252484723  0.9066601451894626  1.0000
  C   C26       1.0  0.0036762091985307  0.9916346335375722  0.09802659602811997  1.0000
  C   C27       1.0  0.9131660264467458  0.08330239504162766  0.9594848398658584  1.0000
  C   C28       1.0  0.08330874033862992  0.9131608491244592  0.04404506868718989  1.0000
  C   C29       1.0  0.9204613047702636  0.07537706675285007  0.053419360660683486  1.0000
  C   C30       1.0  0.07538229471752766  0.9204590537471944  0.9507385086083174  1.0000
  C   C31       1.0  0.4066602294862347  0.5980256677187016  0.4916360778392885  1.0000
  C   C32       1.0  0.5980289090442807  0.40665738870287554  0.5036762459107962  1.0000
  C   C33       1.0  0.4594873016347162  0.5440450416798086  0.4131609401546257  1.0000
  C   C34       1.0  0.544044944418324  0.45948246502346285  0.5833072564513131  1.0000
  C   C35       1.0  0.5534213886824586  0.4507366638073976  0.42046054005544414  1.0000
  C   C36       1.0  0.4507387952997917  0.5534174351922659  0.575380152137086  1.0000
  C   C37       1.0  0.99163433783567  0.40666112623240747  0.09802860983502643  1.0000
  C   C38       1.0  0.0036767097995493055  0.5980330962329176  0.9066596790455178  1.0000
  C   C39       1.0  0.913164760846371  0.45948204398895603  0.04404894222209781  1.0000
  C   C40       1.0  0.08330496537926271  0.544053215269514  0.9594814212861208  1.0000
  C   C41       1.0  0.9204606899790023  0.5534184372135728  0.9507426621168023  1.0000
  C   C42       1.0  0.07538086520431608  0.45074595149745283  0.05341789304902991  1.0000
  C   C43       1.0  0.40665997222182376  0.9916332776125859  0.5036783132515126  1.0000
  C   C44       1.0  0.5980327513389981  0.0036775465536961222  0.4916311884710963  1.0000
  C   C45       1.0  0.4594859550572603  0.9131632308868946  0.5833029523948312  1.0000
  C   C46       1.0  0.5440547586833943  0.08330378208405892  0.41316058031745234  1.0000
  C   C47       1.0  0.5534187476566494  0.9204618157605395  0.57538127811312  1.0000
  C   C48       1.0  0.45074473111613145  0.07538010500782388  0.4204583883596769  1.0000
  Cl  Cl1       1.0  0.1932928022553709  0.41590152395108504  0.3060214342637337  1.0000
  Cl  Cl2       1.0  0.8060104648382306  0.5847959032675761  0.6932810622835391  1.0000
  Cl  Cl3       1.0  0.41591065757167195  0.1932893551956952  0.084786059336075  1.0000
  Cl  Cl4       1.0  0.5848012940201667  0.8060121743476146  0.9159013987444453  1.0000
  Cl  Cl5       1.0  0.8060215747015959  0.19328045517200126  0.9159117005422316  1.0000
  Cl  Cl6       1.0  0.19328950171666262  0.8060150669708436  0.08478734582671885  1.0000
  Cl  Cl7       1.0  0.41591559046514665  0.584786047547894  0.30601475624163044  1.0000
  Cl  Cl8       1.0  0.5847847628127525  0.4159055040366084  0.693289345508788  1.0000
  Cl  Cl9       1.0  0.806023896402081  0.4158950463939918  0.08479896200131525  1.0000
  Cl  Cl10      1.0  0.19328317625068064  0.5848075659909285  0.9158947876990948  1.0000
  Cl  Cl11      1.0  0.4158993066785752  0.8060178533260826  0.6932796148365339  1.0000
  Cl  Cl12      1.0  0.5848076324628905  0.19328537821511577  0.3060100838286104  1.0000
  O   O1        1.0  0.9180194231437825  0.7414234477429674  0.5758939871999331  1.0000
  O   O2        1.0  0.2646663865603855  0.07590390049628581  0.2414149707542421  1.0000
  O   O3        1.0  0.07589970150625186  0.2646643421265154  0.41801534094874876  1.0000
  O   O4        1.0  0.7414231905327142  0.9180142396144079  0.7646635473319916  1.0000
  O   O5        1.0  0.07589288657700866  0.7414261026190089  0.7646458580105175  1.0000
  O   O6        1.0  0.7414213862260581  0.07589591398819104  0.41803648341110744  1.0000
  O   O7        1.0  0.918034209416909  0.26465238763562854  0.24142585346996268  1.0000
  O   O8        1.0  0.2646516311263338  0.9180323807254923  0.575895645748936  1.0000
  O   O9        1.0  0.26466862251722717  0.7414136112245373  0.4180112382915766  1.0000
  O   O10       1.0  0.9180215472732699  0.07590316395312885  0.7646568586226365  1.0000
  O   O11       1.0  0.7414189703345216  0.26465441677892454  0.5759063688876793  1.0000
  O   O12       1.0  0.07590700190672077  0.9180178958479887  0.2414145210405038  1.0000
  O   O13       1.0  0.07167067608499149  0.9241441492933832  0.7676346704826571  1.0000
  O   O14       1.0  0.7365543686963747  0.26762831984593305  0.4241502870501606  1.0000
  O   O15       1.0  0.9241489232154407  0.07166527290877418  0.23655159192085776  1.0000
  O   O16       1.0  0.2676365870940457  0.7365552021691713  0.5716632550833792  1.0000
  O   O17       1.0  0.9241331070294192  0.7365468337817515  0.7676385424424766  1.0000
  O   O18       1.0  0.2676392205299578  0.07168639470987875  0.42414026412728123  1.0000
  O   O19       1.0  0.07169242788285858  0.2676406566695775  0.23653723634178894  1.0000
  O   O20       1.0  0.7365479821317391  0.9241333828186742  0.5716779949715091  1.0000
  O   O21       1.0  0.736549820398082  0.07167131472466795  0.7676387915929724  1.0000
  O   O22       1.0  0.07167903773240135  0.7365423046262835  0.42413846531296423  1.0000
  O   O23       1.0  0.26764413165563605  0.9241365090569005  0.23654648138473516  1.0000
  O   O24       1.0  0.9241420686569979  0.2676392249615206  0.5716718492923435  1.0000
  O   O25       1.0  0.798782310763002  0.06707109609131133  0.567072842331754  1.0000
  O   O26       1.0  0.06707370033718969  0.06707850593242887  0.5670723712474981  1.0000
  O   O27       1.0  0.06707335328962925  0.067069585933325  0.29878088812660036  1.0000
  O   O28       1.0  0.06707212102590857  0.7987805497929016  0.5670726654659717  1.0000
  O   O29       1.0  0.14862731750218922  0.9504665330654946  0.4504512835888832  1.0000
  O   O30       1.0  0.9504577090040837  0.950451705710755  0.45046310725405164  1.0000
  O   O31       1.0  0.9504575938236784  0.14863034402685568  0.45045807268828514  1.0000
  O   O32       1.0  0.9504528458833615  0.9504606250032878  0.6486278278749681  1.0000
