data_image0
_chemical_formula_structural       Cu6H42C40N16
_chemical_formula_sum              "Cu6 H42 C40 N16"
_cell_length_a       11.282729679473965
_cell_length_b       11.44295678437256
_cell_length_c       12.6953
_cell_angle_alpha    88.49354710146136
_cell_angle_beta     65.76227371016874
_cell_angle_gamma    68.28236614533309

_space_group_name_H-M_alt    "P 1"
_space_group_IT_number       1

loop_
  _space_group_symop_operation_xyz
  'x, y, z'

loop_
  _atom_site_type_symbol
  _atom_site_label
  _atom_site_symmetry_multiplicity
  _atom_site_fract_x
  _atom_site_fract_y
  _atom_site_fract_z
  _atom_site_occupancy
  Cu  Cu1       1.0  0.8252642165828379  0.1191464956700798  0.40487951481804874  1.0000
  Cu  Cu2       1.0  0.17473690602161446  0.880850448645255  0.5951228261690247  1.0000
  Cu  Cu3       1.0  0.1352459884250763  0.9486205408806825  0.9926398428634116  1.0000
  Cu  Cu4       1.0  0.8647479134398282  0.05137735462054141  0.0073603838816894  1.0000
  Cu  Cu5       1.0  0.3600502191521358  0.1818848145515091  0.7081434566228354  1.0000
  Cu  Cu6       1.0  0.6399456250702259  0.8181197392509388  0.2918622052298545  1.0000
  H   H1        1.0  0.5248897845881756  0.6610009516971544  0.5586518579561783  1.0000
  H   H2        1.0  0.47510897723361006  0.3389969438040694  0.44135053411982045  1.0000
  H   H3        1.0  0.5507037252163016  0.5014309581068375  0.5826692312996969  1.0000
  H   H4        1.0  0.44929822936269664  0.49857074213794306  0.41732954267536126  1.0000
  H   H5        1.0  0.6287819708502624  0.5822751003896443  0.6330158011732153  1.0000
  H   H6        1.0  0.3712160957632307  0.4177265998551292  0.36698517900254063  1.0000
  H   H7        1.0  0.38557289114508114  0.828733071402894  0.7778788754916307  1.0000
  H   H8        1.0  0.614424065085494  0.1712667264701011  0.22212176718843316  1.0000
  H   H9        1.0  0.12157054589837907  0.0939657516246513  0.28697145145152103  1.0000
  H   H10       1.0  0.8784339094801226  0.9060302415047872  0.7130273330473856  1.0000
  H   H11       1.0  0.026373914979025397  0.7461663314747042  0.06283438732293686  1.0000
  H   H12       1.0  0.9736208188604251  0.2538363199559655  0.9371646354894028  1.0000
  H   H13       1.0  0.11419212389275664  0.576494743740831  0.038620988696507694  1.0000
  H   H14       1.0  0.8857981667897263  0.4235069565039423  0.9613812531083071  1.0000
  H   H15       1.0  0.009381090647835313  0.6530984993294808  0.9647166115708715  1.0000
  H   H16       1.0  0.9906146151829844  0.3469041521011889  0.03528048122839787  1.0000
  H   H17       1.0  0.2963249784951643  0.4047039138457649  0.8408818367233907  1.0000
  H   H18       1.0  0.703672949726787  0.5952958840272302  0.1591160882505208  1.0000
  H   H19       1.0  0.42436053844425453  0.3950503282560335  0.6999868324821463  1.0000
  H   H20       1.0  0.5756344738035607  0.6049494696169617  0.30001294406555706  1.0000
  H   H21       1.0  0.13038583880336319  0.6604349960930662  0.7101728058355548  1.0000
  H   H22       1.0  0.8696076446363322  0.339570508895271  0.289832119412992  1.0000
  H   H23       1.0  0.9692098552344248  0.6437711704997469  0.6269818682384453  1.0000
  H   H24       1.0  0.0307916825446526  0.3562314809309157  0.37301703526482305  1.0000
  H   H25       1.0  0.9699414325424839  0.4295384262275164  0.5880571557592519  1.0000
  H   H26       1.0  0.0300649651934748  0.5704642252031533  0.4119344607579124  1.0000
  H   H27       1.0  0.2462707375453093  0.1334352100979999  0.6057049050077339  1.0000
  H   H28       1.0  0.7537319106166863  0.8665693437044482  0.39429118521889006  1.0000
  H   H29       1.0  0.0731119534851175  0.1785699317275657  0.7125076965786761  1.0000
  H   H30       1.0  0.926890694676885  0.8214346220748823  0.28748996903411245  1.0000
  H   H31       1.0  0.39016307962295826  0.0390537902397554  0.28423148345013527  1.0000
  H   H32       1.0  0.6098419309469987  0.9609431540755723  0.715767075950069  1.0000
  H   H33       1.0  0.3786426524289368  0.1242534127093222  0.40434443956624483  1.0000
  H   H34       1.0  0.6213595805584404  0.8757454339777908  0.5956543004510947  1.0000
  H   H35       1.0  0.33034831307229245  0.2077751432702968  0.2982071395008887  1.0000
  H   H36       1.0  0.6696591966718798  0.7922227522309271  0.7017904855468161  1.0000
  H   H37       1.0  0.7840980554407864  0.3146903395908396  0.7017593869700464  1.0000
  H   H38       1.0  0.21590195678074775  0.6853047023527097  0.29824104113516364  1.0000
  H   H39       1.0  0.8518809620791927  0.158919382442086  0.733642205628577  1.0000
  H   H40       1.0  0.14812488209059893  0.8410756595014632  0.26635294394287706  1.0000
  H   H41       1.0  0.7485526907343002  0.19261989849729128  0.6524239947556936  1.0000
  H   H42       1.0  0.25145426381840963  0.8073770458180433  0.3475746430837887  1.0000
  C   C1        1.0  0.5337251349093535  0.5940869267620243  0.6214306769509578  1.0000
  C   C2        1.0  0.46627334850405316  0.4059138222968599  0.3785709613896699  1.0000
  C   C3        1.0  0.404321363498518  0.6398408704054788  0.7345230492503564  1.0000
  C   C4        1.0  0.595675731123599  0.3601608298393018  0.26548143632463445  1.0000
  C   C5        1.0  0.3118318758166296  0.5826527211876638  0.7980299474489672  1.0000
  C   C6        1.0  0.6881691083962809  0.41734232075588545  0.20197248910859136  1.0000
  C   C7        1.0  0.20884220809580256  0.6712328583075333  0.8997567800587447  1.0000
  C   C8        1.0  0.7911537761433963  0.3287669395654618  0.10024500494130711  1.0000
  C   C9        1.0  0.0834704691235686  0.6609391246143517  0.9968160653173616  1.0000
  C   C10       1.0  0.9165231543329566  0.3390616244445326  0.0031849830785332833  1.0000
  C   C11       1.0  0.31720784280418  0.45628006631715573  0.764833893956464  1.0000
  C   C12       1.0  0.6827895302263158  0.5437187803699501  0.23516740688847904  1.0000
  C   C13       1.0  0.21518063456091596  0.45876266148803074  0.7153349011593946  1.0000
  C   C14       1.0  0.7848165984527425  0.5412409411285282  0.28467106423127575  1.0000
  C   C15       1.0  0.12741524932889087  0.5690345928116471  0.6925895456433794  1.0000
  C   C16       1.0  0.8725876772414835  0.4309671074331263  0.30741202447710253  1.0000
  C   C17       1.0  0.038091212587033844  0.5592544994986497  0.6462846565330196  1.0000
  C   C18       1.0  0.961910880383506  0.4407491031179092  0.35371087109921034  1.0000
  C   C19       1.0  0.03822363778029819  0.4405426957799463  0.6243244587794834  1.0000
  C   C20       1.0  0.961782343155747  0.5594609068366125  0.37566807495897364  1.0000
  C   C21       1.0  0.12918135018183818  0.3335618676330441  0.6480531414675214  1.0000
  C   C22       1.0  0.8708193539974047  0.6664426861694039  0.35194208262674215  1.0000
  C   C23       1.0  0.13684327870625174  0.20102743057213956  0.6283380984950427  1.0000
  C   C24       1.0  0.8631570086730774  0.7989780744161976  0.3716588305135887  1.0000
  C   C25       1.0  0.3268652103289256  0.1271668950880098  0.347100234201136  1.0000
  C   C26       1.0  0.6731424378067884  0.8728329027849853  0.6528965075829875  1.0000
  C   C27       1.0  0.1785542653739256  0.1410542090706812  0.4178573466964508  1.0000
  C   C28       1.0  0.8214535227786185  0.858940832872868  0.5821402443935357  1.0000
  C   C29       1.0  0.0929310359488369  0.1767018026411264  0.5379764486224587  1.0000
  C   C30       1.0  0.9070760569954217  0.8232970440459794  0.4620197305672776  1.0000
  C   C31       1.0  0.9593428071718009  0.179942492965715  0.555507860599576  1.0000
  C   C32       1.0  0.04066581295528948  0.8200573049072873  0.44448852655764876  1.0000
  C   C33       1.0  0.8287622386691497  0.2131540994738543  0.6667612712869586  1.0000
  C   C34       1.0  0.17124318870072844  0.7868418936555841  0.3332387339712071  1.0000
  C   C35       1.0  0.011693262456915902  0.0139453363219104  0.14505869632080254  1.0000
  C   C36       1.0  0.9883085537305403  0.9860544615510846  0.8549472624624885  1.0000
  C   C37       1.0  0.306228780617495  0.0865407945733736  0.8233627803010607  1.0000
  C   C38       1.0  0.6937612316566089  0.9134637592290745  0.1766418585407195  1.0000
  C   C39       1.0  0.6439803494412715  0.148064449074262  0.5075620777574272  1.0000
  C   C40       1.0  0.3560173019975963  0.8519315440551763  0.49244549067447  1.0000
  N   N1        1.0  0.23701335651784208  0.7756502404829746  0.8983849543601892  1.0000
  N   N2        1.0  0.7629826277213567  0.2243495573900205  0.10161761833294489  1.0000
  N   N3        1.0  0.35540278445359524  0.7544178690637224  0.7986392298681437  1.0000
  N   N4        1.0  0.6445904238283049  0.24557717287983388  0.20136683139772782  1.0000
  N   N5        1.0  0.21576859311776528  0.3436805831226053  0.6924301111901985  1.0000
  N   N6        1.0  0.7842290566958068  0.6563220683080573  0.3075702108206784  1.0000
  N   N7        1.0  0.0965133796258755  0.1237987458542733  0.37111406915832396  1.0000
  N   N8        1.0  0.9034917693356234  0.8762001008328397  0.6288843946713885  1.0000
  N   N9        1.0  0.9633052420723447  0.1467746410084771  0.45275444602163645  1.0000
  N   N10       1.0  0.0366997684976127  0.8532223033068577  0.5472433256854856  1.0000
  N   N11       1.0  0.9424849600455973  0.057825443763590605  0.2447786211593623  1.0000
  N   N12       1.0  0.05751033061059727  0.9421715005517441  0.7552226968167947  1.0000
  N   N13       1.0  0.2609539378906831  0.0241306348237202  0.8911674042205819  1.0000
  N   N14       1.0  0.7390384367913825  0.9758663094916074  0.10883261455703759  1.0000
  N   N15       1.0  0.5311023697543718  0.1614171965871876  0.5798820902113988  1.0000
  N   N16       1.0  0.46889264249345075  0.8385826012858076  0.4201232001878879  1.0000
