data_image0
_chemical_formula_structural       Ho2H36C36N8O16
_chemical_formula_sum              "Ho2 H36 C36 N8 O16"
_cell_length_a       9.847845288092671
_cell_length_b       10.287745086658946
_cell_length_c       11.0102716325797
_cell_angle_alpha    77.3219508441334
_cell_angle_beta     76.51346280468238
_cell_angle_gamma    65.63939136838859

_space_group_name_H-M_alt    "P 1"
_space_group_IT_number       1

loop_
  _space_group_symop_operation_xyz
  'x, y, z'

loop_
  _atom_site_type_symbol
  _atom_site_label
  _atom_site_symmetry_multiplicity
  _atom_site_fract_x
  _atom_site_fract_y
  _atom_site_fract_z
  _atom_site_occupancy
  Ho  Ho1       1.0  0.055467509704349945  0.7720680106548486  0.17559123099612603  1.0000
  Ho  Ho2       1.0  0.9445346831186895  0.22793093970722114  0.8244080780562366  1.0000
  H   H1        1.0  0.3361620294833756  0.15153356256167436  0.8394902060875963  1.0000
  H   H2        1.0  0.6638401610473325  0.8484653989250788  0.16051091762203376  1.0000
  H   H3        1.0  0.3931019303753017  0.8713325967875251  0.1915243871409444  1.0000
  H   H4        1.0  0.6068992157397162  0.12866636512620033  0.8084769552729295  1.0000
  H   H5        1.0  0.5656505036591285  0.5896798984362875  0.27435505296295293  1.0000
  H   H6        1.0  0.43434080846264317  0.41032016707031727  0.7256517510779401  1.0000
  H   H7        1.0  0.24305208087194072  0.4962905017826459  0.5818279912371691  1.0000
  H   H8        1.0  0.7569421817082398  0.5037073967436925  0.4181768327893564  1.0000
  H   H9        1.0  0.706380081303415  0.0827193638216102  0.4939063683390542  1.0000
  H   H10       1.0  0.29362125333109634  0.9172817359797636  0.5060917613332732  1.0000
  H   H11       1.0  0.5511010873172495  0.7977922448547191  0.38531246451539386  1.0000
  H   H12       1.0  0.4488998176499237  0.20220993244748797  0.6146855291312362  1.0000
  H   H13       1.0  0.5364470609765489  0.859344092572812  0.7324961890572934  1.0000
  H   H14       1.0  0.4635567933028568  0.14065592331146354  0.26750073190361684  1.0000
  H   H15       1.0  0.5822048851640743  0.6905044450860557  0.6837724564910699  1.0000
  H   H16       1.0  0.41779792469964866  0.3094955712251917  0.3162246831740773  1.0000
  H   H17       1.0  0.6755477181671594  0.5689025143517271  0.8747128787426558  1.0000
  H   H18       1.0  0.324454660883049  0.4310985850226886  0.12528503222542747  1.0000
  H   H19       1.0  0.6363610223525241  0.7381621205950708  0.9202671372537945  1.0000
  H   H20       1.0  0.3636434466752334  0.2618389723630656  0.07972942897717421  1.0000
  H   H21       1.0  0.9828304529874005  0.2531379238440437  0.4499680395537097  1.0000
  H   H22       1.0  0.01717278195899751  0.7468610372157514  0.5500328654516833  1.0000
  H   H23       1.0  0.16030378320411384  0.18467831758089664  0.34899354061229093  1.0000
  H   H24       1.0  0.8396975514303973  0.8153227822204842  0.6510045890600366  1.0000
  H   H25       1.0  0.007071618673052197  0.1482352089009638  0.22678979840571142  1.0000
  H   H26       1.0  0.992928054505093  0.8517648253782043  0.7732107193580685  1.0000
  H   H27       1.0  0.841748377825752  0.2924519252541842  0.28315631116151957  1.0000
  H   H28       1.0  0.15825215354091424  0.70754595958568  0.7168453859822888  1.0000
  H   H29       1.0  0.44814539424755406  0.6330588422806328  0.0665883605305098  1.0000
  H   H30       1.0  0.5518578429911756  0.3669401076544717  0.9334107298176019  1.0000
  H   H31       1.0  0.2834398094978993  0.8544414813395846  0.7491013661601752  1.0000
  H   H32       1.0  0.7165621410311332  0.1455606899733084  0.2508955014535771  1.0000
  H   H33       1.0  0.0775136944471626  0.46325431327458233  0.3643260430809716  1.0000
  H   H34       1.0  0.922487024292842  0.5367457150152788  0.6356733486499306  1.0000
  H   H35       1.0  0.9669629236172239  0.38128784009074934  0.06187256103656581  1.0000
  H   H36       1.0  0.033036565626083696  0.6187100340513896  0.9381275401542052  1.0000
  C   C1        1.0  0.3504573212673209  0.012786436031845502  0.017612632688930294  1.0000
  C   C2        1.0  0.6495446841823805  0.9872103708802273  0.9823889817763385  1.0000
  C   C3        1.0  0.4093393886659128  0.08523061871270701  0.9087442477382337  1.0000
  C   C4        1.0  0.5906607130334081  0.9147683436279763  0.09125731337987736  1.0000
  C   C5        1.0  0.44135841986598484  0.9279350029020462  0.10885885437146214  1.0000
  C   C6        1.0  0.5586416829794986  0.0720639538762953  0.8911417994180081  1.0000
  C   C7        1.0  0.19195376037448852  0.0221968071006629  0.03367727618351069  1.0000
  C   C8        1.0  0.8080462852579873  0.9778075252031897  0.9663204454117318  1.0000
  C   C9        1.0  0.39239986967000107  0.5497825463671618  0.4195690204083176  1.0000
  C   C10       1.0  0.6075948225775322  0.4502142746583502  0.5804359396439124  1.0000
  C   C11       1.0  0.5379851066304369  0.5496554914026602  0.3733180180401447  1.0000
  C   C12       1.0  0.46200872628239864  0.4503434846245042  0.6266866699606904  1.0000
  C   C13       1.0  0.35493931713607907  0.4992895064975116  0.5468887885118006  1.0000
  C   C14       1.0  0.6450539010284119  0.5007083924557918  0.45311625421896895  1.0000
  C   C15       1.0  0.6440443109907293  0.9330353007121701  0.43216096080726624  1.0000
  C   C16       1.0  0.3559574556034661  0.06696471046370078  0.5678354902334772  1.0000
  C   C17       1.0  0.6154529802915506  0.0468544207990078  0.49739045129316367  1.0000
  C   C18       1.0  0.38454835548913013  0.9531466734400241  0.5026067710505231  1.0000
  C   C19       1.0  0.5276138711106171  0.8865887673793086  0.4356826106895041  1.0000
  C   C20       1.0  0.4723870350027183  0.1134134043605499  0.5643144756284855  1.0000
  C   C21       1.0  0.7945919742185978  0.8673198892737588  0.35273707387498376  1.0000
  C   C22       1.0  0.2054085033735618  0.1326833544045769  0.6472589690886748  1.0000
  C   C23       1.0  0.32936584883895387  0.7271385004965866  0.918650967429485  1.0000
  C   C24       1.0  0.6706421819570564  0.2728615192421771  0.08134598604309676  1.0000
  C   C25       1.0  0.5246688040112348  0.7549372672887458  0.7615316080501909  1.0000
  C   C26       1.0  0.47533210210210103  0.24506490445111245  0.23846547826779835  1.0000
  C   C27       1.0  0.5883133585467563  0.6764126210523359  0.8858191782713474  1.0000
  C   C28       1.0  0.41168858968993766  0.32358956138524775  0.11417950399967934  1.0000
  C   C29       1.0  0.04349291688242831  0.2655145785800315  0.3540260112257059  1.0000
  C   C30       1.0  0.956507801857569  0.7344854497098297  0.6459733805051965  1.0000
  C   C31       1.0  0.9648027582069645  0.25641186022175333  0.25251959750705305  1.0000
  C   C32       1.0  0.0351979582407082  0.7435881791927984  0.7474816088811236  1.0000
  C   C33       1.0  0.030363766082075343  0.45551612332309355  0.1925680591116928  1.0000
  C   C34       1.0  0.9696344925183734  0.5444796022336648  0.8074336588675874  1.0000
  C   C35       1.0  0.27711952807666757  0.6072507785795126  0.3337943557012935  1.0000
  C   C36       1.0  0.7228724056704509  0.3927503306268889  0.6662066496378354  1.0000
  N   N1        1.0  0.4556077839887039  0.6661370070227834  0.97181906324446  1.0000
  N   N2        1.0  0.5443912160819124  0.3338673312703833  0.028179784383652904  1.0000
  N   N3        1.0  0.365563020610324  0.7730069208405937  0.7935923376775871  1.0000
  N   N4        1.0  0.6344378797721789  0.22699527871098718  0.20640928528359123  1.0000
  N   N5        1.0  0.043221345392190406  0.4110909441379818  0.31624266505095006  1.0000
  N   N6        1.0  0.956778515159293  0.5889112335911834  0.6837555472999168  1.0000
  N   N7        1.0  0.00036376645086019473  0.3593163132252784  0.14788155538996506  1.0000
  N   N8        1.0  0.9996371327854732  0.6406858918886444  0.8521209748998613  1.0000
  O   O1        1.0  0.14318508402664065  0.9519104808593823  0.131721578380855  1.0000
  O   O2        1.0  0.8568148314455116  0.048086332468962205  0.8682813808215282  1.0000
  O   O3        1.0  0.11591581823430627  0.0989093359507578  0.9473903553195624  1.0000
  O   O4        1.0  0.8840874121274281  0.9010896473584041  0.052614179000386216  1.0000
  O   O5        1.0  0.1395438168012575  0.6229237014085385  0.3765313148491457  1.0000
  O   O6        1.0  0.8604476895708543  0.377078474174006  0.6234677398070119  1.0000
  O   O7        1.0  0.8299400881663457  0.7480655613159969  0.31380284011333254  1.0000
  O   O8        1.0  0.17005891763511014  0.25193874916544706  0.6861914708715912  1.0000
  O   O9        1.0  0.8829738335826961  0.9368963990717916  0.3205382705412204  1.0000
  O   O10       1.0  0.11702749990565313  0.0631047062919237  0.6794607664597476  1.0000
  O   O11       1.0  0.19811310229302134  0.7385037548785649  0.9734427854174893  1.0000
  O   O12       1.0  0.8018842923880741  0.2614941479292199  0.026562289824951874  1.0000
  O   O13       1.0  0.04742614245408557  0.5678506745933377  0.1276385347499697  1.0000
  O   O14       1.0  0.9525780774026557  0.43215367268968663  0.8723610340142255  1.0000
  O   O15       1.0  0.315650265348701  0.6454750092069831  0.21659879235522778  1.0000
  O   O16       1.0  0.6843427746117924  0.3545207017975685  0.7834012971593435  1.0000
