data_image0
_chemical_formula_structural       Co3H18C28N4O18
_chemical_formula_sum              "Co3 H18 C28 N4 O18"
_cell_length_a       8.813070255508626
_cell_length_b       9.503195969407505
_cell_length_c       10.00979018981472
_cell_angle_alpha    79.1596175365497
_cell_angle_beta     87.49320274753221
_cell_angle_gamma    73.28471506694511

_space_group_name_H-M_alt    "P 1"
_space_group_IT_number       1

loop_
  _space_group_symop_operation_xyz
  'x, y, z'

loop_
  _atom_site_type_symbol
  _atom_site_label
  _atom_site_symmetry_multiplicity
  _atom_site_fract_x
  _atom_site_fract_y
  _atom_site_fract_z
  _atom_site_occupancy
  Co  Co1       1.0  0.00021256313123533586  0.5000882165661267  0.4997184727435169  1.0000
  Co  Co2       1.0  0.8928249819323282  0.4153476485276499  0.8294768212192807  1.0000
  Co  Co3       1.0  0.10697085598431501  0.5846689240736751  0.17052693219689266  1.0000
  H   H1        1.0  0.6948038659760201  0.7854350200854299  0.48144504198392474  1.0000
  H   H2        1.0  0.30503852151349525  0.21479070217214508  0.5186522604091692  1.0000
  H   H3        1.0  0.7337532551729354  0.23469228608449547  0.39479052214124266  1.0000
  H   H4        1.0  0.2662779592800746  0.7654891239586519  0.6052221028411466  1.0000
  H   H5        1.0  0.9274611029120267  0.944965006512845  0.7687985162136002  1.0000
  H   H6        1.0  0.07277440548659801  0.055140685553965306  0.23107957328748802  1.0000
  H   H7        1.0  0.3839702358675297  0.30322607696145815  0.9948414531133523  1.0000
  H   H8        1.0  0.6163548363580915  0.6961588622222834  0.005172315181269469  1.0000
  H   H9        1.0  0.6580523752805547  0.3193236082095581  0.0206581468736644  1.0000
  H   H10       1.0  0.34208703811599156  0.6803450861117566  0.9792760145528377  1.0000
  H   H11       1.0  0.6635631350563642  0.5316074373650037  0.6185406499309138  1.0000
  H   H12       1.0  0.33607840887989937  0.46875519178257724  0.3816073429301099  1.0000
  H   H13       1.0  0.3932993397982544  0.5144505842497153  0.5754733202210645  1.0000
  H   H14       1.0  0.6063718190328586  0.4856766514964761  0.4247483539512232  1.0000
  H   H15       1.0  0.017427420587573315  0.2712548439726277  0.0512280550217241  1.0000
  H   H16       1.0  0.9826843720541307  0.7282655974062562  0.9483754477944899  1.0000
  H   H17       1.0  0.9719984709438589  0.171555675771593  0.9554182166933103  1.0000
  H   H18       1.0  0.027904938844201883  0.8282854792596126  0.044052865487301994  1.0000
  C   C1        1.0  0.8503413201580867  0.7009767742478202  0.7292226307531068  1.0000
  C   C2        1.0  0.1497781910211771  0.2991178186549491  0.2706588535699695  1.0000
  C   C3        1.0  0.816461295537792  0.848023144865664  0.6354624161276804  1.0000
  C   C4        1.0  0.1836019807495006  0.1521055091795276  0.3644906438813962  1.0000
  C   C5        1.0  0.7328512517985217  0.8731470891851673  0.5136195699654067  1.0000
  C   C6        1.0  0.267137976144909  0.12704588433535247  0.486392254301947  1.0000
  C   C7        1.0  0.7012243164106877  0.014104717019513702  0.43134837072067  1.0000
  C   C8        1.0  0.2987231624821832  0.9860753091982062  0.5686749688346567  1.0000
  C   C9        1.0  0.7554381250064495  0.1276304380103355  0.4634453571279025  1.0000
  C   C10       1.0  0.2445363597754309  0.8725515224936728  0.5365498666696453  1.0000
  C   C11       1.0  0.8384148689320767  0.1017553718184843  0.585770338585924  1.0000
  C   C12       1.0  0.16174621648154638  0.898332137963337  0.4141321476323583  1.0000
  C   C13       1.0  0.8648209300984248  0.9635055860706881  0.6728218686630997  1.0000
  C   C14       1.0  0.13533709718112874  0.0365886376802393  0.3270765246258165  1.0000
  C   C15       1.0  0.20679730639856328  0.3991854026773538  0.7502657854978166  1.0000
  C   C16       1.0  0.7930195012069987  0.6006396196114282  0.2501348524521063  1.0000
  C   C17       1.0  0.3681831368051078  0.40570950498714337  0.7808913060817987  1.0000
  C   C18       1.0  0.6317608359202326  0.5940672155409317  0.21926133746705997  1.0000
  C   C19       1.0  0.4425650250109853  0.3530504121378684  0.9084124545932115  1.0000
  C   C20       1.0  0.5575764124747807  0.6465536999578064  0.09161098475402696  1.0000
  C   C21       1.0  0.5950659104006347  0.3629329906849676  0.9239421861755376  1.0000
  C   C22       1.0  0.4050126669205484  0.636825505607206  0.07602886222589689  1.0000
  C   C23       1.0  0.5986954681797414  0.48022488463494994  0.6984360276072792  1.0000
  C   C24       1.0  0.4010317839968566  0.5199317937793707  0.3016858712860895  1.0000
  C   C25       1.0  0.449326209764365  0.47036090641526584  0.6751284759488385  1.0000
  C   C26       1.0  0.5504641982268198  0.5296413624012358  0.3250208327872103  1.0000
  C   C27       1.0  0.8990878082044417  0.22328587842427072  0.6204620793408538  1.0000
  C   C28       1.0  0.10126704354496502  0.776710525600109  0.37942879036082644  1.0000
  N   N1        1.0  0.6740242570665346  0.4250673568937842  0.8207088198111306  1.0000
  N   N2        1.0  0.32594370788417143  0.57496870581857  0.1793303566898743  1.0000
  N   N3        1.0  0.607934371627735  0.043615616074816906  0.3051744229143978  1.0000
  N   N4        1.0  0.39195512487301437  0.9566163146937043  0.6949133952537069  1.0000
  O   O1        1.0  0.8582645611729378  0.6914833073532806  0.8556745632423175  1.0000
  O   O2        1.0  0.1419535746223346  0.3085668888456041  0.14426679589769256  1.0000
  O   O3        1.0  0.8665019619301474  0.5813711869056775  0.6772401268256374  1.0000
  O   O4        1.0  0.13342482761891014  0.4188556889708792  0.3225977125855053  1.0000
  O   O5        1.0  0.5616070853462105  0.9409599939886635  0.277507853002291  1.0000
  O   O6        1.0  0.4386827216977379  0.0591172513713758  0.7223237020883175  1.0000
  O   O7        1.0  0.5794469774755555  0.17090165868456353  0.2342467294017183  1.0000
  O   O8        1.0  0.41991081706233047  0.8294528352896506  0.7660999210101311  1.0000
  O   O9        1.0  0.10829293255179102  0.40554130676920863  0.8480453273985801  1.0000
  O   O10       1.0  0.8916782220283752  0.5946165359482337  0.15235987987472296  1.0000
  O   O11       1.0  0.941536418250415  0.2132709834129898  0.7422940497090522  1.0000
  O   O12       1.0  0.05866194087253263  0.7868027562112657  0.2575817924628083  1.0000
  O   O13       1.0  0.9005298731186218  0.32932286672109273  0.5214447346075133  1.0000
  O   O14       1.0  0.09992708786442965  0.670572146672484  0.4783741077348296  1.0000
  O   O15       1.0  0.179464647064748  0.3908898256030398  0.6288637635631176  1.0000
  O   O16       1.0  0.8200890039475796  0.6088431386943397  0.37159289513118676  1.0000
  O   O17       1.0  0.9288099412865736  0.25943553075573783  0.9977584157280147  1.0000
  O   O18       1.0  0.07117161300570277  0.7401310377798538  0.0021195325324186018  1.0000
