data_image0
_chemical_formula_structural       Tb2P8H40Ru4C8O40
_chemical_formula_sum              "Tb2 P8 H40 Ru4 C8 O40"
_cell_length_a       9.509509135281785
_cell_length_b       9.511659693949559
_cell_length_c       15.524
_cell_angle_alpha    92.9432354083103
_cell_angle_beta     92.9439016020748
_cell_angle_gamma    98.9815873957647

_space_group_name_H-M_alt    "P 1"
_space_group_IT_number       1

loop_
  _space_group_symop_operation_xyz
  'x, y, z'

loop_
  _atom_site_type_symbol
  _atom_site_label
  _atom_site_symmetry_multiplicity
  _atom_site_fract_x
  _atom_site_fract_y
  _atom_site_fract_z
  _atom_site_occupancy
  Tb  Tb1       1.0  0.9931503275666245  0.006830877504860699  0.749957602468825  1.0000
  Tb  Tb2       1.0  0.006855149689414515  0.9931697086539586  0.2500401404658064  1.0000
  P   P1        1.0  0.059034303509250215  0.3431433626386706  0.6403285205196879  1.0000
  P   P2        1.0  0.6568512137411772  0.9409784349300594  0.8596563785070968  1.0000
  P   P3        1.0  0.9409603045217524  0.6568550908702875  0.3596604392405922  1.0000
  P   P4        1.0  0.343145771063547  0.0590349471279197  0.14035953640416207  1.0000
  P   P5        1.0  0.9968748663531316  0.648487639140562  0.6594621385867396  1.0000
  P   P6        1.0  0.3514739996133969  0.0031840462425095  0.840544434274257  1.0000
  P   P7        1.0  0.003120149919539006  0.3515001511190903  0.34051812441668255  1.0000
  P   P8        1.0  0.6485292686516076  0.996835733765053  0.1594667262880236  1.0000
  H   H1        1.0  0.825832761636427  0.4409626801391582  0.7225252185393102  1.0000
  H   H2        1.0  0.5590559380849527  0.174153253976101  0.7774615286343689  1.0000
  H   H3        1.0  0.17416334195611682  0.5590187121709035  0.27745552155354136  1.0000
  H   H4        1.0  0.4409575890294448  0.8258515974824333  0.22254948501737457  1.0000
  H   H5        1.0  0.41338719436649995  0.6768017650204357  0.5483224991022908  1.0000
  H   H6        1.0  0.3231744900074176  0.5868444612326087  0.9516854590063841  1.0000
  H   H7        1.0  0.5866294592892487  0.3231764283148379  0.4516684493205928  1.0000
  H   H8        1.0  0.6768470202496317  0.4131443953519706  0.048328523412592986  1.0000
  H   H9        1.0  0.39393495484745955  0.5118444972450646  0.5368883362784655  1.0000
  H   H10       1.0  0.48816745331347283  0.6062963606150049  0.9631465006794853  1.0000
  H   H11       1.0  0.6059908383214534  0.4881251654907643  0.4631606808308319  1.0000
  H   H12       1.0  0.5118607103205335  0.3937607407651313  0.036832476559986595  1.0000
  H   H13       1.0  0.8268604833494209  0.142175235634987  0.6202813916407164  1.0000
  H   H14       1.0  0.8578814895332274  0.17312425041816223  0.8796549809546901  1.0000
  H   H15       1.0  0.17313466834151822  0.8578200188991757  0.3797165028765902  1.0000
  H   H16       1.0  0.1421250063401232  0.8268827336902405  0.12034299530798619  1.0000
  H   H17       1.0  0.7114545850087453  0.0748773366205313  0.6834467555743655  1.0000
  H   H18       1.0  0.9251192013554785  0.28849634259980655  0.8164550959242403  1.0000
  H   H19       1.0  0.2885470199120164  0.9251253821881419  0.3165567301039758  1.0000
  H   H20       1.0  0.07487662941366581  0.7115031772340784  0.18353458001472225  1.0000
  H   H21       1.0  0.1242155544940218  0.9029170328603725  0.9160978041400796  1.0000
  H   H22       1.0  0.09715223060337763  0.875675629860595  0.5838708046637391  1.0000
  H   H23       1.0  0.875784862039886  0.0970782216737831  0.08390090017508099  1.0000
  H   H24       1.0  0.9028457404542323  0.1243174920237067  0.4161200256553172  1.0000
  H   H25       1.0  0.9568022062318704  0.8847767131425072  0.9256776971149279  1.0000
  H   H26       1.0  0.11527244129413111  0.0430272772710794  0.5741807625515207  1.0000
  H   H27       1.0  0.0431933880520106  0.11520148019276628  0.07431130044427899  1.0000
  H   H28       1.0  0.8847081729573391  0.956962645638434  0.425796537797268  1.0000
  H   H29       1.0  0.1715938105854704  0.4349635360801045  0.8202156112532464  1.0000
  H   H30       1.0  0.5649784860849252  0.8284385017638555  0.6797991700665091  1.0000
  H   H31       1.0  0.828403582460922  0.5650391827285758  0.17977485864040688  1.0000
  H   H32       1.0  0.43501734468421926  0.1715610180700295  0.32021562826358246  1.0000
  H   H33       1.0  0.1443968915021117  0.6191434433778085  0.8268356240461471  1.0000
  H   H34       1.0  0.3807608443734339  0.8556489813406499  0.673182905899921  1.0000
  H   H35       1.0  0.8555847413666626  0.3808528774812885  0.17315479290819263  1.0000
  H   H36       1.0  0.619235970661741  0.1443633343923949  0.32682910514008506  1.0000
  H   H37       1.0  0.2588622417228806  0.5588811562548699  0.7503194096806068  1.0000
  H   H38       1.0  0.441035398914039  0.741215255097856  0.7497062985804916  1.0000
  H   H39       1.0  0.741130735328305  0.44112689417845974  0.24967237734684736  1.0000
  H   H40       1.0  0.5589498678178942  0.2587906626856125  0.2503077245190113  1.0000
  Ru  Ru1       1.0  0.12167369656401662  0.5416696055514763  0.49737831091622536  1.0000
  Ru  Ru2       1.0  0.4583033809300688  0.8783659676602723  0.0026235042403612977  1.0000
  Ru  Ru3       1.0  0.8783200282679431  0.4583299142824018  0.5026112987691391  1.0000
  Ru  Ru4       1.0  0.5417097379426608  0.1216495470475678  0.9973897645294798  1.0000
  C   C1        1.0  0.0345054088099914  0.49218999612587305  0.7172219334908547  1.0000
  C   C2        1.0  0.5077861031955067  0.9655316327800207  0.782786982890414  1.0000
  C   C3        1.0  0.9654869235142769  0.5078073910581509  0.28277014194720346  1.0000
  C   C4        1.0  0.49221757331116583  0.034477483978236  0.2172277200286388  1.0000
  C   C5        1.0  0.1604027230105132  0.528797997315273  0.7834288475264513  1.0000
  C   C6        1.0  0.4711270613696856  0.8396466431084662  0.7165898016170971  1.0000
  C   C7        1.0  0.8395855672089285  0.47120045619368506  0.2165605576369245  1.0000
  C   C8        1.0  0.5288648627129148  0.16036140732486356  0.2834257863469459  1.0000
  O   O1        1.0  0.17933526190353183  0.3977946479772569  0.5803391557470121  1.0000
  O   O2        1.0  0.6021994546104352  0.82070444704285  0.9196485093682296  1.0000
  O   O3        1.0  0.8206611125255494  0.60220167288184  0.4196459275075951  1.0000
  O   O4        1.0  0.3978098262783121  0.179306802365268  0.08036386030532579  1.0000
  O   O5        1.0  0.9126336183810794  0.3052984245298802  0.5852716470219903  1.0000
  O   O6        1.0  0.6947564380248821  0.08732987915905  0.9147206852960466  1.0000
  O   O7        1.0  0.08736119377076083  0.6946946973544215  0.4147190839166796  1.0000
  O   O8        1.0  0.3052491746494256  0.9126781712742797  0.08528824751372348  1.0000
  O   O9        1.0  0.08973968206055362  0.2199615066659533  0.6912120119339916  1.0000
  O   O10       1.0  0.7800126154678466  0.9102437514579194  0.8087352484732833  1.0000
  O   O11       1.0  0.9102605647037976  0.7800326815432754  0.3087808560182878  1.0000
  O   O12       1.0  0.22000145530648751  0.0897579010258269  0.19126924000247666  1.0000
  O   O13       1.0  0.12159614581209871  0.6892436443096486  0.5982966281845775  1.0000
  O   O14       1.0  0.310684955240113  0.878487528702351  0.9017096842698462  1.0000
  O   O15       1.0  0.8784007722769261  0.31074947757465304  0.4016915923521793  1.0000
  O   O16       1.0  0.6893202835438076  0.121524787030701  0.0983025917845239  1.0000
  O   O17       1.0  0.8546349030519026  0.5937809049055858  0.6047425434723124  1.0000
  O   O18       1.0  0.40622039701945317  0.14538167470103497  0.895274896122757  1.0000
  O   O19       1.0  0.1453638825021883  0.4062239465529487  0.39524674899639917  1.0000
  O   O20       1.0  0.5937797466910553  0.854631707356944  0.10473918567726767  1.0000
  O   O21       1.0  0.9847334958065588  0.767682506198085  0.7246711030427093  1.0000
  O   O22       1.0  0.2323066724716512  0.0153550789993702  0.7753334044358836  1.0000
  O   O23       1.0  0.015262470380854211  0.23232447791031058  0.2753239652965007  1.0000
  O   O24       1.0  0.7677011815581167  0.9846604357084701  0.2246835636832287  1.0000
  O   O25       1.0  0.9079796607538598  0.4438566860005722  0.7636926504269326  1.0000
  O   O26       1.0  0.5561251989821302  0.0920089129541353  0.7363026840416538  1.0000
  O   O27       1.0  0.09201443796848711  0.5561385685335907  0.23629103935832055  1.0000
  O   O28       1.0  0.4438795648444227  0.907993805854545  0.2637086309835794  1.0000
  O   O29       1.0  0.3816266101399535  0.5970278643189957  0.5061908037513162  1.0000
  O   O30       1.0  0.40295265189227086  0.6185505667164435  0.9938387643931677  1.0000
  O   O31       1.0  0.618399283747877  0.4029290025176664  0.49381651269373344  1.0000
  O   O32       1.0  0.5970877774481735  0.3814446878177193  0.0061650637235005  1.0000
  O   O33       1.0  0.7996919002314443  0.059491334198177995  0.6555409275345452  1.0000
  O   O34       1.0  0.9405112291361634  0.2002611535747505  0.8443392788433782  1.0000
  O   O35       1.0  0.2003069196739276  0.9405071193107729  0.3444616921742991  1.0000
  O   O36       1.0  0.05948738664837799  0.7997426315588567  0.15565255139282638  1.0000
  O   O37       1.0  0.03689117640923466  0.9429458044268557  0.901575854348593  1.0000
  O   O38       1.0  0.05714925589058592  0.9630119069692212  0.5983733271379987  1.0000
  O   O39       1.0  0.9631061155701702  0.0570430521577237  0.09841997372943467  1.0000
  O   O40       1.0  0.9428579877635316  0.036986546539729694  0.40162698092971266  1.0000
