data_image0
_chemical_formula_structural       Zn2H14C18N4O8
_chemical_formula_sum              "Zn2 H14 C18 N4 O8"
_cell_length_a       9.769146984474018
_cell_length_b       10.955713226398819
_cell_length_c       11.239223763574081
_cell_angle_alpha    89.37573516852383
_cell_angle_beta     90.02743336547303
_cell_angle_gamma    89.98142013266423

_space_group_name_H-M_alt    "P 1"
_space_group_IT_number       1

loop_
  _space_group_symop_operation_xyz
  'x, y, z'

loop_
  _atom_site_type_symbol
  _atom_site_label
  _atom_site_symmetry_multiplicity
  _atom_site_fract_x
  _atom_site_fract_y
  _atom_site_fract_z
  _atom_site_occupancy
  Zn  Zn1       1.0  0.35965647206963064  0.5001347207687629  0.49991044557707925  1.0000
  Zn  Zn2       1.0  0.6513411700493846  0.5000182300692303  0.5000414026509858  1.0000
  H   H1        1.0  0.7101114475694104  0.47981947508046113  0.1089080408433176  1.0000
  H   H2        1.0  0.14187862794567244  0.6287812216529078  0.6340028715296812  1.0000
  H   H3        1.0  0.7687494973283648  0.3821122152467852  0.3228731113472492  1.0000
  H   H4        1.0  0.9238836035404319  0.3163178192704096  0.2816178773966627  1.0000
  H   H5        1.0  0.7688707416023846  0.6171570958687056  0.6776989568116251  1.0000
  H   H6        1.0  0.9239345814433689  0.683152440680402  0.7187998179552507  1.0000
  H   H7        1.0  0.7100069261928892  0.520187454894554  0.8910877409555696  1.0000
  H   H8        1.0  0.40371030473598063  0.5442568472324609  0.09624384581703542  1.0000
  H   H9        1.0  0.4035376511974745  0.4562014749701787  0.9037224120880298  1.0000
  H   H10       1.0  0.7197145619532889  0.8850165643522486  0.5007397881377855  1.0000
  H   H11       1.0  0.7196405192255141  0.11514429511375823  0.4979356359098333  1.0000
  H   H12       1.0  0.2805217417636001  0.11495886154634151  0.4956414628115341  1.0000
  H   H13       1.0  0.2806353802233445  0.8852538972747792  0.5051184578699051  1.0000
  H   H14       1.0  0.1418959040962235  0.37112413524969423  0.366085914517889  1.0000
  C   C1        1.0  0.5003772774860238  0.735576468887473  0.5059787413218686  1.0000
  C   C2        1.0  0.6242842513137461  0.0635753670214854  0.49840199769431603  1.0000
  C   C3        1.0  0.5001475545750508  0.1278551200568145  0.49625409979942964  1.0000
  C   C4        1.0  0.5002513505576971  0.8723065082316522  0.5034712441672653  1.0000
  C   C5        1.0  0.37603410965804324  0.06356338444764019  0.49762759484173824  1.0000
  C   C6        1.0  0.37610580049043557  0.9366102998495477  0.5026694881825122  1.0000
  C   C7        1.0  0.9375135273607779  0.4299755879909383  0.4223378788135221  1.0000
  C   C8        1.0  0.9375465081853207  0.5696128699199433  0.5780265231484735  1.0000
  C   C9        1.0  0.08198736861079679  0.428563739297367  0.4249220076633692  1.0000
  C   C10       1.0  0.08198245204830812  0.5713059989915906  0.5752214683703303  1.0000
  C   C11       1.0  0.5002100101774403  0.26458867042874357  0.4938765379142893  1.0000
  C   C12       1.0  0.5060140392480861  0.4898337732353399  0.7340536488036663  1.0000
  C   C13       1.0  0.5062170689645811  0.510390974353605  0.2659169241632142  1.0000
  C   C14       1.0  0.6123401460947591  0.49801218743014897  0.0645879396057012  1.0000
  C   C15       1.0  0.6122636797508463  0.5021421173253628  0.9354102589396761  1.0000
  C   C16       1.0  0.5024293011573916  0.5184062429561607  0.1342848113427948  1.0000
  C   C17       1.0  0.5022658231404763  0.4819061079544227  0.8656999014600687  1.0000
  C   C18       1.0  0.6243326724147521  0.9365941747371451  0.5006509927486392  1.0000
  N   N1        1.0  0.1496637639322884  0.5000268182210804  0.5000031091649576  1.0000
  N   N2        1.0  0.8660160968868098  0.4997949894149301  0.5001918908184635  1.0000
  N   N3        1.0  0.8684762233271996  0.3609783862024187  0.3434103739339207  1.0000
  N   N4        1.0  0.8685268153017487  0.6383459437845715  0.6571247714751182  1.0000
  O   O1        1.0  0.387758186290462  0.6822505046559186  0.5305008623497756  1.0000
  O   O2        1.0  0.3875658047464938  0.31797303680762207  0.46933476222393733  1.0000
  O   O3        1.0  0.6134260912523145  0.6826200200369855  0.48264621673281743  1.0000
  O   O4        1.0  0.613249568686541  0.3174757770436969  0.5173285807202177  1.0000
  O   O5        1.0  0.3943822901931141  0.46680704743285156  0.6805738517810198  1.0000
  O   O6        1.0  0.39461536978193124  0.5334843397307623  0.31934010274758867  1.0000
  O   O7        1.0  0.6192153199682764  0.5187323224808935  0.6831929630506508  1.0000
  O   O8        1.0  0.6193907791907307  0.4813485682909616  0.3168502628090479  1.0000
