data_image0
_chemical_formula_structural       Al2H8C20Cl2O10F2
_chemical_formula_sum              "Al2 H8 C20 Cl2 O10 F2"
_cell_length_a       6.641651198094994
_cell_length_b       8.837263058664782
_cell_length_c       17.65133300196081
_cell_angle_alpha    81.00196857299532
_cell_angle_beta     80.99367421504743
_cell_angle_gamma    75.51825015927768

_space_group_name_H-M_alt    "P 1"
_space_group_IT_number       1

loop_
  _space_group_symop_operation_xyz
  'x, y, z'

loop_
  _atom_site_type_symbol
  _atom_site_label
  _atom_site_symmetry_multiplicity
  _atom_site_fract_x
  _atom_site_fract_y
  _atom_site_fract_z
  _atom_site_occupancy
  Al  Al1       1.0  0.4998103363928906  0.5002188849437345  0.5000002012378387  1.0000
  Al  Al2       1.0  0.9998218402470513  0.5001239691715608  0.49998618498942443  1.0000
  H   H1        1.0  0.28568920868173103  0.316383135722937  0.5565267797749129  1.0000
  H   H2        1.0  0.7141913935066102  0.6839890850096066  0.44348511099475724  1.0000
  H   H3        1.0  0.6244457076341804  0.580153524356703  0.2691329588074325  1.0000
  H   H4        1.0  0.6976781986748863  0.5852569958617689  0.12525453879802478  1.0000
  H   H5        1.0  0.09035072831607494  0.38666755587220775  0.26995390343732595  1.0000
  H   H6        1.0  0.9095154098145457  0.6134813757650831  0.7299992037837197  1.0000
  H   H7        1.0  0.3757761857080127  0.419565176016988  0.7309856131378893  1.0000
  H   H8        1.0  0.3030302515773613  0.41414670078722066  0.8749186432196154  1.0000
  C   C1        1.0  0.8360512535511547  0.21986155305249605  0.5013057318981209  1.0000
  C   C2        1.0  0.6975450246282976  0.5074393266881145  0.637566176118348  1.0000
  C   C3        1.0  0.16362042506627733  0.7805117061509959  0.4985984181932892  1.0000
  C   C4        1.0  0.3020370996286346  0.49280586964152906  0.362426965127689  1.0000
  C   C5        1.0  0.35147790718740174  0.4856960961430373  0.27758292187409234  1.0000
  C   C6        1.0  0.5250173288007645  0.5391650594011349  0.23711878217623186  1.0000
  C   C7        1.0  0.5658496589594295  0.541518994101956  0.15760900677197745  1.0000
  C   C8        1.0  0.43807736865102237  0.486878288512379  0.11618139518277808  1.0000
  C   C9        1.0  0.2684682288398719  0.4274767352570946  0.15845644233444028  1.0000
  C   C10       1.0  0.2237293047228093  0.4290809405426045  0.238022259886705  1.0000
  C   C11       1.0  0.47988017617965556  0.4940558371066145  0.03516019557336849  1.0000
  C   C12       1.0  0.5207954277845845  0.5055504818802629  0.9649381433008415  1.0000
  C   C13       1.0  0.5625387774807464  0.5126708592078087  0.8838928028867555  1.0000
  C   C14       1.0  0.7320261562642189  0.5722069027637955  0.8415332296964806  1.0000
  C   C15       1.0  0.7764689392186881  0.5708179270562965  0.7619693349854656  1.0000
  C   C16       1.0  0.6485981875922845  0.5141613163990115  0.7224876509890166  1.0000
  C   C17       1.0  0.4752303848326348  0.4605328691906791  0.7629861878522632  1.0000
  C   C18       1.0  0.4346883092039988  0.45800405129072164  0.842510924813034  1.0000
  C   C19       1.0  0.9018199288637945  0.04645866033803258  0.4979420262849601  1.0000
  C   C20       1.0  0.09791910928279185  0.9539265278348732  0.501852632752751  1.0000
  Cl  Cl1       1.0  0.11439781557830025  0.3535145382114209  0.11009914353295608  1.0000
  Cl  Cl2       1.0  0.8861392008136877  0.6461957354118865  0.8898720692436441  1.0000
  O   O1        1.0  0.6485511718224616  0.28442771591894456  0.48973628210175946  1.0000
  O   O2        1.0  0.8740182990613055  0.5308220424424162  0.6046489813135452  1.0000
  O   O3        1.0  0.02791994171421662  0.7136704322105059  0.4842989035590506  1.0000
  O   O4        1.0  0.44022055550136935  0.5260240533376146  0.395668789271994  1.0000
  O   O5        1.0  0.35114089124737546  0.7159747417065317  0.5102120100687698  1.0000
  O   O6        1.0  0.12546968310147125  0.4695501042240477  0.39527525569152994  1.0000
  O   O7        1.0  0.97184154976933  0.28659991656138567  0.5156793499634774  1.0000
  O   O8        1.0  0.5591006896626567  0.47430567654257766  0.6043862081109805  1.0000
  O   O9        1.0  0.25882719622538997  0.42723246664515796  0.5365081130207584  1.0000
  O   O10       1.0  0.7408413659652312  0.5730996371333175  0.46344050167466827  1.0000
  F   F1        1.0  0.7444109064117584  0.9822554409446906  0.4893724824945663  1.0000
  F   F2        1.0  0.2553191051168113  0.018114597702009374  0.5103889948439075  1.0000
