data_image0
_chemical_formula_structural       Zn3H52C64N4O18
_chemical_formula_sum              "Zn3 H52 C64 N4 O18"
_cell_length_a       10.53300909965715
_cell_length_b       14.615912431170951
_cell_length_c       16.15313195987698
_cell_angle_alpha    99.66158664825014
_cell_angle_beta     102.52539784386005
_cell_angle_gamma    101.04328097144065

_space_group_name_H-M_alt    "P 1"
_space_group_IT_number       1

loop_
  _space_group_symop_operation_xyz
  'x, y, z'

loop_
  _atom_site_type_symbol
  _atom_site_label
  _atom_site_symmetry_multiplicity
  _atom_site_fract_x
  _atom_site_fract_y
  _atom_site_fract_z
  _atom_site_occupancy
  Zn  Zn1       1.0  0.9999986532415551  0.4999993810787942  0.5000001352973275  1.0000
  Zn  Zn2       1.0  0.7834488683621361  0.6260449288131228  0.5304423865639125  1.0000
  Zn  Zn3       1.0  0.21655025112471554  0.37395543092656414  0.4695583745213413  1.0000
  H   H1        1.0  0.9159717313493375  0.33910624659312555  0.6858041093426908  1.0000
  H   H2        1.0  0.08402811862963233  0.6608962596221063  0.31419522676513634  1.0000
  H   H3        1.0  0.5692699839823518  0.4570829536551599  0.6625638759014196  1.0000
  H   H4        1.0  0.4307276772340885  0.542915978876529  0.33743769783699673  1.0000
  H   H5        1.0  0.9256029432417635  0.49727926100771214  0.2994668414633638  1.0000
  H   H6        1.0  0.07439933127009372  0.5027246640631517  0.7005342942149259  1.0000
  H   H7        1.0  0.9056338863527458  0.39969219288504115  0.15209849734487346  1.0000
  H   H8        1.0  0.0943693594347792  0.6003117284101124  0.8479027756652048  1.0000
  H   H9        1.0  0.47528898246664414  0.3315083798920356  0.10567895680429025  1.0000
  H   H10       1.0  0.5247128086031412  0.6684912541728496  0.8943220725458406  1.0000
  H   H11       1.0  0.49779923610745413  0.42503851100645557  0.25314624933320573  1.0000
  H   H12       1.0  0.5022030417498443  0.574959690587356  0.7468546298877501  1.0000
  H   H13       1.0  0.6104753553186911  0.9160455321787637  0.3995424903788348  1.0000
  H   H14       1.0  0.3895247392037291  0.08395482721770968  0.6004565518693286  1.0000
  H   H15       1.0  0.4175364934603111  0.9204710361097029  0.6096609999992355  1.0000
  H   H16       1.0  0.5824645735910678  0.0795293206552259  0.39033756085775223  1.0000
  H   H17       1.0  0.34648357460434204  0.7444680809763612  0.527368541335058  1.0000
  H   H18       1.0  0.6535162741213301  0.25553442409470517  0.4726314134957264  1.0000
  H   H19       1.0  0.7438123585596302  0.8359526928173864  0.506799279238024  1.0000
  H   H20       1.0  0.25618749246541483  0.16404695108723646  0.49320023800261503  1.0000
  H   H21       1.0  0.4798326089039905  0.5997348633383555  0.5459164411620139  1.0000
  H   H22       1.0  0.5201643295473489  0.40026479303755735  0.454082045360309  1.0000
  H   H23       1.0  0.48199283593198333  0.35392420652629397  0.7557480830800432  1.0000
  H   H24       1.0  0.5180070100798704  0.6460754328016663  0.24425390905243935  1.0000
  H   H25       1.0  0.23205468777968014  0.02361153483379751  0.7769177819042741  1.0000
  H   H26       1.0  0.7679461395342246  0.9763881098717846  0.22307939777631705  1.0000
  H   H27       1.0  0.4975360440430308  0.8320157606697619  0.7781483257420094  1.0000
  H   H28       1.0  0.5024613749293395  0.167982457514249  0.22185310426593227  1.0000
  H   H29       1.0  0.050671625144694615  0.8960100486091988  0.6721865448888737  1.0000
  H   H30       1.0  0.9493267728303536  0.10399103611886323  0.3278105102573222  1.0000
  H   H31       1.0  0.31197395786964693  0.7043172285245662  0.6746649793185855  1.0000
  H   H32       1.0  0.688024438644881  0.29568099160456285  0.3253334944063371  1.0000
  H   H33       1.0  0.39532864430131553  0.07100581757285339  0.9278888052034806  1.0000
  H   H34       1.0  0.6046695064164709  0.9289945482308682  0.07211058110406303  1.0000
  H   H35       1.0  0.4145385021716805  0.12415666919270049  0.8377113782341897  1.0000
  H   H36       1.0  0.585464263933659  0.8758429645289781  0.1622879322788506  1.0000
  H   H37       1.0  0.7730462432906293  0.2370757885542574  0.914638228174113  1.0000
  H   H38       1.0  0.22695481874756507  0.7629245636340158  0.08536280757471106  1.0000
  H   H39       1.0  0.6953117129222548  0.1281922610928703  0.8343339913405505  1.0000
  H   H40       1.0  0.30469226544953193  0.8718080820566172  0.16566621895771766  1.0000
  H   H41       1.0  0.8330231097465488  0.23841832933838705  0.7819726573362263  1.0000
  H   H42       1.0  0.16697989505019717  0.7615848787532544  0.2180278532204057  1.0000
  H   H43       1.0  0.5010871149519788  0.270274180955262  0.9583645015327139  1.0000
  H   H44       1.0  0.4989124938289892  0.7297247486016761  0.041634871977443366  1.0000
  H   H45       1.0  0.5144633365777268  0.20396604666244397  0.04270735649509312  1.0000
  H   H46       1.0  0.485538455745356  0.7960335885466064  0.9572930541320804  1.0000
  H   H47       1.0  0.7023571014153589  0.03767756713855871  0.955776146369516  1.0000
  H   H48       1.0  0.2976425061123109  0.9623213612742133  0.04422384586359837  1.0000
  H   H49       1.0  0.6222880337619614  0.06997727108007012  0.03908319236882823  1.0000
  H   H50       1.0  0.3777118160097858  0.9300223716803871  0.9609169435947681  1.0000
  H   H51       1.0  0.7731252651724034  0.14623886644761802  0.03626427126490481  1.0000
  H   H52       1.0  0.2268741013644943  0.8537593487616348  0.9637349585147705  1.0000
  C   C1        1.0  0.8008574265965507  0.46878445119333634  0.6148762784584962  1.0000
  C   C2        1.0  0.19913975765153683  0.5312130595079766  0.3851212954811985  1.0000
  C   C3        1.0  0.7501266511674061  0.4062217830013992  0.6703728302015863  1.0000
  C   C4        1.0  0.24987077156485782  0.5937764386151089  0.32962674363746913  1.0000
  C   C5        1.0  0.8219770864975261  0.342958991654946  0.7025509688686784  1.0000
  C   C6        1.0  0.1780234887531478  0.6570427930044003  0.29745021700932744  1.0000
  C   C7        1.0  0.627213253777299  0.4099134372740992  0.6896848388316956  1.0000
  C   C8        1.0  0.3727846521898215  0.5900862118936131  0.31031564119128774  1.0000
  C   C9        1.0  0.7213150995036772  0.5144559153565424  0.37585721658422255  1.0000
  C   C10       1.0  0.2786842622272517  0.48554515873082954  0.624143688231513  1.0000
  C   C11       1.0  0.7128542633847131  0.46549107316701566  0.2860669232698569  1.0000
  C   C12       1.0  0.28714680116006974  0.534509281309589  0.7139328750330522  1.0000
  C   C13       1.0  0.8278160361944061  0.4606061671240981  0.25635706539194564  1.0000
  C   C14       1.0  0.17218405937408934  0.5393913299617665  0.7436421579890297  1.0000
  C   C15       1.0  0.8169971515075218  0.4065531524836317  0.17480309069132727  1.0000
  C   C16       1.0  0.18300439627211063  0.5934486295441773  0.82519761379551  1.0000
  C   C17       1.0  0.6903805964816244  0.3568382012692979  0.12123366209528544  1.0000
  C   C18       1.0  0.30961876775590014  0.6431628751063982  0.8787660052745354  1.0000
  C   C19       1.0  0.5743825239496374  0.36610630785732917  0.1479069433640917  1.0000
  C   C20       1.0  0.4256202348431444  0.6338961824541228  0.8520952796309305  1.0000
  C   C21       1.0  0.5867230752539143  0.4195647585631264  0.23033815299240254  1.0000
  C   C22       1.0  0.4132775035494305  0.5804341660739426  0.7696619765725006  1.0000
  C   C23       1.0  0.5641959183484105  0.9537054584427835  0.4444405525995381  1.0000
  C   C24       1.0  0.43580539094704573  0.04629561266983729  0.5555581519879385  1.0000
  C   C25       1.0  0.4517107206791027  0.9549265153154566  0.5609344667388287  1.0000
  C   C26       1.0  0.5482896173406857  0.04507455957286771  0.4390641005168591  1.0000
  C   C27       1.0  0.5164321935588134  0.9089532880680409  0.5054603950513441  1.0000
  C   C28       1.0  0.48356790221689766  0.0910470724725982  0.49453802847385503  1.0000
  C   C29       1.0  0.44843773166030587  0.7417970884871963  0.5271978888826468  1.0000
  C   C30       1.0  0.55156090229233  0.2582047048677296  0.4728024036088315  1.0000
  C   C31       1.0  0.654269426018786  0.7898552707073211  0.5130328366527054  1.0000
  C   C32       1.0  0.34572945623718715  0.21014437926134383  0.4869653058102232  1.0000
  C   C33       1.0  0.5149139539960856  0.6704461912083344  0.5348945174294715  1.0000
  C   C34       1.0  0.4850837074275774  0.32955560477812895  0.4651062564531758  1.0000
  C   C35       1.0  0.5776302546569171  0.35195780639259067  0.740638768114245  1.0000
  C   C36       1.0  0.42237104941812487  0.6480403966886  0.2593632112208369  1.0000
  C   C37       1.0  0.377170109060046  0.9356591289019108  0.7838706961627724  1.0000
  C   C38       1.0  0.6228277981603655  0.0643405214099602  0.21612916513725375  1.0000
  C   C39       1.0  0.25139654488047825  0.9544904103339534  0.754148789805072  1.0000
  C   C40       1.0  0.7486013673531248  0.0455092445545802  0.24584859660311062  1.0000
  C   C41       1.0  0.39953633808670475  0.8457109945814594  0.7540638987833364  1.0000
  C   C42       1.0  0.6004620546679291  0.15428722211517962  0.24593643111046506  1.0000
  C   C43       1.0  0.058485795489907844  0.7135398686481127  0.6073450094811224  1.0000
  C   C44       1.0  0.9415159966259525  0.2864569031061707  0.3926562010018204  1.0000
  C   C45       1.0  0.17001250432808496  0.7924318473717024  0.6661224504787457  1.0000
  C   C46       1.0  0.8299873479502581  0.2075677976770862  0.33387644803893596  1.0000
  C   C47       1.0  0.1492951508945097  0.8828131111612548  0.6952694745518928  1.0000
  C   C48       1.0  0.8507017863035318  0.11718654407048491  0.30472963069338743  1.0000
  C   C49       1.0  0.2965928334352271  0.7750278372941326  0.6962696016779122  1.0000
  C   C50       1.0  0.7034075083444549  0.2249732410266816  0.3037271094088967  1.0000
  C   C51       1.0  0.4619785922431634  0.0871277905567922  0.8853603645204234  1.0000
  C   C52       1.0  0.5380224697950313  0.9128725616314812  0.11464067122840767  1.0000
  C   C53       1.0  0.5977523060493866  0.1512864473365383  0.9387485174979989  1.0000
  C   C54       1.0  0.4022485149980284  0.8487131916482156  0.061251755797393094  1.0000
  C   C55       1.0  0.6766050084039392  0.18866410909991777  0.8771091037600274  1.0000
  C   C56       1.0  0.32339678266584576  0.8113355249649672  0.12289192559011043  1.0000
  C   C57       1.0  0.6525041037452155  0.29107807264581004  0.775140672270162  1.0000
  C   C58       1.0  0.3474969595462767  0.7089222806866289  0.2248597447557047  1.0000
  C   C59       1.0  0.7748657477264588  0.285978787070043  0.7558883681814523  1.0000
  C   C60       1.0  0.22513798589466216  0.7140208394434282  0.24411293583225568  1.0000
  C   C61       1.0  0.5661195106230325  0.23355868103701738  0.9971045879601027  1.0000
  C   C62       1.0  0.43388155266845285  0.7664416722954217  0.002895829065764137  1.0000
  C   C63       1.0  0.6793434467197202  0.09777134215303111  0.9955566070579  1.0000
  C   C64       1.0  0.320657616571765  0.902229011179408  0.004443809967973842  1.0000
  N   N1        1.0  0.6428827661372978  0.7018113268657444  0.5262464883794282  1.0000
  N   N2        1.0  0.35711514233641134  0.29818832459029204  0.4737527541976406  1.0000
  N   N3        1.0  0.5374839061563749  0.8172319787548759  0.5130037695728761  1.0000
  N   N4        1.0  0.46251618836604536  0.1827683806415976  0.4869952726752872  1.0000
  O   O1        1.0  0.753085332202133  0.5427903886810341  0.6108230955962954  1.0000
  O   O2        1.0  0.24691015299198688  0.45720784506353607  0.3891737286873467  1.0000
  O   O3        1.0  0.6176923298436422  0.5133172868870163  0.4025908342514273  1.0000
  O   O4        1.0  0.3823111577735148  0.48668162184628017  0.5974121822006708  1.0000
  O   O5        1.0  0.8392847684406207  0.5606116367821344  0.4268536652088458  1.0000
  O   O6        1.0  0.16071629485086453  0.43938871655030454  0.5731467518170208  1.0000
  O   O7        1.0  0.0835413651691468  0.6325733569954366  0.5872938329251414  1.0000
  O   O8        1.0  0.9164538627413279  0.3674241486714749  0.41271027230353513  1.0000
  O   O9        1.0  0.8859950735481876  0.44428522523290337  0.5762346413765728  1.0000
  O   O10       1.0  0.11400259017485585  0.5557137095871171  0.42376569491592175  1.0000
  O   O11       1.0  0.6893988087929659  0.29970655745307084  0.04467937796804484  1.0000
  O   O12       1.0  0.3106020112083741  0.7002959438422991  0.9553207141945281  1.0000
  O   O13       1.0  0.5971121426481574  0.23922009093795543  0.8269119169851751  1.0000
  O   O14       1.0  0.4028896496749185  0.7607795442710954  0.1730884936419984  1.0000
  O   O15       1.0  0.48405059470954387  0.999864766794204  0.8421599554485301  1.0000
  O   O16       1.0  0.5159494960529826  0.00013558916977980006  0.15784094296851245  1.0000
  O   O17       1.0  0.9446337157839937  0.7339911090007263  0.5834973770215799  1.0000
  O   O18       1.0  0.0553654062094608  0.26600925302728473  0.4165021466177522  1.0000
