data_image0
_chemical_formula_structural       Cu8H64C48N16Cl8
_chemical_formula_sum              "Cu8 H64 C48 N16 Cl8"
_cell_length_a       9.176355186030749
_cell_length_b       11.442047126021741
_cell_length_c       13.066238070028124
_cell_angle_alpha    89.99988427099267
_cell_angle_beta     89.99978581405496
_cell_angle_gamma    89.9998053558528

_space_group_name_H-M_alt    "P 1"
_space_group_IT_number       1

loop_
  _space_group_symop_operation_xyz
  'x, y, z'

loop_
  _atom_site_type_symbol
  _atom_site_label
  _atom_site_symmetry_multiplicity
  _atom_site_fract_x
  _atom_site_fract_y
  _atom_site_fract_z
  _atom_site_occupancy
  Cu  Cu1       1.0  0.4186150811907865  0.5312124794464524  0.3881504721982409  1.0000
  Cu  Cu2       1.0  0.5813833899112097  0.9687872197137039  0.8881522359867304  1.0000
  Cu  Cu3       1.0  0.9186161857201186  0.46878796210062745  0.11184920577898788  1.0000
  Cu  Cu4       1.0  0.0813836119832061  0.031213873255858  0.6118492681676457  1.0000
  Cu  Cu5       1.0  0.5813862327245686  0.46878872479314987  0.6118505015298439  1.0000
  Cu  Cu6       1.0  0.41861574449349354  0.031213984530687407  0.1118472070818513  1.0000
  Cu  Cu7       1.0  0.08137967940845671  0.5312114942057916  0.888153298620459  1.0000
  Cu  Cu8       1.0  0.9186144326599575  0.9687855830475411  0.3881532362288524  1.0000
  H   H1        1.0  0.2550250818101958  0.1189509207633961  0.29573425020630845  1.0000
  H   H2        1.0  0.7449683190259934  0.38104874110327097  0.7957341950506844  1.0000
  H   H3        1.0  0.7550327116340226  0.881048226202381  0.2042651053914923  1.0000
  H   H4        1.0  0.24496670757108766  0.6189466547028389  0.7042645701717518  1.0000
  H   H5        1.0  0.7449718730723446  0.8810520314212127  0.704266723526132  1.0000
  H   H6        1.0  0.2550319051382886  0.6189542110812383  0.20426295202119601  1.0000
  H   H7        1.0  0.24496860229042738  0.11894860818981101  0.7957358683404363  1.0000
  H   H8        1.0  0.7550302473222104  0.38105017969450466  0.2957371688973041  1.0000
  H   H9        1.0  0.25945865700904147  0.30338982003642195  0.39787595237316964  1.0000
  H   H10       1.0  0.7405407557460393  0.1966087314693254  0.8978754690248252  1.0000
  H   H11       1.0  0.7594577734835822  0.6966101886253994  0.1021218605679692  1.0000
  H   H12       1.0  0.24053672356038897  0.8033884245503344  0.6021225428568115  1.0000
  H   H13       1.0  0.7405415671496344  0.6966148800861589  0.6021219600283985  1.0000
  H   H14       1.0  0.2594638274469645  0.8033915987980363  0.1021239740371485  1.0000
  H   H15       1.0  0.2405380916551678  0.3033910156261825  0.8978752865113577  1.0000
  H   H16       1.0  0.759462410847803  0.19661015778473265  0.3978776655453018  1.0000
  H   H17       1.0  0.478530614404974  0.5402582929685807  0.11816754787161439  1.0000
  H   H18       1.0  0.5214681589432786  0.9597385351285082  0.6181679591821166  1.0000
  H   H19       1.0  0.9785292748457194  0.4597393606253987  0.3818327332068066  1.0000
  H   H20       1.0  0.0214724001367017  0.0402592280038832  0.8818337072047342  1.0000
  H   H21       1.0  0.5214706995162998  0.459742911273679  0.8818311298627818  1.0000
  H   H22       1.0  0.4785309754685585  0.0402582992675917  0.3818322492215387  1.0000
  H   H23       1.0  0.0214687698015439  0.5402609696501343  0.6181674751952428  1.0000
  H   H24       1.0  0.9785321830484078  0.959741102259933  0.11816879718214317  1.0000
  H   H25       1.0  0.6451982392636566  0.4628899060866941  0.1246818898149868  1.0000
  H   H26       1.0  0.35480258205030424  0.0371066557558066  0.6246796708017541  1.0000
  H   H27       1.0  0.14519717634354376  0.5371077973185762  0.37532005917227446  1.0000
  H   H28       1.0  0.854802450669375  0.9628919315338818  0.8753210930067112  1.0000
  H   H29       1.0  0.35480198489637615  0.5371112981553027  0.8753183185833464  1.0000
  H   H30       1.0  0.6451943728414874  0.9628928005517566  0.3753205376025406  1.0000
  H   H31       1.0  0.8548019580611664  0.4628934069258221  0.6246793838963  1.0000
  H   H32       1.0  0.14519777348458263  0.0371083987350858  0.1246821767172932  1.0000
  H   H33       1.0  0.5809576900689137  0.5419089452876166  0.23405845395660657  1.0000
  H   H34       1.0  0.4190415755216463  0.9580902365174641  0.7340560841954157  1.0000
  H   H35       1.0  0.08095860980105841  0.4580898101194677  0.2659421383114164  1.0000
  H   H36       1.0  0.9190436626910454  0.0419099206791245  0.7659445056660487  1.0000
  H   H37       1.0  0.41904471360768264  0.45809225895224165  0.7659409891075484  1.0000
  H   H38       1.0  0.5809586486444616  0.04191184169756209  0.2659410628772392  1.0000
  H   H39       1.0  0.9190394348483295  0.5419113941273253  0.7340565394274066  1.0000
  H   H40       1.0  0.0809576512240042  0.9580895356197418  0.2340579987260227  1.0000
  H   H41       1.0  0.4824881375183735  0.20471416821224153  0.9962315884155474  1.0000
  H   H42       1.0  0.5175140373874356  0.2952885255133779  0.496232917967852  1.0000
  H   H43       1.0  0.982487350294619  0.7952866871240332  0.5037695949835097  1.0000
  H   H44       1.0  0.0175098333582397  0.7047121536637135  0.0037686114256772  1.0000
  H   H45       1.0  0.5175164456705303  0.7952852880829794  0.0037701506408751996  1.0000
  H   H46       1.0  0.4824905458055682  0.704711804753984  0.5037665250941216  1.0000
  H   H47       1.0  0.017510694350207197  0.20471102123951104  0.49623367474575275  1.0000
  H   H48       1.0  0.9824893010425271  0.2952890505789085  0.9962323623053564  1.0000
  H   H49       1.0  0.6366583992407867  0.2842392911563181  0.0408844122590679  1.0000
  H   H50       1.0  0.36333849506762317  0.21576183446242678  0.5408879778365261  1.0000
  H   H51       1.0  0.1366616093284634  0.7157601838542289  0.4591129678571733  1.0000
  H   H52       1.0  0.863339765168142  0.7842384771029316  0.9591173548428245  1.0000
  H   H53       1.0  0.3633418249228839  0.7157601651467118  0.9591157961408001  1.0000
  H   H54       1.0  0.636660639338757  0.7842376218421165  0.4591122305648128  1.0000
  H   H55       1.0  0.8633397046002359  0.28423839848046834  0.5408849445483099  1.0000
  H   H56       1.0  0.13665936922457433  0.21576185316578034  0.0408874455451027  1.0000
  H   H57       1.0  0.48230037246076307  0.3615628493612207  0.9963539034144587  1.0000
  H   H58       1.0  0.5176996222954672  0.13844159202299267  0.49635550896263675  1.0000
  H   H59       1.0  0.9823045978727478  0.6384415023699432  0.5036442191582466  1.0000
  H   H60       1.0  0.0176980351926375  0.8615608345724581  0.0036483159169619995  1.0000
  H   H61       1.0  0.5177020312143198  0.638440976788864  0.003644008984935  1.0000
  H   H62       1.0  0.4822995121036371  0.8615613601594774  0.5036446994356254  1.0000
  H   H63       1.0  0.0176999853169235  0.3615623237771146  0.4963536932381913  1.0000
  H   H64       1.0  0.982301099201905  0.1384386217267704  0.9963564844717325  1.0000
  C   C1        1.0  0.4636261058566332  0.38442945515074456  0.20443737184869093  1.0000
  C   C2        1.0  0.5363764837587226  0.1155712919625245  0.7044337575325841  1.0000
  C   C3        1.0  0.9636256521122561  0.615569113714507  0.2955652455789632  1.0000
  C   C4        1.0  0.0363743861103742  0.8844290517735014  0.7955655724989937  1.0000
  C   C5        1.0  0.5363784773342388  0.6155700011453645  0.795563601876502  1.0000
  C   C6        1.0  0.46362483016239514  0.8844290383093705  0.2955656855338091  1.0000
  C   C7        1.0  0.0363713027811983  0.3844285946532082  0.7044357281581027  1.0000
  C   C8        1.0  0.9636269278068  0.11557127849661698  0.20443540122985132  1.0000
  C   C9        1.0  0.4523681923285139  0.2839693725041029  0.1423844198433031  1.0000
  C   C10       1.0  0.5476292684272152  0.21603239218980974  0.642383659277165  1.0000
  C   C11       1.0  0.9523680901811318  0.7160327234417921  0.357615166739393  1.0000
  C   C12       1.0  0.04763162811132559  0.7839679203528221  0.857617170941225  1.0000
  C   C13       1.0  0.5476320318316752  0.7160327057082652  0.8576150232230333  1.0000
  C   C14       1.0  0.4523720454939094  0.7839679380820851  0.35761578378923536  1.0000
  C   C15       1.0  0.047629954468099804  0.2839676068346292  0.642384276331434  1.0000
  C   C16       1.0  0.9523675062892849  0.21603240991943548  0.1423845681217983  1.0000
  C   C17       1.0  0.3120138530598027  0.1958890302824017  0.2671497492790564  1.0000
  C   C18       1.0  0.6879829644177845  0.3041141936094078  0.7671499840579727  1.0000
  C   C19       1.0  0.8120162070172156  0.8041134546343186  0.2328479213496095  1.0000
  C   C20       1.0  0.1879841545630896  0.6958848559964608  0.7328497007903038  1.0000
  C   C21       1.0  0.6879852813488512  0.8041121739637658  0.7328481631270662  1.0000
  C   C22       1.0  0.3120194392663933  0.6958852626932667  0.2328479283452651  1.0000
  C   C23       1.0  0.187982927393108  0.19588600167199388  0.7671507563892844  1.0000
  C   C24       1.0  0.8120149798540481  0.3041084825208244  0.2671512729476575  1.0000
  C   C25       1.0  0.3165719485492104  0.29681844866531987  0.32501940946068697  1.0000
  C   C26       1.0  0.6834278398473685  0.20318114542168086  0.825016773180856  1.0000
  C   C27       1.0  0.8165739312988975  0.7031805277401231  0.1749797794918777  1.0000
  C   C28       1.0  0.183426728643397  0.7968170428435215  0.6749813933429465  1.0000
  C   C29       1.0  0.683430455132843  0.7031801336661018  0.6749800336057774  1.0000
  C   C30       1.0  0.3165734740755681  0.7968183108807309  0.1749826698863117  1.0000
  C   C31       1.0  0.1834252031206702  0.2968154326891508  0.8250181329188635  1.0000
  C   C32       1.0  0.8165713160075044  0.20318153949304468  0.3250188150606377  1.0000
  C   C33       1.0  0.5481159555326655  0.4876556627204279  0.1688454378130331  1.0000
  C   C34       1.0  0.45188354831841343  0.012344292796541406  0.6688422342522672  1.0000
  C   C35       1.0  0.0481174029252642  0.5123431836993433  0.33115753937481424  1.0000
  C   C36       1.0  0.9518835415394662  0.9876575213251753  0.8311582666829906  1.0000
  C   C37       1.0  0.45188426862918607  0.5123446675520853  0.8311547705860675  1.0000
  C   C38       1.0  0.5481166758495064  0.9876569114490011  0.33115491282115533  1.0000
  C   C39       1.0  0.951882821232644  0.4876571465714008  0.6688441996867382  1.0000
  C   C40       1.0  0.0481155928515875  0.012344556883384396  0.1688457683721722  1.0000
  C   C41       1.0  0.5169387625738011  0.2830735851323851  0.03797019406327  1.0000
  C   C42       1.0  0.48305814675573094  0.21693279105056007  0.5379711374175499  1.0000
  C   C43       1.0  0.0169408630098644  0.7169332134210576  0.4620275102178936  1.0000
  C   C44       1.0  0.9830594066905858  0.783071558579337  0.9620315750946631  1.0000
  C   C45       1.0  0.4830614615865372  0.716929367050348  0.9620284836710623  1.0000
  C   C46       1.0  0.5169420773986887  0.7830701611295154  0.4620298363104638  1.0000
  C   C47       1.0  0.9830593611527547  0.28307148670329246  0.5379688715212296  1.0000
  C   C48       1.0  0.0169408174673222  0.21692877169140704  0.0379701639668895  1.0000
  N   N1        1.0  0.39622218766016454  0.39079893186121234  0.2962802659234143  1.0000
  N   N2        1.0  0.6037821079521919  0.10919461094289315  0.7962780109899086  1.0000
  N   N3        1.0  0.8962211442240433  0.6091937060221397  0.20371947269777724  1.0000
  N   N4        1.0  0.1037793675496843  0.8908003021731684  0.7037203711990756  1.0000
  N   N5        1.0  0.6037823955363208  0.6091987764968108  0.7037199424720981  1.0000
  N   N6        1.0  0.3962202957280425  0.890804845358005  0.20372143207578827  1.0000
  N   N7        1.0  0.1037769004379214  0.39080050646790443  0.7962799703784356  1.0000
  N   N8        1.0  0.8962197668568448  0.10920002810174621  0.2962790718702735  1.0000
  N   N9        1.0  0.382036461576689  0.18713361261794142  0.1758594229071164  1.0000
  N   N10       1.0  0.617960826583449  0.31286632666387953  0.675861362519278  1.0000
  N   N11       1.0  0.8820361289110109  0.8128608125214922  0.3241365274666919  1.0000
  N   N12       1.0  0.11796158248473182  0.6871337909655465  0.8241408079242021  1.0000
  N   N13       1.0  0.6179604933116137  0.8128684655989528  0.8241400201636395  1.0000
  N   N14       1.0  0.382044846372608  0.6871331296342547  0.3241365498795332  1.0000
  N   N15       1.0  0.11796082600337597  0.18713252600412736  0.6758598542868626  1.0000
  N   N16       1.0  0.882035372401603  0.3128682872504669  0.1758594004777834  1.0000
  Cl  Cl1       1.0  0.32502204022153336  0.48583155527848726  0.5510559823312704  1.0000
  Cl  Cl2       1.0  0.6749802504324619  0.0141730426752176  0.051055850413448  1.0000
  Cl  Cl3       1.0  0.8250179485337555  0.5141714843965275  0.9489448621166545  1.0000
  Cl  Cl4       1.0  0.1749791193694037  0.9858280740733463  0.448944487266445  1.0000
  Cl  Cl5       1.0  0.6749792736923083  0.5141722708713272  0.44894346073204616  1.0000
  Cl  Cl6       1.0  0.3250210634868367  0.985828161566154  0.9489435926521779  1.0000
  Cl  Cl7       1.0  0.1749800961095573  0.4858288458772364  0.0510568769478468  1.0000
  Cl  Cl8       1.0  0.8250167457665967  0.014168760325510699  0.5510572518040888  1.0000
