data_image0
_chemical_formula_structural       Zn16H12C96S16Br16O52F4
_chemical_formula_sum              "Zn16 H12 C96 S16 Br16 O52 F4"
_cell_length_a       19.678510857393164
_cell_length_b       19.730912851735237
_cell_length_c       33.38955189842204
_cell_angle_alpha    78.99873314027333
_cell_angle_beta     79.1533573267942
_cell_angle_gamma    63.93137591797801

_space_group_name_H-M_alt    "P 1"
_space_group_IT_number       1

loop_
  _space_group_symop_operation_xyz
  'x, y, z'

loop_
  _atom_site_type_symbol
  _atom_site_label
  _atom_site_symmetry_multiplicity
  _atom_site_fract_x
  _atom_site_fract_y
  _atom_site_fract_z
  _atom_site_occupancy
  Zn  Zn1       1.0  0.05573237635584151  0.4001484383798299  0.47785183009560944  1.0000
  Zn  Zn2       1.0  0.9851928569835522  0.48410712143567053  0.560042406856283  1.0000
  Zn  Zn3       1.0  0.058533476080839406  0.5613727568836921  0.4826166443798172  1.0000
  Zn  Zn4       1.0  0.9005808218956306  0.5544004504932547  0.47931115803189067  1.0000
  Zn  Zn5       1.0  0.6932037903130562  0.3499570092057667  0.2717777510307542  1.0000
  Zn  Zn6       1.0  0.6908007875105752  0.18837576840538617  0.2661734943439598  1.0000
  Zn  Zn7       1.0  0.7685943538413511  0.26591916950575734  0.19003151648638547  1.0000
  Zn  Zn8       1.0  0.8472914777670865  0.19699603527416787  0.27236241683702644  1.0000
  Zn  Zn9       1.0  0.26555178121287076  0.7660465225614106  0.6902416383790281  1.0000
  Zn  Zn10      1.0  0.34941158186124716  0.6968455012102339  0.7715396684594539  1.0000
  Zn  Zn11      1.0  0.192815251381262  0.849359936521367  0.7714398618865629  1.0000
  Zn  Zn12      1.0  0.1910951743163807  0.6880466571151018  0.7667013747160212  1.0000
  Zn  Zn13      1.0  0.5589284615991659  0.061615990566970445  0.9833994463074802  1.0000
  Zn  Zn14      1.0  0.40274845563261163  0.05304387281698553  0.9778427284828553  1.0000
  Zn  Zn15      1.0  0.5563684035169345  0.9001997253376359  0.978298017575092  1.0000
  Zn  Zn16      1.0  0.4823610705168306  0.9848265580278625  0.060390523318382267  1.0000
  H   H1        1.0  0.953761667050962  0.24914492253889647  0.35143976994837084  1.0000
  H   H2        1.0  0.7466127433378987  0.45520562630238  0.35066264794888713  1.0000
  H   H3        1.0  4.078712542110029e-05  0.29871583262082163  0.3994577261910663  1.0000
  H   H4        1.0  0.09702453545610011  0.5968787347421485  0.7000625265212364  1.0000
  H   H5        1.0  0.2013374629835383  0.7011875570017878  0.5973637564321095  1.0000
  H   H6        1.0  0.05014297701782059  0.5503052092187419  0.6508106790720305  1.0000
  H   H7        1.0  0.5499654582822443  0.0502411882645931  0.15301912297901774  1.0000
  H   H8        1.0  0.6526872286908514  0.15291998221472625  0.04868236179333959  1.0000
  H   H9        1.0  0.5993254482134702  0.09899323181200262  0.1998744501744696  1.0000
  H   H10       1.0  0.5016837655499132  0.7952117296050147  0.8985409444710867  1.0000
  H   H11       1.0  0.29589112093623976  0.0026358544715208545  0.8991739593661663  1.0000
  H   H12       1.0  0.451064237593819  0.7500310612626465  0.8505266907266602  1.0000
  C   C1        1.0  0.061512764238997916  0.3164924613526026  0.5614677577458879  1.0000
  C   C2        1.0  0.0693223482966587  0.569977557494319  0.5689994553308324  1.0000
  C   C3        1.0  0.18346295330812984  0.43920075766495636  0.43852536825279026  1.0000
  C   C4        1.0  0.937391911899212  0.684010666510389  0.43877567053385746  1.0000
  C   C5        1.0  0.9306031416613083  0.430594721571417  0.43086299280507484  1.0000
  C   C6        1.0  0.8168262874848012  0.5612036090291069  0.5620204136288649  1.0000
  C   C7        1.0  0.5662151168115842  0.3105362662982003  0.31120090659819505  1.0000
  C   C8        1.0  0.6817212567220635  0.18020440798994747  0.1805710130665474  1.0000
  C   C9        1.0  0.6893839473876611  0.4336930340996048  0.18857290300964283  1.0000
  C   C10       1.0  0.9346053267896295  0.18862563546750985  0.1893884732203475  1.0000
  C   C11       1.0  0.8187828914346155  0.32026698485780986  0.3194442713076029  1.0000
  C   C12       1.0  0.8120025742187238  0.06638071214813117  0.3112775488013498  1.0000
  C   C13       1.0  0.4332857505660499  0.6892157321289151  0.6883597970102784  1.0000
  C   C14       1.0  0.318763916389706  0.8200150387301265  0.8190899200212198  1.0000
  C   C15       1.0  0.18840744620047192  0.9333347906768168  0.688277462719519  1.0000
  C   C16       1.0  0.0658415285347189  0.8101503080813969  0.8110476456148845  1.0000
  C   C17       1.0  0.1806844111112795  0.6800671982724468  0.6806529748390701  1.0000
  C   C18       1.0  0.3123905553348294  0.5661843555632445  0.8110697344967122  1.0000
  C   C19       1.0  0.4378787373273951  0.18378055856756967  0.9386715598264459  1.0000
  C   C20       1.0  0.4312321130844339  0.9298992003460218  0.9304892765007439  1.0000
  C   C21       1.0  0.6834999791757569  0.9396134407596933  0.9387169658202268  1.0000
  C   C22       1.0  0.5609558207864824  0.8167439142405684  0.06159091720967782  1.0000
  C   C23       1.0  0.5687979433633431  0.0701777901033225  0.06946214544321089  1.0000
  C   C24       1.0  0.31601097333616934  0.06162617390348399  0.06091617136015509  1.0000
  C   C25       1.0  0.9004423099089964  0.4038741012386424  0.4020759243650288  1.0000
  C   C26       1.0  0.8474780596420928  0.3489075741033219  0.3480523809127334  1.0000
  C   C27       1.0  0.8289366816833522  0.4468176783526518  0.3876227500649918  1.0000
  C   C28       1.0  0.9191133110445976  0.3046747520274238  0.361824511692646  1.0000
  C   C29       1.0  0.802306252024735  0.42032159667291313  0.3610744724299125  1.0000
  C   C30       1.0  0.9446623122550477  0.3322012428204958  0.38839264221078196  1.0000
  C   C31       1.0  0.09884660882044473  0.5990485737735226  0.5968981703173739  1.0000
  C   C32       1.0  0.1520223840112251  0.6517946589468053  0.6518650236530091  1.0000
  C   C33       1.0  0.1418606032390812  0.6419016077613122  0.5827437693831854  1.0000
  C   C34       1.0  0.10929984225192871  0.6091851204475418  0.667004619579906  1.0000
  C   C35       1.0  0.16827539369339922  0.668174582213652  0.6095069765556076  1.0000
  C   C36       1.0  0.0833859501671412  0.5834803228916671  0.639716378531908  1.0000
  C   C37       1.0  0.3048112980634344  0.45405178521590267  0.4007251193154602  1.0000
  C   C38       1.0  0.4450572718631207  0.29555569528730524  0.3492603193511314  1.0000
  C   C39       1.0  0.258476949003196  0.41542627092869816  0.41381367998892665  1.0000
  C   C40       1.0  0.49140672773613414  0.33413169720150643  0.3361081498397596  1.0000
  C   C41       1.0  0.3770419522741406  0.3391860923735664  0.3727891042544798  1.0000
  C   C42       1.0  0.3728142078395679  0.4103844385817723  0.3771801598618865  1.0000
  C   C43       1.0  0.7255917629463086  0.57600934918252  0.6300076894743114  1.0000
  C   C44       1.0  0.5244313461123085  0.6737701590072546  0.6203515491011871  1.0000
  C   C45       1.0  0.7426240157319697  0.5853431566490885  0.5875187637414498  1.0000
  C   C46       1.0  0.5074271545845973  0.6646373477191503  0.6628696465247047  1.0000
  C   C47       1.0  0.6039324778286356  0.6414940749194004  0.60833646005635  1.0000
  C   C48       1.0  0.6460936607786394  0.6082038868832312  0.6420053162729431  1.0000
  C   C49       1.0  0.07636164198768822  0.2252476973330957  0.6295700159526803  1.0000
  C   C50       1.0  0.17386017116182736  0.024552251121349362  0.620246920111093  1.0000
  C   C51       1.0  0.08562334367960742  0.2423335760289262  0.5870549310809139  1.0000
  C   C52       1.0  0.1645523835282603  0.007455716861585379  0.6627600844478252  1.0000
  C   C53       1.0  0.1417492157113145  0.10390113837482322  0.6081285683627797  1.0000
  C   C54       1.0  0.1085186331148336  0.1458881218725665  0.6417123961977609  1.0000
  C   C55       1.0  0.8431295440086898  0.8014413513619374  0.3970097986905259  1.0000
  C   C56       1.0  0.9064481003533658  0.948731576939331  0.3528232074007035  1.0000
  C   C57       1.0  0.9114694053772754  0.7585716140233955  0.41365585985547426  1.0000
  C   C58       1.0  0.8380516510678504  0.9916730699726912  0.33621197304648837  1.0000
  C   C59       1.0  0.908425468633169  0.8793567846691988  0.37495769483596325  1.0000
  C   C60       1.0  0.8412970727504289  0.8707407235636214  0.3748211214351612  1.0000
  C   C61       1.0  0.653352062891237  0.15284585896214506  0.1512002330140092  1.0000
  C   C62       1.0  0.5980500178124046  0.09847415981916909  0.09800107703335209  1.0000
  C   C63       1.0  0.667337445205888  0.16719165944815711  0.10819454850802401  1.0000
  C   C64       1.0  0.5830252818704834  0.08321737859169093  0.14072742631555  1.0000
  C   C65       1.0  0.6405085374248712  0.14067623998221995  0.08175767405262492  1.0000
  C   C66       1.0  0.6104412071942137  0.11020785323501053  0.16663172709233717  1.0000
  C   C67       1.0  0.673711374599492  0.5247496727026332  0.12039131111914256  1.0000
  C   C68       1.0  0.5761223856209412  0.7255080172175996  0.12967600773281165  1.0000
  C   C69       1.0  0.6646834139902752  0.5077604488325987  0.16292706602353493  1.0000
  C   C70       1.0  0.5852639400057101  0.7426203297622395  0.08716058309335042  1.0000
  C   C71       1.0  0.6083050198248898  0.6461574440926937  0.1418074328076458  1.0000
  C   C72       1.0  0.6414450965230714  0.6041193428760748  0.10824291118243685  1.0000
  C   C73       1.0  0.08214421252270651  0.12362601385679278  0.17780346319624132  1.0000
  C   C74       1.0  0.1684598600918648  0.1260006924947703  0.0724190695349449  1.0000
  C   C75       1.0  0.009940541711529203  0.162817390454812  0.1650333992960782  1.0000
  C   C76       1.0  0.24067621568821812  0.08700689966156722  0.0852215447673217  1.0000
  C   C77       1.0  0.1106190749218001  0.1393106372683022  0.1061347126055381  1.0000
  C   C78       1.0  0.13993524465823273  0.11012037527961378  0.144073000671284  1.0000
  C   C79       1.0  0.3460048536598705  0.8498155006283387  0.8478073575505931  1.0000
  C   C80       1.0  0.4021944484131836  0.9015983857871748  0.9018502981109648  1.0000
  C   C81       1.0  0.30347510281264783  0.9210839269515745  0.8622221600536122  1.0000
  C   C82       1.0  0.4460146115444132  0.8301939531396912  0.8881235200946733  1.0000
  C   C83       1.0  0.33055646289257373  0.9471297854429538  0.8887695810619718  1.0000
  C   C84       1.0  0.4178923327952688  0.8052513550572654  0.8615416553228741  1.0000
  C   C85       1.0  0.4066717178919106  0.4486754028379495  0.8528639950082068  1.0000
  C   C86       1.0  0.3433814768978607  0.3013687712389697  0.8970969300172341  1.0000
  C   C87       1.0  0.3383866325576861  0.4915629192775839  0.8361759025279056  1.0000
  C   C88       1.0  0.41176692812699406  0.2584966332218102  0.9137302211572731  1.0000
  C   C89       1.0  0.3414413192313362  0.37071973486231996  0.874914889789693  1.0000
  C   C90       1.0  0.4085508545529424  0.37936679554938  0.8750597014119136  1.0000
  C   C91       1.0  0.9447271714660632  0.7953979379257846  0.8493594912255914  1.0000
  C   C92       1.0  0.8048671179986471  0.9542028813236533  0.9007087924144058  1.0000
  C   C93       1.0  0.9911495589418209  0.833853973036675  0.836081654447618  1.0000
  C   C94       1.0  0.7583607582473134  0.9157957281608803  0.9138924542287938  1.0000
  C   C95       1.0  0.8727945066458461  0.9103864723148266  0.8771718647024683  1.0000
  C   C96       1.0  0.8768037956756985  0.8392184369474904  0.8728871500191886  1.0000
  S   S1        1.0  0.2981995655622285  0.32559329597754083  0.397383662857102  1.0000
  S   S2        1.0  0.4516799567424315  0.4239452427963855  0.35259195827417494  1.0000
  S   S3        1.0  0.6612813176355985  0.6334969810233062  0.5621918976319051  1.0000
  S   S4        1.0  0.5887911402480768  0.6163949574314103  0.6881703500935288  1.0000
  S   S5        1.0  0.1337144150742589  0.16122039252945095  0.561904293880346  1.0000
  S   S6        1.0  0.1164833804554206  0.08856447195836378  0.6879483460015337  1.0000
  S   S7        1.0  0.9736346497063051  0.8029441741122626  0.4020757670763686  1.0000
  S   S8        1.0  0.7760794411014658  0.947092909835959  0.3477030902682685  1.0000
  S   S9        1.0  0.6164756318554013  0.5889085208374213  0.1880682784741197  1.0000
  S   S10       1.0  0.6333277968004225  0.6614385914581646  0.06200752139071143  1.0000
  S   S11       1.0  0.0127361402877284  0.18309469521008742  0.11169417427294799  1.0000
  S   S12       1.0  0.23780738856669367  0.06657288292169736  0.1385675928356349  1.0000
  S   S13       1.0  0.2763059179910954  0.4470702639317635  0.8477270204109004  1.0000
  S   S14       1.0  0.4737592090911705  0.3030449634672294  0.902211657216661  1.0000
  S   S15       1.0  0.9517173766343067  0.9237271033670427  0.8524628889647161  1.0000
  S   S16       1.0  0.7978299047492713  0.8259168454174032  0.8975234128023856  1.0000
  Br  Br1       1.0  0.2854114983005332  0.5513665370396056  0.41131986244875657  1.0000
  Br  Br2       1.0  0.46470244179320025  0.1979585289997985  0.3389247324103621  1.0000
  Br  Br3       1.0  0.7947089999040102  0.5278810428198925  0.669197329965435  1.0000
  Br  Br4       1.0  0.455393542821227  0.721782132452823  0.5811240899110359  1.0000
  Br  Br5       1.0  0.028262211028184905  0.29405654000194675  0.668668209315399  1.0000
  Br  Br6       1.0  0.2217027624611916  0.9557612296466546  0.5811369858254166  1.0000
  Br  Br7       1.0  0.7606675573996852  0.7756905968424308  0.40132700670549326  1.0000
  Br  Br8       1.0  0.9892934955137421  0.9740915318479394  0.3482678633481484  1.0000
  Br  Br9       1.0  0.7211548839336928  0.45572393114795756  0.08142125902755028  1.0000
  Br  Br10      1.0  0.5282814394912734  0.794309630652606  0.1687637202493804  1.0000
  Br  Br11      1.0  0.1063164506603655  0.09032950099340552  0.23197035929263876  1.0000
  Br  Br12      1.0  0.14438346125385237  0.15954187084356167  0.0182536392470283  1.0000
  Br  Br13      1.0  0.4894017152115637  0.47413645597790594  0.8483801915828622  1.0000
  Br  Br14      1.0  0.2606656788517512  0.2758721681486378  0.9016034488937166  1.0000
  Br  Br15      1.0  0.9641493616774498  0.6978180432542233  0.8391273708399041  1.0000
  Br  Br16      1.0  0.785607649017692  0.05165889790062283  0.9110472485271971  1.0000
  O   O1        1.0  0.0007047394106579  0.4987268013135876  0.4997321850312773  1.0000
  O   O2        1.0  0.0783363482145276  0.3146371663099358  0.5225747881397425  1.0000
  O   O3        1.0  0.03169462801697882  0.5312391173534579  0.586439247498241  1.0000
  O   O4        1.0  0.15428013423970546  0.5053404614204524  0.4497381735446809  1.0000
  O   O5        1.0  0.026460965415310504  0.3753515049420315  0.5800755299201297  1.0000
  O   O6        1.0  0.1544098594767931  0.39060918813235895  0.446384946514101  1.0000
  O   O7        1.0  0.08359345528281642  0.5858385535584745  0.5305033253727345  1.0000
  O   O8        1.0  0.004665485093667599  0.6578520837879438  0.44919388660148474  1.0000
  O   O9        1.0  0.8881163758475523  0.49523404543388955  0.4428798040991778  1.0000
  O   O10       1.0  0.8915199637686726  0.6523044348885209  0.4479918539482597  1.0000
  O   O11       1.0  0.9968444036379868  0.38588455763758833  0.441075668333255  1.0000
  O   O12       1.0  0.8761595165445897  0.525943767974873  0.5804668823177934  1.0000
  O   O13       1.0  0.8145007730644807  0.5783028098531628  0.5231375438114583  1.0000
  O   O14       1.0  0.7488353137835871  0.2510616889619044  0.25035354819560507  1.0000
  O   O15       1.0  0.5952539877543545  0.3591514481880436  0.3036388896372131  1.0000
  O   O16       1.0  0.6646176201643926  0.16263092425355538  0.2188139853324103  1.0000
  O   O17       1.0  0.7259789667885104  0.3747557898424248  0.1701488868968255  1.0000
  O   O18       1.0  0.5952415638493633  0.2448001193242035  0.2994730224222976  1.0000
  O   O19       1.0  0.6716016104189747  0.4357151744580465  0.2274405198018101  1.0000
  O   O20       1.0  0.7204401013845683  0.21837876862426245  0.16539449412142196  1.0000
  O   O21       1.0  0.8773942292084271  0.22411899948917827  0.16884039349672966  1.0000
  O   O22       1.0  0.8627333859899267  0.25467209975452937  0.30867693991851297  1.0000
  O   O23       1.0  0.9326484910840023  0.17378320408286652  0.22828954219183115  1.0000
  O   O24       1.0  0.753146131452681  0.36353737008826664  0.3082654198866734  1.0000
  O   O25       1.0  0.7456077977054678  0.09191859086909902  0.29980433001305334  1.0000
  O   O26       1.0  0.8571759446388044  0.09893871440460343  0.30330155623851596  1.0000
  O   O27       1.0  0.249663366098261  0.7499701256900625  0.7504876578634735  1.0000
  O   O28       1.0  0.3741193531334304  0.7240909416566409  0.6697447366004994  1.0000
  O   O29       1.0  0.36431834583174794  0.7546188676145467  0.8082948482582921  1.0000
  O   O30       1.0  0.17094257854171963  0.9350696375022737  0.7271498594475077  1.0000
  O   O31       1.0  0.43525383016778113  0.6730794063119347  0.7273114605468791  1.0000
  O   O32       1.0  0.22392877333789576  0.8744257607605803  0.6697155670427364  1.0000
  O   O33       1.0  0.25319078520883653  0.8615015283970352  0.8077249873602953  1.0000
  O   O34       1.0  0.09468461402346412  0.858881780732901  0.8031212672821794  1.0000
  O   O35       1.0  0.16501231617853312  0.6630346983885289  0.7190180771207935  1.0000
  O   O36       1.0  0.0949396993541001  0.7441956429841455  0.7995611149110502  1.0000
  O   O37       1.0  0.21853678935504922  0.7189000419683395  0.6643099915280004  1.0000
  O   O38       1.0  0.357558319392851  0.5987096936872973  0.8026196221862492  1.0000
  O   O39       1.0  0.24571928654884087  0.5914756049269914  0.7999601884433858  1.0000
  O   O40       1.0  0.5010893620789006  0.9989337915665149  1.6524811194115135e-05  1.0000
  O   O41       1.0  0.5044226786913484  0.15825374154649552  0.9499794316027276  1.0000
  O   O42       1.0  0.3875265551913714  0.9955047631329138  0.9413627421847153  1.0000
  O   O43       1.0  0.6542000343072517  0.8912257829009107  0.946286903938116  1.0000
  O   O44       1.0  0.39276799969924536  0.1511756530301369  0.946816305139798  1.0000
  O   O45       1.0  0.6546230027398394  0.005422399273108206  0.9503615838959761  1.0000
  O   O46       1.0  0.49685745586261026  0.8864191407004681  0.941605454504888  1.0000
  O   O47       1.0  0.578089323983747  0.8147257612018208  0.02269412368255535  1.0000
  O   O48       1.0  0.5301868047410494  0.03217515781101818  0.08592928448958759  1.0000
  O   O49       1.0  0.5254198997725866  0.875765245134829  0.08005225788986083  1.0000
  O   O50       1.0  0.5848553880823744  0.08659201807638792  0.031040225731814516  1.0000
  O   O51       1.0  0.31783921023319545  0.07607319289201091  0.0220037357729908  1.0000
  O   O52       1.0  0.37336385622401025  0.02694960974635314  0.0814376619628092  1.0000
  F   F1        1.0  0.7824533465955384  0.5164822510379138  0.3990183319039886  1.0000
  F   F2        1.0  0.1596379352327375  0.659518490815856  0.5420883509239189  1.0000
  F   F3        1.0  0.7078908395150876  0.2078742562129534  0.09050973061012972  1.0000
  F   F4        1.0  0.2336987705541276  0.9678992690360035  0.8507331479106455  1.0000
