data_image0
_chemical_formula_structural       AlH18C27N3O6
_chemical_formula_sum              "Al1 H18 C27 N3 O6"
_cell_length_a       3.9553550317782027
_cell_length_b       15.775148551933285
_cell_length_c       15.460356013800821
_cell_angle_alpha    61.34764253756648
_cell_angle_beta     77.63189250952085
_cell_angle_gamma    79.11659614125804

_space_group_name_H-M_alt    "P 1"
_space_group_IT_number       1

loop_
  _space_group_symop_operation_xyz
  'x, y, z'

loop_
  _atom_site_type_symbol
  _atom_site_label
  _atom_site_symmetry_multiplicity
  _atom_site_fract_x
  _atom_site_fract_y
  _atom_site_fract_z
  _atom_site_occupancy
  Al  Al1       1.0  0.009405369551174575  0.49469719954434765  0.5000925241259468  1.0000
  H   H1        1.0  0.23472320505934613  0.7693351093848191  0.5069832696073964  1.0000
  H   H2        1.0  0.24642739480957937  0.8666558440321026  0.595618094911764  1.0000
  H   H3        1.0  0.3708291102691916  0.6024166552636456  0.8645529039817963  1.0000
  H   H4        1.0  0.45552293981035763  0.0478457116831876  0.5897177916997338  1.0000
  H   H5        1.0  0.6096330787312281  0.22557874933290378  0.7679638065982888  1.0000
  H   H6        1.0  0.5734802703321049  0.046126394063414004  0.8599449564428173  1.0000
  H   H7        1.0  0.5868637923545278  0.8584811549186069  0.04744708295810096  1.0000
  H   H8        1.0  0.4084756244404274  0.5094435089521169  0.23122493002824035  1.0000
  H   H9        1.0  0.36242770902588706  0.6023307774582208  0.04892511854937704  1.0000
  H   H10       1.0  0.668331432329495  0.44472833467968087  0.7926226177221454  1.0000
  H   H11       1.0  0.26578630646837786  0.43840936564600935  0.7658463521699094  1.0000
  H   H12       1.0  0.28143201083166497  0.45067550381475735  0.873802089077707  1.0000
  H   H13       1.0  0.6312002926550161  0.19686760595140376  0.4273279777002091  1.0000
  H   H14       1.0  0.5873768040294819  0.3115537936217834  0.4270953024992041  1.0000
  H   H15       1.0  0.21436904278009902  0.25207573610724415  0.4538345771899161  1.0000
  H   H16       1.0  0.9431460414057327  0.7831387831375805  0.23764972925754096  1.0000
  H   H17       1.0  0.5477783791242101  0.7548269615346114  0.3187222420831618  1.0000
  H   H18       1.0  0.5587604978856859  0.861769709609213  0.20148296307380065  1.0000
  C   C1        1.0  0.5658615154681639  0.5688956625068684  0.34774669336788844  1.0000
  C   C2        1.0  0.38597544855727495  0.5768140721295295  0.5761574647508001  1.0000
  C   C3        1.0  0.5525937903644685  0.344788772474395  0.5765362531381514  1.0000
  C   C4        1.0  0.4664374922138347  0.9319272971691817  0.7847869297473694  1.0000
  C   C5        1.0  0.3643486949305553  0.7933868179523033  0.7873854827621615  1.0000
  C   C6        1.0  0.450289997949113  0.7909360787913684  0.9295823245475392  1.0000
  C   C7        1.0  0.2676613119300624  0.7334257021621085  0.585444621246751  1.0000
  C   C8        1.0  0.2730672305267346  0.7876062555240964  0.6343188636841222  1.0000
  C   C9        1.0  0.3206927916221502  0.739654127440403  0.7348716560805006  1.0000
  C   C10       1.0  0.34513885403634237  0.6379632286139127  0.7856751586015992  1.0000
  C   C11       1.0  0.35211102934287875  0.5822937505159443  0.7374057594474627  1.0000
  C   C12       1.0  0.3221039288347425  0.6317198482343328  0.634920779321803  1.0000
  C   C13       1.0  0.4925135095000993  0.0878460758424566  0.6276070566193755  1.0000
  C   C14       1.0  0.5184271475029049  0.1877550871259572  0.5740557349561897  1.0000
  C   C15       1.0  0.5551969089626423  0.23670214548153012  0.6268994684171718  1.0000
  C   C16       1.0  0.5763092677727142  0.18597706552917972  0.7292227454450926  1.0000
  C   C17       1.0  0.5558733350524604  0.08648624833598716  0.7806289688765988  1.0000
  C   C18       1.0  0.5071887400540048  0.03677925735988911  0.7300999910922958  1.0000
  C   C19       1.0  0.556744994628495  0.781018240288617  0.08833746867949807  1.0000
  C   C20       1.0  0.5923121694464867  0.7304072604197388  0.1895632412418777  1.0000
  C   C21       1.0  0.5435261707456149  0.63056082477231  0.2399709302643914  1.0000
  C   C22       1.0  0.4562260686434242  0.5856662318663481  0.1892079248204652  1.0000
  C   C23       1.0  0.429528835067259  0.6367219457805077  0.08857963791137285  1.0000
  C   C24       1.0  0.48069460905083605  0.7356675388251619  0.036987372023837346  1.0000
  C   C25       1.0  0.3923616766086721  0.4732016066969393  0.7954070334270754  1.0000
  C   C26       1.0  0.4885524674951609  0.24009483545876253  0.4645903836585605  1.0000
  C   C27       1.0  0.6620918450510304  0.7853054209131827  0.24006436707207973  1.0000
  N   N1        1.0  0.40002922323562  0.8888230264455289  0.7339801752362264  1.0000
  N   N2        1.0  0.37958053684151555  0.7419064969863456  0.8856921336099081  1.0000
  N   N3        1.0  0.499137194804504  0.8856610814614995  0.8823375692546951  1.0000
  O   O1        1.0  0.2751364214745208  0.3920290672258702  0.5973138968749583  1.0000
  O   O2        1.0  0.3677470634920253  0.4998425651593124  0.39533923151203976  1.0000
  O   O3        1.0  0.18748073784350075  0.5949653380047762  0.5130662420516574  1.0000
  O   O4        1.0  0.8207102004113476  0.3825910246206234  0.5172364007817695  1.0000
  O   O5        1.0  0.6518996955320446  0.5138603226107249  0.5929211970764218  1.0000
  O   O6        1.0  0.7775539872678078  0.5858298248190296  0.3878253742402435  1.0000
