data_image0
_chemical_formula_structural       ZnSiH16C24Br4N4F6
_chemical_formula_sum              "Zn1 Si1 H16 C24 Br4 N4 F6"
_cell_length_a       7.838286297829493
_cell_length_b       14.04886700555938
_cell_length_c       14.048803043741875
_cell_angle_alpha    89.70926284245682
_cell_angle_beta     86.03123640281736
_cell_angle_gamma    86.03155618480423

_space_group_name_H-M_alt    "P 1"
_space_group_IT_number       1

loop_
  _space_group_symop_operation_xyz
  'x, y, z'

loop_
  _atom_site_type_symbol
  _atom_site_label
  _atom_site_symmetry_multiplicity
  _atom_site_fract_x
  _atom_site_fract_y
  _atom_site_fract_z
  _atom_site_occupancy
  Zn  Zn1       1.0  0.49998830247415776  0.5000008799188151  0.5000016321023962  1.0000
  Si  Si1       1.0  0.9999968934913146  0.4999992805073814  0.49999958331164857  1.0000
  H   H1        1.0  0.2557660360692466  0.5002444367353148  0.3386515176869195  1.0000
  H   H2        1.0  0.2597677035760526  0.5001745982333077  0.1677495617811999  1.0000
  H   H3        1.0  0.8127958930433934  0.4999213676066248  0.16112293653931428  1.0000
  H   H4        1.0  0.7863487180812855  0.4998276333436704  0.3339990394921982  1.0000
  H   H5        1.0  0.18718517793032427  0.5000646930222317  0.8388809465098602  1.0000
  H   H6        1.0  0.7402097854040052  0.4998200272982842  0.8322501438424934  1.0000
  H   H7        1.0  0.7442052976715061  0.49975875468771136  0.6613476654534551  1.0000
  H   H8        1.0  0.21362729368105704  0.5001684188163863  0.6660064089654012  1.0000
  H   H9        1.0  0.2557730600984129  0.33865016475034077  0.5002490535306663  1.0000
  H   H10       1.0  0.2597704957554754  0.16774976020383287  0.5001777188556388  1.0000
  H   H11       1.0  0.8127991481160067  0.16112253297306  0.499917420595878  1.0000
  H   H12       1.0  0.7863532972814655  0.33399663973317917  0.4998268380562009  1.0000
  H   H13       1.0  0.1871850334682464  0.8388806525370214  0.5000677593625013  1.0000
  H   H14       1.0  0.740211513233348  0.8322498569606579  0.4998189476941732  1.0000
  H   H15       1.0  0.7442038800778692  0.661348740395425  0.49975705877050547  1.0000
  H   H16       1.0  0.21362837341527552  0.6660058319616056  0.5001676923187118  1.0000
  C   C1        1.0  0.3784872991776212  0.5001717270579178  0.29716614949929004  1.0000
  C   C2        1.0  0.38229239710477003  0.5001475732141216  0.19810753044891524  1.0000
  C   C3        1.0  0.5385389179887028  0.5000637857055352  0.1414866838300739  1.0000
  C   C4        1.0  0.684535610022785  0.49999681269147794  0.19542904721392768  1.0000
  C   C5        1.0  0.6713827307103775  0.4999633904079558  0.29453669132611526  1.0000
  C   C6        1.0  0.557633998620922  0.4999977050159714  0.03476804289891789  1.0000
  C   C7        1.0  0.4423483241470125  0.4999990563256204  0.9652364551975479  1.0000
  C   C8        1.0  0.31544366076173713  0.49999352990401746  0.8045748828869036  1.0000
  C   C9        1.0  0.46144128733800494  0.499929410198817  0.8585164862713839  1.0000
  C   C10       1.0  0.6176851695540365  0.4998463383213475  0.8018943110418063  1.0000
  C   C11       1.0  0.6214883058062527  0.4998278941132881  0.7028328911519777  1.0000
  C   C12       1.0  0.32859201434593643  0.5000326632966932  0.7054659571130272  1.0000
  C   C13       1.0  0.37849294241968334  0.29716573667678137  0.5001740682373139  1.0000
  C   C14       1.0  0.38229506781524963  0.19810555551115525  0.500148071025741  1.0000
  C   C15       1.0  0.5385427200850901  0.1414850045699652  0.5000616123235346  1.0000
  C   C16       1.0  0.6845384425602604  0.19542717567771456  0.4999940929067462  1.0000
  C   C17       1.0  0.67138892503408  0.29453539549398033  0.4999625470189171  1.0000
  C   C18       1.0  0.5576380176061734  0.0347657811215143  0.4999925883820708  1.0000
  C   C19       1.0  0.44235150980026827  0.965235258645485  0.49999952042922746  1.0000
  C   C20       1.0  0.3154421504932899  0.804573871346754  0.4999940780476066  1.0000
  C   C21       1.0  0.46144553142296024  0.8585160362569013  0.49992983223371107  1.0000
  C   C22       1.0  0.6176829397361633  0.8018954918557099  0.4998466025566443  1.0000
  C   C23       1.0  0.6214915161742172  0.7028345910714932  0.49982748632533697  1.0000
  C   C24       1.0  0.3285940246251828  0.7054670753025148  0.5000319356885895  1.0000
  Br  Br1       1.0  0.7967852828006844  0.4999367919812981  0.9903207735977585  1.0000
  Br  Br2       1.0  0.20319656925101987  0.5000742380435383  0.009686522464690497  1.0000
  Br  Br3       1.0  0.7967855172899476  0.9903207489398085  0.4999191610226104  1.0000
  Br  Br4       1.0  0.20320216702958763  0.0096845705317747  0.5000829617409223  1.0000
  N   N1        1.0  0.5199295796284746  0.5000549482814378  0.345984800715179  1.0000
  N   N2        1.0  0.48004447965129793  0.499946813999074  0.6540157111385623  1.0000
  N   N3        1.0  0.5199341765734788  0.34598430856889445  0.5000554382960444  1.0000
  N   N4        1.0  0.4800425244383178  0.6540167382420778  0.4999456902469745  1.0000
  F   F1        1.0  0.22577319858090317  0.5002064806780027  0.5002129589684756  1.0000
  F   F2        1.0  0.7742226838045384  0.4997945524970787  0.4997881664848761  1.0000
  F   F3        1.0  6.49584378460278e-06  0.5858009541638437  0.4142105346811603  1.0000
  F   F4        1.0  0.9999926578203285  0.4141943700929716  0.5857862247295527  1.0000
  F   F5        1.0  0.021484142238229306  0.41423743787180456  0.4142196430817008  1.0000
  F   F6        1.0  0.9785095358348738  0.5857607433774277  0.585780154274026  1.0000
