data_image0
_chemical_formula_structural       Al2H12C26Br4O12
_chemical_formula_sum              "Al2 H12 C26 Br4 O12"
_cell_length_a       6.651036247116172
_cell_length_b       11.166561945252159
_cell_length_c       15.261839694975205
_cell_angle_alpha    84.50866767996766
_cell_angle_beta     77.87251540982452
_cell_angle_gamma    71.79166412523243

_space_group_name_H-M_alt    "P 1"
_space_group_IT_number       1

loop_
  _space_group_symop_operation_xyz
  'x, y, z'

loop_
  _atom_site_type_symbol
  _atom_site_label
  _atom_site_symmetry_multiplicity
  _atom_site_fract_x
  _atom_site_fract_y
  _atom_site_fract_z
  _atom_site_occupancy
  Al  Al1       1.0  0.5024775878190366  0.49910651132863393  0.500075375065805  1.0000
  Al  Al2       1.0  0.00681790877063541  0.49248238522415744  0.5005985538691959  1.0000
  H   H1        1.0  0.31328327052550253  0.3472230566288132  0.5566785940209585  1.0000
  H   H2        1.0  0.7152936210135152  0.6443240296282224  0.4455225352047307  1.0000
  H   H3        1.0  0.8555397795885467  0.4920879799642037  0.9430264682323896  1.0000
  H   H4        1.0  0.1850817276198809  0.4463317199629628  0.05976765978475382  1.0000
  H   H5        1.0  0.637534793665935  0.575091565313784  0.230571262964105  1.0000
  H   H6        1.0  0.7203270104248247  0.5865372616564245  0.06534014879241569  1.0000
  H   H7        1.0  0.2910096663133499  0.5269242075885006  0.7673797741096635  1.0000
  H   H8        1.0  0.19125852298854076  0.5373431920925923  0.9311271427781095  1.0000
  H   H9        1.0  0.21049831830842441  0.22618170859739448  0.372239363562592  1.0000
  H   H10       1.0  0.43005877419713556  0.7578570984755187  0.3818609016979124  1.0000
  H   H11       1.0  0.9947922329236644  0.49737182313574363  0.7072263684892732  1.0000
  H   H12       1.0  0.04205805963331235  0.44725732970104554  0.29414864260784407  1.0000
  C   C1        1.0  0.8630717749256857  0.27078895688544685  0.4910554340914359  1.0000
  C   C2        1.0  0.6787996827737712  0.5002626426586616  0.6630945073270665  1.0000
  C   C3        1.0  0.1375180037838034  0.7214477753173368  0.5080113814968074  1.0000
  C   C4        1.0  0.3207288159063069  0.5022712893657014  0.33716271556431104  1.0000
  C   C5        1.0  0.6247419857287679  0.5090057573820486  0.7609085875007366  1.0000
  C   C6        1.0  0.36216925503476455  0.509775073568491  0.23907236453571562  1.0000
  C   C7        1.0  0.783315114110813  0.5022014306945124  0.8120927465062805  1.0000
  C   C8        1.0  0.7276631117595113  0.5031923433679992  0.9057825800091521  1.0000
  C   C9        1.0  0.23042272122028604  0.47649537573109757  0.18915228408038587  1.0000
  C   C10       1.0  0.2837852346825115  0.4783200750908065  0.0953589653436921  1.0000
  C   C11       1.0  0.5384772854798071  0.548593254001254  0.19206429693733898  1.0000
  C   C12       1.0  0.586402901570011  0.5527811154656206  0.0994776616798134  1.0000
  C   C13       1.0  0.41309587950103566  0.5207230471363856  0.8062985588541878  1.0000
  C   C14       1.0  0.3583220433438682  0.5247492082016193  0.8986751376516295  1.0000
  C   C15       1.0  0.5162990461588918  0.5147085177070351  0.9503359989876402  1.0000
  C   C16       1.0  0.46095301545907574  0.5155481169996604  0.04935814354540468  1.0000
  C   C17       1.0  0.9307661373811554  0.12928172138962418  0.49386163803559674  1.0000
  C   C18       1.0  0.12557392657674174  0.06162781618318289  0.43692022456653495  1.0000
  C   C19       1.0  0.809721116835135  0.06466298641249318  0.553585044705805  1.0000
  C   C20       1.0  0.25722064453574933  0.12377438438794287  0.3766517636785593  1.0000
  C   C21       1.0  0.4487828919767906  0.056894222905469895  0.3246607274884425  1.0000
  C   C22       1.0  0.06302519472507123  0.8628440753927152  0.5031256898184608  1.0000
  C   C23       1.0  0.8769113389705789  0.9305681263014308  0.5588852780593427  1.0000
  C   C24       1.0  0.1910300348252106  0.926618855204012  0.44098047574238564  1.0000
  C   C25       1.0  0.38258496337246567  0.8602157729971792  0.38309176691959834  1.0000
  C   C26       1.0  0.5120678093489558  0.9229757784624297  0.3279231551665376  1.0000
  Br  Br1       1.0  0.7203582988437063  0.8445748376673236  0.6465749398672144  1.0000
  Br  Br2       1.0  0.5630727245830444  0.15391291969294224  0.6359634599940094  1.0000
  Br  Br3       1.0  0.6207953205306538  0.14757790252571104  0.2504582308734555  1.0000
  Br  Br4       1.0  0.7746825727473164  0.825832504640644  0.2589659932347388  1.0000
  O   O1        1.0  0.6777740617649641  0.3286982307019173  0.47423242144079586  1.0000
  O   O2        1.0  0.8673681070319287  0.50871287417025  0.6238194601274714  1.0000
  O   O3        1.0  0.011361371017201706  0.6647219251766074  0.4920962677120926  1.0000
  O   O4        1.0  0.44909354778267363  0.526908018090019  0.3790957605290047  1.0000
  O   O5        1.0  0.32536566160329966  0.669257495250676  0.5244755084385132  1.0000
  O   O6        1.0  0.15025196127710666  0.4713762614493433  0.3771223780013671  1.0000
  O   O7        1.0  0.9983942613355763  0.32176698913664836  0.5061197288210906  1.0000
  O   O8        1.0  0.5442171764508217  0.4825362732346931  0.6216451504272981  1.0000
  O   O9        1.0  0.268961409237825  0.4361397285431037  0.5385131825059446  1.0000
  O   O10       1.0  0.7440577352583304  0.5551776525802764  0.46178722757488805  1.0000
  O   O11       1.0  0.9899550306153982  0.4915263189686598  0.7735174090111343  1.0000
  O   O12       1.0  0.055136367571968437  0.44087227653310634  0.22819441690550954  1.0000
