data_image0
_chemical_formula_structural       Cd8H48C56N32
_chemical_formula_sum              "Cd8 H48 C56 N32"
_cell_length_a       9.286115227
_cell_length_b       14.793905206991976
_cell_length_c       15.246
_cell_angle_alpha    90.0
_cell_angle_beta     90.0
_cell_angle_gamma    100.45505393457805

_space_group_name_H-M_alt    "P 1"
_space_group_IT_number       1

loop_
  _space_group_symop_operation_xyz
  'x, y, z'

loop_
  _atom_site_type_symbol
  _atom_site_label
  _atom_site_symmetry_multiplicity
  _atom_site_fract_x
  _atom_site_fract_y
  _atom_site_fract_z
  _atom_site_occupancy
  Cd  Cd1       1.0  0.6921357268670505  0.2439324434385099  0.7954460186278351  1.0000
  Cd  Cd2       1.0  0.3078635928895324  0.2560665153051147  0.2954460186278354  1.0000
  Cd  Cd3       1.0  0.30786407167036606  0.7560675361467162  0.2045539813721646  1.0000
  Cd  Cd4       1.0  0.6921338531811116  0.7439327769141215  0.7045539813721646  1.0000
  Cd  Cd5       1.0  0.7653845388061171  0.9980911642239008  0.766407582316674  1.0000
  Cd  Cd6       1.0  0.23461573851213302  0.501909836202934  0.2664088941361696  1.0000
  Cd  Cd7       1.0  0.2346163366078784  0.0019088153613325  0.2335924176833259  1.0000
  Cd  Cd8       1.0  0.7653844574525266  0.49809151811427904  0.733592417683326  1.0000
  H   H1        1.0  0.46528745978372404  0.9362241006978422  0.6506388560934013  1.0000
  H   H2        1.0  0.5347147725740627  0.5637762123629955  0.150640167912897  1.0000
  H   H3        1.0  0.53471321691665  0.063775191521394  0.349361799816343  1.0000
  H   H4        1.0  0.4652863015535544  0.4362244545882277  0.8493617998163427  1.0000
  H   H5        1.0  0.33973554551920426  0.1931835248420626  0.7251475796930364  1.0000
  H   H6        1.0  0.6602614217705992  0.3068147465355722  0.22514757969303636  1.0000
  H   H7        1.0  0.6602638555909763  0.8068150800111837  0.2748517643972193  1.0000
  H   H8        1.0  0.3397336718332582  0.6931838583176742  0.7748517643972193  1.0000
  H   H9        1.0  0.16646918372971703  0.9591697522613741  0.612112029384754  1.0000
  H   H10       1.0  0.8335276642451747  0.5408305607994706  0.1121113734750097  1.0000
  H   H11       1.0  0.8335293392174989  0.0408295399578691  0.3878886265249903  1.0000
  H   H12       1.0  0.1664710574156629  0.45916941878576256  0.887889938344486  1.0000
  H   H13       1.0  0.12462944208616021  0.0667569851971024  0.6387800078709205  1.0000
  H   H14       1.0  0.8753706725249089  0.433244723010489  0.1387793519611691  1.0000
  H   H15       1.0  0.8753701577376347  0.9332423070221338  0.3612199921290795  1.0000
  H   H16       1.0  0.12462697225934964  0.5667552565747371  0.8612206480388308  1.0000
  H   H17       1.0  0.3677938602118331  0.2046687232116895  0.5132847960120657  1.0000
  H   H18       1.0  0.6322069338485719  0.2953316102639221  0.013284140102321396  1.0000
  H   H19       1.0  0.6322059383255905  0.7953312563735436  0.4867158598976786  1.0000
  H   H20       1.0  0.3677941402790453  0.704669056687301  0.9867165158074229  1.0000
  H   H21       1.0  0.11338216813313551  0.9415422513822591  0.4375993703266445  1.0000
  H   H22       1.0  0.8866179104715003  0.5584580616785857  0.9375980585071486  1.0000
  H   H23       1.0  0.8866185085672386  0.058457040836984185  0.5624012855831069  1.0000
  H   H24       1.0  0.11338296494249532  0.4415419179066475  0.0624019414928512  1.0000
  H   H25       1.0  0.7828109482635668  0.4586752026371101  0.5128873147054946  1.0000
  H   H26       1.0  0.21718896763388074  0.04132581820449129  0.012887314705494597  1.0000
  H   H27       1.0  0.217191401454258  0.5413261516801029  0.4871126852945053  1.0000
  H   H28       1.0  0.782812305207358  0.9586755361127217  0.9871120293847537  1.0000
  H   H29       1.0  0.6630986992896837  0.17257216818925505  0.5881142594778979  1.0000
  H   H30       1.0  0.3368999410175634  0.3274281652863564  0.08811425947789787  1.0000
  H   H31       1.0  0.33689846475886753  0.8274298734939549  0.4118857405221021  1.0000
  H   H32       1.0  0.6631000562334748  0.6725725016648667  0.9118857405221019  1.0000
  H   H33       1.0  0.6403817033899842  0.307878101726061  0.379660894660894  1.0000
  H   H34       1.0  0.35961909067042086  0.1921222317495506  0.8796615505706382  1.0000
  H   H35       1.0  0.359618293861061  0.6921225652251621  0.6203391053391059  1.0000
  H   H36       1.0  0.6403800284176597  0.8078791225676625  0.12033844942936157  1.0000
  H   H37       1.0  0.6828270812587576  0.2010311823790829  0.4112954217499691  1.0000
  H   H38       1.0  0.3171724372114468  0.2989684637305388  0.9112960776597134  1.0000
  H   H39       1.0  0.31717311470590204  0.798970171938137  0.5887052341597823  1.0000
  H   H40       1.0  0.6828275600395983  0.7010322032206844  0.08870457825003088  1.0000
  H   H41       1.0  0.9887755147095518  0.18490282672973274  0.39566181293454145  1.0000
  H   H42       1.0  0.011225676778103405  0.3150988814778657  0.8956605011150458  1.0000
  H   H43       1.0  0.011223803092157416  0.8150992149534771  0.6043388429752099  1.0000
  H   H44       1.0  0.9887734423099843  0.6849024728393472  0.1043394988849542  1.0000
  H   H45       1.0  0.875228593714411  0.4454145379087109  0.32068411386593  1.0000
  H   H46       1.0  0.1247711234694151  0.0545857955669007  0.8206847697756814  1.0000
  H   H47       1.0  0.12477160225024869  0.5545868164085093  0.6793152302243185  1.0000
  H   H48       1.0  0.8752279956186657  0.9454155587503121  0.17931588613407  1.0000
  C   C1        1.0  0.2101986625263024  0.0333681821086671  0.6096038305129239  1.0000
  C   C2        1.0  0.7898008559439021  0.4666314640009546  0.10960317460317268  1.0000
  C   C3        1.0  0.7898018154604574  0.9666304227445792  0.3903974813065716  1.0000
  C   C4        1.0  0.2101989425935145  0.5333685155842716  0.8903974813065714  1.0000
  C   C5        1.0  0.3450379297156729  0.0550525170758505  0.6653882985701145  1.0000
  C   C6        1.0  0.6549594350013734  0.44494712903377115  0.16538764266037015  1.0000
  C   C7        1.0  0.6549603945179214  0.9449460877773956  0.3346130132493741  1.0000
  C   C8        1.0  0.3450369341926844  0.555052163185465  0.8346117014298855  1.0000
  C   C9        1.0  0.45432454504670255  0.0023542285245099  0.6784513970877624  1.0000
  C   C10       1.0  0.5456738965469229  0.4976454175851117  0.1784507411780112  1.0000
  C   C11       1.0  0.5456737791868919  0.9976443763287364  0.3215505706414773  1.0000
  C   C12       1.0  0.45432374823733573  0.5023545620001215  0.8215499147317331  1.0000
  C   C13       1.0  0.39138188866291307  0.1335290924460466  0.7163872491145185  1.0000
  C   C14       1.0  0.6086154760541335  0.3664705536635751  0.21638724911451845  1.0000
  C   C15       1.0  0.6086164355706815  0.8664695124071997  0.2836134067952258  1.0000
  C   C16       1.0  0.3913808931399245  0.6335287385556609  0.7836120949757299  1.0000
  C   C17       1.0  0.2321464672954932  0.0617302776935347  0.5150419782237989  1.0000
  C   C18       1.0  0.7678556023551125  0.4382707431480668  0.0150406664043032  1.0000
  C   C19       1.0  0.7678561644444174  0.9382683271597045  0.4849593335956968  1.0000
  C   C20       1.0  0.23214634993546207  0.5617292364371662  0.984959989505441  1.0000
  C   C21       1.0  0.3067146654401895  0.1447936463320616  0.4799560540469656  1.0000
  C   C22       1.0  0.6932863273338442  0.3552073745095399  0.9799547422274697  1.0000
  C   C23       1.0  0.6932860112601916  0.8552056458871746  0.5200452577725301  1.0000
  C   C24       1.0  0.3067136699172011  0.6447932924416833  0.0200459136822744  1.0000
  C   C25       1.0  0.1767173985355512  0.0108837531261443  0.4411327561327596  1.0000
  C   C26       1.0  0.823284472401433  0.4891165803494673  0.9411327561327594  1.0000
  C   C27       1.0  0.8232843550414018  0.9891155390930919  0.5588672438672404  1.0000
  C   C28       1.0  0.17671747988914183  0.5108833992357589  0.0588672438672404  1.0000
  C   C29       1.0  0.7203757176776618  0.2758221012971873  0.4160527351436443  1.0000
  C   C30       1.0  0.27962419821979273  0.2241789195444213  0.9160527351436443  1.0000
  C   C31       1.0  0.27962467700062626  0.7241799403860225  0.5839479207661  1.0000
  C   C32       1.0  0.720374920868295  0.7758224347727989  0.0839472648563557  1.0000
  C   C33       1.0  0.7206895956403302  0.3038693832574708  0.5108389085661784  1.0000
  C   C34       1.0  0.2793111984200749  0.1961309502181408  0.0108395644759298  1.0000
  C   C35       1.0  0.2793075684082211  0.6961326584257391  0.4891610914338216  1.0000
  C   C36       1.0  0.7206898757075422  0.8038697167330824  0.98916043552407  1.0000
  C   C37       1.0  0.7536036992151195  0.3928090437663627  0.5459976387249128  1.0000
  C   C38       1.0  0.2463960179687064  0.10719128970924878  0.0459976387249128  1.0000
  C   C39       1.0  0.24639454171000352  0.6071929979168473  0.4540023612750871  1.0000
  C   C40       1.0  0.7536048574452963  0.8928086898759773  0.9540017053653427  1.0000
  C   C41       1.0  0.6933956596618742  0.24704277455482773  0.5845828414010228  1.0000
  C   C42       1.0  0.3066064099887384  0.2529582462867737  0.0845828414010228  1.0000
  C   C43       1.0  0.306603658139835  0.7529592671283751  0.4154178145087215  1.0000
  C   C44       1.0  0.6933957410154648  0.7470424206644495  0.9154165026892327  1.0000
  C   C45       1.0  0.868078498913242  0.3025173343501066  0.3736986750623146  1.0000
  C   C46       1.0  0.13192269257440611  0.1974843738574847  0.873698019152563  1.0000
  C   C47       1.0  0.1319218957650463  0.6974847073330963  0.6263019808474368  1.0000
  C   C48       1.0  0.8680764265136747  0.8025169804597283  0.1263019808474368  1.0000
  C   C49       1.0  0.9835056525535465  0.2532764967413286  0.3711747343565506  1.0000
  C   C50       1.0  0.016495737647730397  0.2467258988322598  0.871174078446806  1.0000
  C   C51       1.0  0.016494742124741932  0.7467255449418815  0.6288259215531937  1.0000
  C   C52       1.0  0.983504657030558  0.7532761428509431  0.1288259215531937  1.0000
  C   C53       1.0  0.9263063290529487  0.3861250968547409  0.3331227863046067  1.0000
  C   C54       1.0  0.0736935868444988  0.1138759239868605  0.833123442214351  1.0000
  C   C55       1.0  0.07369386691171091  0.6138762574624721  0.6668765577856488  1.0000
  C   C56       1.0  0.9263057309572106  0.8861261176963424  0.166876557785649  1.0000
  N   N1        1.0  0.557200374700308  0.0462521702731493  0.7338869211596517  1.0000
  N   N2        1.0  0.442799342483518  0.4537481632024623  0.23388626524990025  1.0000
  N   N3        1.0  0.44279922512348696  0.953747121946094  0.266114390659844  1.0000
  N   N4        1.0  0.5572006547675201  0.5462525037487609  0.7661137347500995  1.0000
  N   N5        1.0  0.5179779160990421  0.1273214901672617  0.7580644103371341  1.0000
  N   N6        1.0  0.4820230766749845  0.3726795306743398  0.2580657221566298  1.0000
  N   N7        1.0  0.4820231580285821  0.8726791767839615  0.24193493375311445  1.0000
  N   N8        1.0  0.517975644985853  0.6273204489108932  0.7419349337531143  1.0000
  N   N9        1.0  0.29599119349121145  0.1428717710168712  0.39137544273907565  1.0000
  N   N10       1.0  0.7040085236926146  0.3571285624587404  0.8913747868293311  1.0000
  N   N11       1.0  0.7040062525794257  0.857127521202365  0.6086252131706684  1.0000
  N   N12       1.0  0.2959925504350096  0.6428721044924828  0.1086258690804129  1.0000
  N   N13       1.0  0.2135579915209647  0.0602496913455681  0.3673494687131083  1.0000
  N   N14       1.0  0.7864428025394403  0.4397506421300434  0.8673488128033567  1.0000
  N   N15       1.0  0.7864428838930307  0.939750288239658  0.6326511871966431  1.0000
  N   N16       1.0  0.2135591497511342  0.5602493374551898  0.1326505312868917  1.0000
  N   N17       1.0  0.7463772149582724  0.3884373960537033  0.634445100354192  1.0000
  N   N18       1.0  0.2536228996527967  0.1115643121538952  0.13444510035419194  1.0000
  N   N19       1.0  0.25362210284342984  0.6115646456295067  0.3655555555555523  1.0000
  N   N20       1.0  0.7463770975982414  0.888436354797328  0.8655548996458078  1.0000
  N   N21       1.0  0.7088871368293681  0.2986137828783767  0.6583615374524499  1.0000
  N   N22       1.0  0.2911138559446655  0.20138723796322464  0.1583615374524499  1.0000
  N   N23       1.0  0.2911119822587196  0.7013875714388362  0.3416384625475501  1.0000
  N   N24       1.0  0.7088870194693371  0.7986127416220086  0.8416378066378059  1.0000
  N   N25       1.0  0.10140365648349102  0.3039697386923805  0.3317643972189401  1.0000
  N   N26       1.0  0.8985975350041644  0.196031969515218  0.8317637413091958  1.0000
  N   N27       1.0  0.8985967381947974  0.6960323029908294  0.668236258690804  1.0000
  N   N28       1.0  0.10140158408392351  0.8039693848020022  0.1682369146005485  1.0000
  N   N29       1.0  0.0658174825730953  0.3859766258003461  0.3078479601206894  1.0000
  N   N30       1.0  0.9341826320379737  0.1140250824072453  0.8078479601206892  1.0000
  N   N31       1.0  0.934181835228607  0.6140254158828569  0.6921520398793106  1.0000
  N   N32       1.0  0.06581756392669282  0.8859762719099675  0.1921513839695663  1.0000
