data_image0
_chemical_formula_structural       La4H36C28S4O36
_chemical_formula_sum              "La4 H36 C28 S4 O36"
_cell_length_a       8.393845033242439
_cell_length_b       7.989295286609864
_cell_length_c       19.287277860725737
_cell_angle_alpha    90.00008236975688
_cell_angle_beta     89.99946752699194
_cell_angle_gamma    75.49846947774614

_space_group_name_H-M_alt    "P 1"
_space_group_IT_number       1

loop_
  _space_group_symop_operation_xyz
  'x, y, z'

loop_
  _atom_site_type_symbol
  _atom_site_label
  _atom_site_symmetry_multiplicity
  _atom_site_fract_x
  _atom_site_fract_y
  _atom_site_fract_z
  _atom_site_occupancy
  La  La1       1.0  0.34129795554515135  0.33942061726247624  0.5113053730818677  1.0000
  La  La2       1.0  0.15870531937751045  0.6605772246828182  0.0113058620965703  1.0000
  La  La3       1.0  0.6586992465640336  0.66057249043525  0.4886959105037789  1.0000
  La  La4       1.0  0.8413000616461517  0.33942743257317437  0.9886959400144164  1.0000
  H   H1        1.0  0.11545527759064102  0.08375620093459452  0.57125576026408  1.0000
  H   H2        1.0  0.38453388427635105  0.9162452104017547  0.07125990182615279  1.0000
  H   H3        1.0  0.884547392820586  0.9162412385574115  0.4287439679364552  1.0000
  H   H4        1.0  0.615469373012928  0.08375720083763127  0.9287398263636177  1.0000
  H   H5        1.0  0.23301878656460664  0.9768327124342377  0.5119558038632519  1.0000
  H   H6        1.0  0.2669793318342926  0.0231671137000333  0.011956807226859198  1.0000
  H   H7        1.0  0.766982188582979  0.02316873574232399  0.48804236887565366  1.0000
  H   H8        1.0  0.7330195192995318  0.9768320886066493  0.988042402449736  1.0000
  H   H9        1.0  0.1102241519749754  0.1717709544853534  0.4135312248197209  1.0000
  H   H10       1.0  0.38977806211985905  0.8282327787889515  0.9135336052761999  1.0000
  H   H11       1.0  0.8897750160200456  0.8282256818893077  0.5864664294396889  1.0000
  H   H12       1.0  0.6102206305600716  0.17176770649597023  0.0864666413472222  1.0000
  H   H13       1.0  0.028163643609012516  0.3745836525983249  0.411639790464605  1.0000
  H   H14       1.0  0.4718358364665177  0.6254253537445038  0.9116386058222119  1.0000
  H   H15       1.0  0.971835207571374  0.6254155496839077  0.5883589007354999  1.0000
  H   H16       1.0  0.5281646634125466  0.3745799433178547  0.08836164080422998  1.0000
  H   H17       1.0  0.412629818544552  0.00971124708482308  0.4147202971374923  1.0000
  H   H18       1.0  0.08738427369649318  0.990282177954775  0.9147191554185241  1.0000
  H   H19       1.0  0.5873702529103397  0.9902877952519231  0.5852789125528729  1.0000
  H   H20       1.0  0.912615481176587  0.009719430167265798  0.0852784988301281  1.0000
  H   H21       1.0  0.5850861634184525  0.05044384476558862  0.41875940213326857  1.0000
  H   H22       1.0  0.9149222042766567  0.9495486781296594  0.9187609735632661  1.0000
  H   H23       1.0  0.4149134794725741  0.9495489429189091  0.5812403260504695  1.0000
  H   H24       1.0  0.0850778672713659  0.0504503641581806  0.081237199174133  1.0000
  H   H25       1.0  0.6351057745269698  0.2779489948377289  0.3195175770921068  1.0000
  H   H26       1.0  0.8648729389145868  0.7220492256872649  0.8195154829166781  1.0000
  H   H27       1.0  0.36489068215714576  0.7220404241397631  0.6804857804040907  1.0000
  H   H28       1.0  0.13511583316196857  0.27795382211527914  0.1804811342550323  1.0000
  H   H29       1.0  0.5461465564899727  0.3470993283853969  0.19811458781147448  1.0000
  H   H30       1.0  0.9538423475335307  0.6528940114881439  0.6981112686645827  1.0000
  H   H31       1.0  0.45385977460508536  0.6528976313435352  0.8018882512892843  1.0000
  H   H32       1.0  0.04614938678582798  0.3470947641463057  0.301885867064847  1.0000
  H   H33       1.0  0.15714104688348834  0.7751326118770339  0.26786939092456646  1.0000
  H   H34       1.0  0.34286463958043356  0.22488559886304677  0.767866613761143  1.0000
  H   H35       1.0  0.8428677248537111  0.22486402791202661  0.7321334482037469  1.0000
  H   H36       1.0  0.6571323575099014  0.7751188952776005  0.2321357067360381  1.0000
  C   C1        1.0  0.3148981346687806  0.6284339035241189  0.34659448251385777  1.0000
  C   C2        1.0  0.18510570706813922  0.37156992689664037  0.8465940162364376  1.0000
  C   C3        1.0  0.68510204834908  0.3715739594702682  0.6534073195297693  1.0000
  C   C4        1.0  0.8148952678466229  0.6284315214021917  0.1534067488848834  1.0000
  C   C5        1.0  0.45268778299029566  0.4897487948097634  0.3631192617957097  1.0000
  C   C6        1.0  0.04730841418081867  0.510245847877549  0.8631184834113413  1.0000
  C   C7        1.0  0.547311384771902  0.5102478416871747  0.6368809848461153  1.0000
  C   C8        1.0  0.9526901201849258  0.4897559203122413  0.1368812447294658  1.0000
  C   C9        1.0  0.530996148793534  0.38634094190645385  0.3078389483116268  1.0000
  C   C10       1.0  0.9689963906796275  0.6136584259744  0.8078351908176202  1.0000
  C   C11       1.0  0.46900392247509604  0.6136581005281058  0.6921623352846709  1.0000
  C   C12       1.0  0.030997420948835994  0.38634269906798835  0.192162463368291  1.0000
  C   C13       1.0  0.47982908421487025  0.4257374206369279  0.24011797072476068  1.0000
  C   C14       1.0  0.02016353373112167  0.5742590819767771  0.7401151263014398  1.0000
  C   C15       1.0  0.5201697667326852  0.5742617817675679  0.7598833128577664  1.0000
  C   C16       1.0  0.979831498032162  0.4257418831934886  0.2598846018041812  1.0000
  C   C17       1.0  0.34629765803487794  0.5666411379200085  0.2246649208412705  1.0000
  C   C18       1.0  0.1536998596780278  0.4333561528517437  0.7246607560820023  1.0000
  C   C19       1.0  0.6537048538758938  0.4333575845746865  0.775336362782582  1.0000
  C   C20       1.0  0.8462998949622288  0.5666454553925676  0.275339490549065  1.0000
  C   C21       1.0  0.26253648364394166  0.6677623175060674  0.2790176286784316  1.0000
  C   C22       1.0  0.23746528119436758  0.33224331262080403  0.7790164941476191  1.0000
  C   C23       1.0  0.737464649631576  0.3322378478634321  0.7209831364490284  1.0000
  C   C24       1.0  0.7625334113924326  0.667757172713024  0.22098478942876906  1.0000
  C   C25       1.0  0.28830269331814407  0.6082792676010771  0.15290337430567996  1.0000
  C   C26       1.0  0.2116939276227753  0.39172568283907344  0.6528991977606606  1.0000
  C   C27       1.0  0.7117005639245805  0.39172314366276595  0.8470968723605735  1.0000
  C   C28       1.0  0.7883047650571625  0.6082748024458482  0.3471010488627683  1.0000
  S   S1        1.0  0.21778094940889048  0.7501216436130065  0.4171426247278589  1.0000
  S   S2        1.0  0.28222479901531017  0.24986799794947961  0.9171404350625849  1.0000
  S   S3        1.0  0.7822201837734966  0.24987852180540673  0.5828591773525672  1.0000
  S   S4        1.0  0.7177777128954688  0.7501307245452153  0.0828608485612605  1.0000
  O   O1        1.0  0.16673022489425895  0.6303384960679708  0.46542716191512307  1.0000
  O   O2        1.0  0.3332643634097181  0.3696661235577281  0.9654236982432209  1.0000
  O   O3        1.0  0.8332748858331628  0.36965862365534724  0.5345761956483412  1.0000
  O   O4        1.0  0.6667336959203282  0.6303394933955957  0.034575511402699995  1.0000
  O   O5        1.0  0.22451138322512776  0.06534472748708  0.5484015251084102  1.0000
  O   O6        1.0  0.2754806636042843  0.934654687892497  0.048404213253661496  1.0000
  O   O7        1.0  0.7754883716479455  0.9346568806349611  0.45159612914024183  1.0000
  O   O8        1.0  0.7245206279854202  0.065344194572134  0.9515970703564135  1.0000
  O   O9        1.0  0.34583272089659534  0.825771750221108  0.45056889387813465  1.0000
  O   O10       1.0  0.15416643690177517  0.17421607251636567  0.9505623758586808  1.0000
  O   O11       1.0  0.6541732935700821  0.17422777531756845  0.5494329082573941  1.0000
  O   O12       1.0  0.8458336346462473  0.825782969771474  0.049435796878725596  1.0000
  O   O13       1.0  0.1327141928771098  0.28372600876608095  0.42266145394592763  1.0000
  O   O14       1.0  0.3672902007472558  0.7162768228219605  0.9226615255543463  1.0000
  O   O15       1.0  0.8672837547037132  0.7162707876274228  0.5773372372526779  1.0000
  O   O16       1.0  0.6327109326679549  0.28372334247418246  0.0773376841436644  1.0000
  O   O17       1.0  0.08016694287632478  0.8900153238782736  0.3926545628732114  1.0000
  O   O18       1.0  0.4198414631087387  0.109986119454355  0.8926423202378686  1.0000
  O   O19       1.0  0.919835252219812  0.10998596452399317  0.6073477576913433  1.0000
  O   O20       1.0  0.5801600990566058  0.8900203003962234  0.1073542970608372  1.0000
  O   O21       1.0  0.4654451932755777  0.10515252830055027  0.42169871586533964  1.0000
  O   O22       1.0  0.034567645429568424  0.8948415550447495  0.921698123619187  1.0000
  O   O23       1.0  0.5345564151287617  0.894843788256516  0.5783015308040405  1.0000
  O   O24       1.0  0.9654333297645863  0.10515989310736268  0.0782995306432355  1.0000
  O   O25       1.0  0.5052560277365571  0.4629290913003246  0.4284178891313175  1.0000
  O   O26       1.0  0.9947455656656885  0.5370662653699512  0.9284167724572187  1.0000
  O   O27       1.0  0.494749558166255  0.5370641795861032  0.571584431497584  1.0000
  O   O28       1.0  0.0052488327477035815  0.46293983146871653  0.0715819186709012  1.0000
  O   O29       1.0  0.3662025814744964  0.5204624019484854  0.10121137845823108  1.0000
  O   O30       1.0  0.13378831734009103  0.4795522613457734  0.6012080195924696  1.0000
  O   O31       1.0  0.6338076808800253  0.47954161540332063  0.8987899052313748  1.0000
  O   O32       1.0  0.8662153217618352  0.5204665081083704  0.3987932639745678  1.0000
  O   O33       1.0  0.15923080745560003  0.7278850390989363  0.1408760202085304  1.0000
  O   O34       1.0  0.3407599529993134  0.27210594447454645  0.6408749462345966  1.0000
  O   O35       1.0  0.8407607680373487  0.27210501970937884  0.8591263002796053  1.0000
  O   O36       1.0  0.6592360288819277  0.7278873231442091  0.35912530038430646  1.0000
