data_image0
_chemical_formula_structural       Cu2H24C32N8Cl12O12
_chemical_formula_sum              "Cu2 H24 C32 N8 Cl12 O12"
_cell_length_a       9.506794296181134
_cell_length_b       9.50677934523528
_cell_length_c       13.004454077499279
_cell_angle_alpha    87.19797775196622
_cell_angle_beta     87.19795581133975
_cell_angle_gamma    87.61714103019149

_space_group_name_H-M_alt    "P 1"
_space_group_IT_number       1

loop_
  _space_group_symop_operation_xyz
  'x, y, z'

loop_
  _atom_site_type_symbol
  _atom_site_label
  _atom_site_symmetry_multiplicity
  _atom_site_fract_x
  _atom_site_fract_y
  _atom_site_fract_z
  _atom_site_occupancy
  Cu  Cu1       1.0  4.086078646995361e-06  0.49999992579269303  0.4999978519281498  1.0000
  Cu  Cu2       1.0  0.5000012218639894  0.9999962290322484  1.518489086072947e-07  1.0000
  H   H1        1.0  0.5344211230726472  0.6475420061277716  0.005123823906878005  1.0000
  H   H2        1.0  0.3524580755679451  0.4655746482774389  0.49487586066577904  1.0000
  H   H3        1.0  0.46557776442475785  0.35245600385061227  0.994874525245443  1.0000
  H   H4        1.0  0.6475440225522034  0.5344223225986724  0.5051247137673798  1.0000
  H   H5        1.0  0.6492730026220955  0.5122673053948075  0.051949150401448214  1.0000
  H   H6        1.0  0.48773256522781583  0.35072683153592266  0.4480503453831517  1.0000
  H   H7        1.0  0.3507270718205362  0.4877275476890119  0.9480500417798723  1.0000
  H   H8        1.0  0.5122704571778556  0.6492733061316754  0.5519508442243861  1.0000
  H   H9        1.0  0.8704950747070657  0.7657214135833639  0.4274351751874619  1.0000
  H   H10       1.0  0.2342810799855783  0.12950453341521495  0.0725634671849917  1.0000
  H   H11       1.0  0.12950675302474218  0.23428187324941513  0.5725628650559429  1.0000
  H   H12       1.0  0.7657220737499487  0.8704924424093645  0.9274378363498529  1.0000
  H   H13       1.0  0.7261847239072168  0.852145537061929  0.2779885010264849  1.0000
  H   H14       1.0  0.14785849518241892  0.2738089519832271  0.22201265400860137  1.0000
  H   H15       1.0  0.27381289939656034  0.147857748012207  0.7220120042588221  1.0000
  H   H16       1.0  0.8521489196388147  0.726186984534621  0.7779900663520039  1.0000
  H   H17       1.0  0.7709601158616908  0.43203936815312705  0.16538262308595364  1.0000
  H   H18       1.0  0.567963278045184  0.22903482497663663  0.3346192237180645  1.0000
  H   H19       1.0  0.22903439467742004  0.5679628584337734  0.8346188079835812  1.0000
  H   H20       1.0  0.43204307600824876  0.7709611014398232  0.6653812299840923  1.0000
  H   H21       1.0  0.9146197975769113  0.3652707055329499  0.3166424536560797  1.0000
  H   H22       1.0  0.6347312193498382  0.08537862725732738  0.18335771433856246  1.0000
  H   H23       1.0  0.08537795190429881  0.6347294125452335  0.6833566279997783  1.0000
  H   H24       1.0  0.36527298227243676  0.9146183457863369  0.8166420119628343  1.0000
  C   C1        1.0  0.21675685541703169  0.7263156268254887  0.4900075775319053  1.0000
  C   C2        1.0  0.2736838197114367  0.7832402666237639  0.009991380888607196  1.0000
  C   C3        1.0  0.7832480438790342  0.27368977501865277  0.50999026772989  1.0000
  C   C4        1.0  0.7263131419665285  0.21675352797282696  0.9900087370769342  1.0000
  C   C5        1.0  0.25211267610979604  0.8741704953556347  0.4355237601737585  1.0000
  C   C6        1.0  0.1258295803827849  0.7478885927257436  0.0644750384851775  1.0000
  C   C7        1.0  0.7478922283386921  0.12583491164143368  0.5644756226447996  1.0000
  C   C8        1.0  0.8741684343343438  0.2521052042428521  0.9355250398036716  1.0000
  C   C9        1.0  0.8447938065807821  0.6963312740287433  0.36756133421929604  1.0000
  C   C10       1.0  0.30367195494394394  0.1552037942174778  0.1324396552018214  1.0000
  C   C11       1.0  0.1552059717303749  0.30367096699464463  0.6324406672451631  1.0000
  C   C12       1.0  0.6963322080541304  0.8447942379267771  0.8675615706805643  1.0000
  C   C13       1.0  0.7658486384153491  0.7433421814885576  0.2849323737993998  1.0000
  C   C14       1.0  0.25665806764587973  0.23414596390480816  0.2150704004628494  1.0000
  C   C15       1.0  0.23414806575532773  0.25665794194700436  0.7150690538682909  1.0000
  C   C16       1.0  0.7433472385208049  0.7658499652925668  0.7849316304727623  1.0000
  C   C17       1.0  0.7355742063765335  0.6495120084640146  0.2103537830550906  1.0000
  C   C18       1.0  0.35048999542858184  0.26442116708064833  0.28964580918432153  1.0000
  C   C19       1.0  0.26441933094801584  0.35048810012614945  0.7896454573075289  1.0000
  C   C20       1.0  0.6495174554406304  0.7355737077601388  0.7103546428169167  1.0000
  C   C21       1.0  0.7893279211687699  0.5106372908282424  0.2208743767556456  1.0000
  C   C22       1.0  0.4893650321480152  0.21066540520803298  0.2791267845127905  1.0000
  C   C23       1.0  0.21066768618612744  0.48936388418298543  0.7791270526129708  1.0000
  C   C24       1.0  0.5106413682582484  0.7893294698372131  0.7208744759435178  1.0000
  C   C25       1.0  0.8690954785569505  0.4714219384159364  0.3050964065200219  1.0000
  C   C26       1.0  0.5285805507387807  0.13090029884114068  0.1949046354341135  1.0000
  C   C27       1.0  0.13090328533922957  0.5285792411348494  0.6949041350401401  1.0000
  C   C28       1.0  0.47142475027548875  0.8690956252033143  0.8050958579447354  1.0000
  C   C29       1.0  0.6430732949434628  0.7037325639894546  0.12542271261043683  1.0000
  C   C30       1.0  0.29626802071275193  0.3569232723733079  0.3745769139031907  1.0000
  C   C31       1.0  0.3569267305701231  0.2962633378891225  0.8745749040383473  1.0000
  C   C32       1.0  0.7037393400270133  0.6430737077863709  0.6254226933681295  1.0000
  N   N1        1.0  0.8947752881698393  0.5620955011940223  0.3774641581790519  1.0000
  N   N2        1.0  0.4379101830161505  0.1052204003521808  0.12253600946061029  1.0000
  N   N3        1.0  0.10522325169083048  0.4379109429422172  0.6225346559455005  1.0000
  N   N4        1.0  0.5620951205743268  0.8947755262687377  0.8774652526966236  1.0000
  N   N5        1.0  0.6118226978204504  0.6146671593308993  0.05402519287748932  1.0000
  N   N6        1.0  0.38533291161052574  0.38817481936806064  0.4459744070737912  1.0000
  N   N7        1.0  0.38817623345357083  0.38532979669980694  0.9459731942506053  1.0000
  N   N8        1.0  0.6146701056427303  0.6118253131466175  0.5540252449769838  1.0000
  Cl  Cl1       1.0  0.3856120962786919  0.8436709696631154  0.33676046370257495  1.0000
  Cl  Cl2       1.0  0.1563281753750303  0.6143863874120256  0.16323767683422832  1.0000
  Cl  Cl3       1.0  0.614389594970838  0.15633547385976235  0.6632359250567673  1.0000
  Cl  Cl4       1.0  0.8436687451025264  0.38560846370869944  0.8367631719339242  1.0000
  Cl  Cl5       1.0  0.3174136653424569  0.9826803392378523  0.5300263870321089  1.0000
  Cl  Cl6       1.0  0.0173184652687368  0.6825885596128883  0.9699721854623746  1.0000
  Cl  Cl7       1.0  0.6825934327376048  0.0173229646078781  0.4699729923845979  1.0000
  Cl  Cl8       1.0  0.9826774459462726  0.31740523518816127  0.03002874095823671  1.0000
  Cl  Cl9       1.0  0.1052487853682891  0.9633786216341703  0.38056740239437653  1.0000
  Cl  Cl10      1.0  0.0366193217675672  0.8947515272055282  0.11943232286451891  1.0000
  Cl  Cl11      1.0  0.8947530166203922  0.03662573718150239  0.6194359813219208  1.0000
  Cl  Cl12      1.0  0.9633753973497862  0.1052454193371517  0.8805662229703443  1.0000
  O   O1        1.0  0.09012081906343641  0.6928987181201547  0.4850428456385742  1.0000
  O   O2        1.0  0.3071006605593141  0.9098789099400192  0.014955264750113896  1.0000
  O   O3        1.0  0.9098864747138009  0.3070992927990516  0.5149498046515504  1.0000
  O   O4        1.0  0.6929005673567732  0.0901138505027674  0.985047807597951  1.0000
  O   O5        1.0  0.3171374742342437  0.6598746546246659  0.5313842275496583  1.0000
  O   O6        1.0  0.34012519285391823  0.6828605708631199  0.9686144061495909  1.0000
  O   O7        1.0  0.6828681433453241  0.34013919663164666  0.46861788689957967  1.0000
  O   O8        1.0  0.6598676390681959  0.31713110119717663  0.0313844089174964  1.0000
  O   O9        1.0  0.5965870815504175  0.829016217782275  0.1256355419371005  1.0000
  O   O10       1.0  0.17098478260550823  0.40340797596354605  0.3743649248882619  1.0000
  O   O11       1.0  0.4034107503316022  0.1709817872476407  0.8743620781135348  1.0000
  O   O12       1.0  0.8290206059619932  0.5965858401855539  0.6256356444421272  1.0000
