data_image0
_chemical_formula_structural       Ni2H24C20S4N36
_chemical_formula_sum              "Ni2 H24 C20 S4 N36"
_cell_length_a       6.768312890986428
_cell_length_b       8.263223380860946
_cell_length_c       18.43103781019689
_cell_angle_alpha    90.00012441349752
_cell_angle_beta     90.00049168258259
_cell_angle_gamma    104.20533380985265

_space_group_name_H-M_alt    "P 1"
_space_group_IT_number       1

loop_
  _space_group_symop_operation_xyz
  'x, y, z'

loop_
  _atom_site_type_symbol
  _atom_site_label
  _atom_site_symmetry_multiplicity
  _atom_site_fract_x
  _atom_site_fract_y
  _atom_site_fract_z
  _atom_site_occupancy
  Ni  Ni1       1.0  0.5000071863985697  0.9999999809075322  0.5000008104112013  1.0000
  Ni  Ni2       1.0  0.9999964902464736  1.4778429501996571e-06  0.9999990646704334  1.0000
  H   H1        1.0  0.5698838882149531  0.2590353553485799  0.3541862213903642  1.0000
  H   H2        1.0  0.9301187104902057  0.7409633913204204  0.8541833040893678  1.0000
  H   H3        1.0  0.43013450563155703  0.7409591875860359  0.6458192757236177  1.0000
  H   H4        1.0  0.06987561856431773  0.2590397733767134  0.14581785248433482  1.0000
  H   H5        1.0  0.9131250305671514  0.8973244982086327  0.45248160622452355  1.0000
  H   H6        1.0  0.5868767172744995  0.1026739826326875  0.9524796704807346  1.0000
  H   H7        1.0  0.0868793441635987  0.10265751602619129  0.5475228057342961  1.0000
  H   H8        1.0  0.4131157519908868  0.8973329141181876  0.0475209435285748  1.0000
  H   H9        1.0  0.0952810303734495  0.4794805777672194  0.30149561150904  1.0000
  H   H10       1.0  0.404718598860498  0.5205161564539224  0.8014918627193952  1.0000
  H   H11       1.0  0.9047211041109833  0.5205089070264107  0.6985028322560327  1.0000
  H   H12       1.0  0.5952731377010849  0.4794882436108238  0.19850603847230994  1.0000
  H   H13       1.0  0.8394429966746769  0.4611969709775677  0.2749920900201914  1.0000
  H   H14       1.0  0.6605461538411744  0.5387971833395752  0.774989718471268  1.0000
  H   H15       1.0  0.160556925794495  0.5387900106868527  0.7250101516813672  1.0000
  H   H16       1.0  0.33943929883929513  0.46120594249576635  0.2250103529616112  1.0000
  H   H17       1.0  0.03439022189620296  0.7607012554416812  0.29131607320507413  1.0000
  H   H18       1.0  0.465600274769308  0.23929533684378157  0.7913144355530406  1.0000
  H   H19       1.0  0.9656119125813943  0.23928822934919938  0.7086818279969622  1.0000
  H   H20       1.0  0.5343888693744532  0.7607102986188037  0.20868617845016504  1.0000
  H   H21       1.0  0.09701704569005194  0.7177977688493796  0.3818021090254504  1.0000
  H   H22       1.0  0.4029819985069877  0.2822060009160125  0.8818008460326183  1.0000
  H   H23       1.0  0.9029943033746193  0.28220297687146007  0.6181957921970921  1.0000
  H   H24       1.0  0.5970071456435946  0.7177996345493084  0.11820031053363073  1.0000
  C   C1        1.0  0.6995929743074286  0.2788154877442182  0.3904594981025725  1.0000
  C   C2        1.0  0.8004079449941912  0.7211848616528298  0.8904561321459852  1.0000
  C   C3        1.0  0.3004254054576947  0.7211840420481506  0.6095438287615168  1.0000
  C   C4        1.0  0.19958121318315852  0.27881578693277487  0.10954285416579522  1.0000
  C   C5        1.0  0.785326229908385  0.832548194169  0.4198380585651122  1.0000
  C   C6        1.0  0.7146728364688357  0.16745368814397923  0.919836606910906  1.0000
  C   C7        1.0  0.2146814558421255  0.16744006820361787  0.5801625554607881  1.0000
  C   C8        1.0  0.2853155609443547  0.8325544375121935  0.08016346452917131  1.0000
  C   C9        1.0  0.9489669971207277  0.5003016553294941  0.3191460704540248  1.0000
  C   C10       1.0  0.5510284356702685  0.4996954622444748  0.8191438418455876  1.0000
  C   C11       1.0  0.05104511276955751  0.49969161334549733  0.6808556287076258  1.0000
  C   C12       1.0  0.4489592290800956  0.5003101667420536  0.18085677215516682  1.0000
  C   C13       1.0  0.9811503261820462  0.6831301013787155  0.3392313500770641  1.0000
  C   C14       1.0  0.5188467252208752  0.3168659777328315  0.8392272172745623  1.0000
  C   C15       1.0  0.018852526945281122  0.3168668669670325  0.6607692639448575  1.0000
  C   C16       1.0  0.4811468711503224  0.6831346902864154  0.1607728541706805  1.0000
  C   C17       1.0  0.22703358246651817  0.07814227652745839  0.3737666690418991  1.0000
  C   C18       1.0  0.27296083528745646  0.921856405543508  0.8737612281035824  1.0000
  C   C19       1.0  0.7729751741735029  0.9218597045884778  0.6262334024291007  1.0000
  C   C20       1.0  0.7270357057618425  0.07814926227459301  0.126234502844504  1.0000
  S   S1        1.0  0.13589885304249802  0.12268765967965577  0.29724832973360554  1.0000
  S   S2        1.0  0.3640899331815889  0.8773127247461546  0.797248032821493  1.0000
  S   S3        1.0  0.8641065784690697  0.8773130601452338  0.7027511991682474  1.0000
  S   S4        1.0  0.6359069742571675  0.12269419143012068  0.20275203863214136  1.0000
  N   N1        1.0  0.711678835765632  0.19976227572554  0.4523583290234541  1.0000
  N   N2        1.0  0.7883243743083383  0.8002411972105318  0.9523560815009873  1.0000
  N   N3        1.0  0.2883421224042095  0.800241005554213  0.5476455404097038  1.0000
  N   N4        1.0  0.21166367080360968  0.19976069323246995  0.04764236224647791  1.0000
  N   N5        1.0  0.9022461850554391  0.26343692681970043  0.4790717661999366  1.0000
  N   N6        1.0  0.5977551190301753  0.7365630651601763  0.979068827378491  1.0000
  N   N7        1.0  0.09777256105134317  0.7365638513116083  0.5209321032283896  1.0000
  N   N8        1.0  0.4022325456996966  0.2634425638181169  0.0209301589331261  1.0000
  N   N9        1.0  0.005141048618746464  0.3768583325859752  0.43585192892439306  1.0000
  N   N10       1.0  0.4948612158444092  0.6231422524821681  0.9358480318807025  1.0000
  N   N11       1.0  0.9948802899331781  0.6231412101584866  0.5641513979446131  1.0000
  N   N12       1.0  0.5051242227683231  0.37686586021641927  0.06415095442837071  1.0000
  N   N13       1.0  0.8795407460038619  0.38864737444237096  0.38003721146438363  1.0000
  N   N14       1.0  0.6204610239957447  0.6113516275398041  0.880032604026134  1.0000
  N   N15       1.0  0.12047949353674184  0.6113484232907569  0.6199655728380125  1.0000
  N   N16       1.0  0.37952516134073017  0.388653994962432  0.11996638228302463  1.0000
  N   N17       1.0  0.7972398729103672  0.7244560049123266  0.36689255594694714  1.0000
  N   N18       1.0  0.7027567617230445  0.2755415961951826  0.8668895374324495  1.0000
  N   N19       1.0  0.20276447364395267  0.27553598303249066  0.6331064303860076  1.0000
  N   N20       1.0  0.29723386179362876  0.7244640457352034  0.1331094488840847  1.0000
  N   N21       1.0  0.6078087008820033  0.6635353662252256  0.3388780557511311  1.0000
  N   N22       1.0  0.8921868622503766  0.3364607028387567  0.8388751796392953  1.0000
  N   N23       1.0  0.392198590377724  0.33646162152943754  0.6611187603368478  1.0000
  N   N24       1.0  0.10780339491780216  0.6635436907499397  0.16112272154995821  1.0000
  N   N25       1.0  0.48548743509837783  0.7339715818656388  0.3746951849857468  1.0000
  N   N26       1.0  0.014510711574480722  0.2660246323788868  0.8746926182836462  1.0000
  N   N27       1.0  0.5145224345524112  0.266029157370916  0.625301088545207  1.0000
  N   N28       1.0  0.9854766008473277  0.7339747613834788  0.1253041977723157  1.0000
  N   N29       1.0  0.5922690112616494  0.8397607454673731  0.4252845321057279  1.0000
  N   N30       1.0  0.9077294595226773  0.16023869532288162  0.9252815439370821  1.0000
  N   N31       1.0  0.4077423518571024  0.16023501338473517  0.5747133691145194  1.0000
  N   N32       1.0  0.09225747251704779  0.8397644369747752  0.07471581468302452  1.0000
  N   N33       1.0  0.2875280476785632  0.04104903404444119  0.4304911759733089  1.0000
  N   N34       1.0  0.21247333518972067  0.9589539869577592  0.9304926221261242  1.0000
  N   N35       1.0  0.7124884863173547  0.9589492409191961  0.5695088955088679  1.0000
  N   N36       1.0  0.7875102577084475  0.041052870934073796  0.069507449305398  1.0000
