data_image0
_chemical_formula_structural       Cd3H48C28S4N20Cl2
_chemical_formula_sum              "Cd3 H48 C28 S4 N20 Cl2"
_cell_length_a       8.546939207600364
_cell_length_b       11.225312455417388
_cell_length_c       13.068
_cell_angle_alpha    73.81964050371894
_cell_angle_beta     86.44980962738045
_cell_angle_gamma    77.66849834018441

_space_group_name_H-M_alt    "P 1"
_space_group_IT_number       1

loop_
  _space_group_symop_operation_xyz
  'x, y, z'

loop_
  _atom_site_type_symbol
  _atom_site_label
  _atom_site_symmetry_multiplicity
  _atom_site_fract_x
  _atom_site_fract_y
  _atom_site_fract_z
  _atom_site_occupancy
  Cd  Cd1       1.0  0.9626708821355837  0.5792834735004675  0.7706755399339329  1.0000
  Cd  Cd2       1.0  0.03732295597829701  0.4207187323045289  0.229316682386127  1.0000
  Cd  Cd3       1.0  2.9511660954966465e-06  0.5000020505760645  0.4999945304371778  1.0000
  H   H1        1.0  0.4260470409002295  0.8790250412887985  0.4361979609525052  1.0000
  H   H2        1.0  0.5739580833854346  0.1209743214954955  0.563807493686312  1.0000
  H   H3        1.0  0.5552538601500174  0.7740322868237185  0.5284141785976358  1.0000
  H   H4        1.0  0.44475082771612046  0.225964232939873  0.4715881481053614  1.0000
  H   H5        1.0  0.3526838302000641  0.0079974172301718  0.8265622339500994  1.0000
  H   H6        1.0  0.647311861872339  0.992006683921957  0.17344017279128118  1.0000
  H   H7        1.0  0.2128558383768109  0.0245551697891955  0.9191747488817158  1.0000
  H   H8        1.0  0.7871295486432855  0.9754479836893636  0.08082218023077552  1.0000
  H   H9        1.0  0.2391164759256271  0.6422336378483067  0.3389116557358919  1.0000
  H   H10       1.0  0.7608961724745525  0.3577638295888547  0.6610901217241505  1.0000
  H   H11       1.0  0.3101458742912299  0.7834995457559868  0.32170461526562383  1.0000
  H   H12       1.0  0.6898771333014722  0.2164941309869022  0.6782984152501684  1.0000
  H   H13       1.0  0.5244509491196752  0.6250968567399724  0.2734809428646656  1.0000
  H   H14       1.0  0.47556420621942397  0.3748863955936841  0.7265264313964367  1.0000
  H   H15       1.0  0.5055617020258794  0.5111267905766539  0.3958495651379224  1.0000
  H   H16       1.0  0.4944388415037012  0.48886309547197015  0.6041583434520632  1.0000
  H   H17       1.0  0.5847145639096708  0.6457495067811152  0.3941377035436133  1.0000
  H   H18       1.0  0.4153013272690487  0.35423090253184597  0.6058749128138531  1.0000
  H   H19       1.0  0.17688808440806264  0.7787033698344458  0.777468280568641  1.0000
  H   H20       1.0  0.8231135772404272  0.2212912545820132  0.22253385715375626  1.0000
  H   H21       1.0  0.3073011469827591  0.8696298055476106  0.6950474643180513  1.0000
  H   H22       1.0  0.6926962620487274  0.1303676618895508  0.304955695560956  1.0000
  H   H23       1.0  0.4406981636818372  0.7225044319764393  0.864432796537649  1.0000
  H   H24       1.0  0.5593036891063008  0.2774939831342849  0.1355684260710035  1.0000
  H   H25       1.0  0.541209677154967  0.6921646627355357  0.7484264460580762  1.0000
  H   H26       1.0  0.4587911945136938  0.3078375430694535  0.2515746741410894  1.0000
  H   H27       1.0  0.4152257894112736  0.591109491940486  0.822650079629824  1.0000
  H   H28       1.0  0.5847795801542546  0.4088889231702453  0.17735100055015346  1.0000
  H   H29       1.0  0.2696821356556214  0.0710432966082593  0.6119637487244134  1.0000
  H   H30       1.0  0.730320889391649  0.9289551185024648  0.388038191636049  1.0000
  H   H31       1.0  0.13583791350737326  0.194560226283464  0.5257155054398908  1.0000
  H   H32       1.0  0.8641693641569006  0.8054353458065648  0.47428311707984955  1.0000
  H   H33       1.0  0.044540729055583504  0.9820703265741244  0.5800807311272465  1.0000
  H   H34       1.0  0.9554669850282093  0.0179280885366069  0.4199187236442016  1.0000
  H   H35       1.0  0.902203509326469  0.1048278592644607  0.6145591768625353  1.0000
  H   H36       1.0  0.09780068797993378  0.8951705558462635  0.38543276805720683  1.0000
  H   H37       1.0  0.027847327816239376  0.9908903244602739  0.7136830769316234  1.0000
  H   H38       1.0  0.9721514446140348  0.0091109336711526  0.2863152942172178  1.0000
  H   H39       1.0  0.1520204725450824  0.1701225680165521  0.9965043022587424  1.0000
  H   H40       1.0  0.8479726297291851  0.8298824808091396  0.0034926259294464244  1.0000
  H   H41       1.0  0.11896699670598568  0.3359379596720231  0.9651392831595444  1.0000
  H   H42       1.0  0.8810223435110202  0.6640680368272385  0.034856040091860135  1.0000
  H   H43       1.0  0.3911122241217413  0.23127973397602367  0.04483738603092751  1.0000
  H   H44       1.0  0.6088787247739162  0.7687291055439402  0.9551617829081068  1.0000
  H   H45       1.0  0.40511985828983643  0.3344851760941268  0.9157038466904623  1.0000
  H   H46       1.0  0.5948720175850752  0.6655246110994  0.08429123172277292  1.0000
  H   H47       1.0  0.4460992007192672  0.16737810536711348  0.9343856461584608  1.0000
  H   H48       1.0  0.5538945832543901  0.8326288388057108  0.0656130964188506  1.0000
  C   C1        1.0  0.1755900581108847  0.5609820015785445  0.9903320706629161  1.0000
  C   C2        1.0  0.8243923855507731  0.4390325239828172  0.009657664168770511  1.0000
  C   C3        1.0  0.7365646577321243  0.8749206670710166  0.7643382271233393  1.0000
  C   C4        1.0  0.2634188211892337  0.125085329428245  0.2356657510176134  1.0000
  C   C5        1.0  0.2745729211611306  0.6836156994894935  0.4811008797557079  1.0000
  C   C6        1.0  0.7254347929226626  0.3163827156212378  0.5188993402437773  1.0000
  C   C7        1.0  0.3239797143481695  0.6842468500849748  0.3699344521423881  1.0000
  C   C8        1.0  0.6760376772287486  0.3157458789843517  0.6300675022078438  1.0000
  C   C9        1.0  0.49528740764188944  0.6126690655850453  0.3582628373309404  1.0000
  C   C10       1.0  0.5047244761996907  0.3873132390750484  0.6417471919523337  1.0000
  C   C11       1.0  0.2530900861948098  0.7258866789363267  0.6380103805227294  1.0000
  C   C12       1.0  0.746910785473851  0.27411552686866963  0.3619892092203614  1.0000
  C   C13       1.0  0.2849896692439272  0.7735470779575165  0.7277939887555576  1.0000
  C   C14       1.0  0.7150086667668205  0.2264513371532075  0.2722081415098074  1.0000
  C   C15       1.0  0.42955225238124234  0.6896182638615613  0.7941924477419917  1.0000
  C   C16       1.0  0.5704484281477704  0.3103801512491629  0.20580882234288816  1.0000
  C   C17       1.0  0.1387391686480299  0.2106754152867936  0.6818185906017717  1.0000
  C   C18       1.0  0.8612612124608887  0.7893286858653354  0.3181775044104  1.0000
  C   C19       1.0  0.1486543250072359  0.1311466495614582  0.6068471872652168  1.0000
  C   C20       1.0  0.8513489453199058  0.8688508178757033  0.39315343954855564  1.0000
  C   C21       1.0  0.023348834465650704  0.04743959108012769  0.6304230476476107  1.0000
  C   C22       1.0  0.9766553628407519  0.9525588240305963  0.36957272341232544  1.0000
  C   C23       1.0  0.154185994886177  0.2648491747325536  0.8309145197859138  1.0000
  C   C24       1.0  0.845806916248442  0.735152083398873  0.1690794973758329  1.0000
  C   C25       1.0  0.1909551202824815  0.25362113831318567  0.9431453090278126  1.0000
  C   C26       1.0  0.8090370008723015  0.7463877012067782  0.05685151675088209  1.0000
  C   C27       1.0  0.36948906868202863  0.2458805406196092  0.9600540814092895  1.0000
  C   C28       1.0  0.6305044700117577  0.754127351226785  0.039942913802562374  1.0000
  S   S1        1.0  0.24675279024032198  0.554987018595007  0.10482241052319101  1.0000
  S   S2        1.0  0.7532414301528546  0.44502276859851964  0.8951741033936713  1.0000
  S   S3        1.0  0.6063063992353223  0.0066356103146887  0.7559033592170223  1.0000
  S   S4        1.0  0.39369095565594847  0.9933665954903006  0.24410938183138595  1.0000
  N   N1        1.0  0.1253262457881164  0.5641965103171103  0.9070826808733017  1.0000
  N   N2        1.0  0.8746582971119281  0.43581896291782124  0.0929113334647838  1.0000
  N   N3        1.0  0.8347718475709769  0.7810441235444259  0.7719327989361773  1.0000
  N   N4        1.0  0.1652093409723392  0.2189571345870007  0.22806322344390403  1.0000
  N   N5        1.0  0.1521605280672844  0.6519899372184526  0.636425671978479  1.0000
  N   N6        1.0  0.8478441056586377  0.3480113209129811  0.36357322701727673  1.0000
  N   N7        1.0  0.16468632732892274  0.6266301925710493  0.5385696640641058  1.0000
  N   N8        1.0  0.8353207050554801  0.3733663271925423  0.4614310372303692  1.0000
  N   N9        1.0  0.331922039912314  0.7475457583053995  0.5418799135988124  1.0000
  N   N10       1.0  0.6680864100110853  0.2524498137846294  0.4581224875848946  1.0000
  N   N11       1.0  0.4411288010143082  0.8280601045401994  0.5149200071859212  1.0000
  N   N12       1.0  0.5588758868518369  0.17193641522339217  0.48508384997315085  1.0000
  N   N13       1.0  0.09642462350944211  0.3686924011611196  0.7551310558892085  1.0000
  N   N14       1.0  0.9035729766616996  0.6313088569703068  0.24486659750782994  1.0000
  N   N15       1.0  0.08868683433011171  0.3352613207453317  0.6620624831989659  1.0000
  N   N16       1.0  0.9113133556391588  0.6647389897125251  0.33793529215500234  1.0000
  N   N17       1.0  0.18117396076547007  0.16410105017314439  0.7872355693586569  1.0000
  N   N18       1.0  0.8188210496075431  0.8359011556318521  0.2127619620814443  1.0000
  N   N19       1.0  0.2309753970155057  0.0350449685000314  0.8393957017656248  1.0000
  N   N20       1.0  0.7690205403367614  0.9649581849785277  0.16060309574494616  1.0000
  Cl  Cl1       1.0  0.7692790917039717  0.6058543449662251  0.6073802638614226  1.0000
  Cl  Cl2       1.0  0.23072349692377964  0.3941412271237965  0.39261472242302625  1.0000
