data_image0
_chemical_formula_structural       Cu4H36C20S4N12O28
_chemical_formula_sum              "Cu4 H36 C20 S4 N12 O28"
_cell_length_a       7.3084647738779
_cell_length_b       11.265031534852193
_cell_length_c       11.805475159872199
_cell_angle_alpha    94.25937606131814
_cell_angle_beta     89.99411761837214
_cell_angle_gamma    89.99536343498522

_space_group_name_H-M_alt    "P 1"
_space_group_IT_number       1

loop_
  _space_group_symop_operation_xyz
  'x, y, z'

loop_
  _atom_site_type_symbol
  _atom_site_label
  _atom_site_symmetry_multiplicity
  _atom_site_fract_x
  _atom_site_fract_y
  _atom_site_fract_z
  _atom_site_occupancy
  Cu  Cu1       1.0  0.5000061547471192  1.981416708899073e-06  0.5000013975406574  1.0000
  Cu  Cu2       1.0  0.9999993039630936  0.9999999082386849  1.6570566003919515e-06  1.0000
  Cu  Cu3       1.0  0.9999999754179213  0.49999876944362853  0.49999870682282216  1.0000
  Cu  Cu4       1.0  0.4999992889750402  0.49999897846282704  0.9999991173543066  1.0000
  H   H1        1.0  0.49169872948132826  0.7814938415259292  0.6468414700925038  1.0000
  H   H2        1.0  0.9917464736289574  0.2185312137139022  0.8531630327893894  1.0000
  H   H3        1.0  0.5083074111404216  0.2185091625603164  0.35316037238472126  1.0000
  H   H4        1.0  0.0082446155955864  0.7814708547108397  0.14684381876373462  1.0000
  H   H5        1.0  0.6896101091416326  0.5962801855632734  0.6401418574814528  1.0000
  H   H6        1.0  0.189631594247416  0.40371715829429183  0.8598566642995422  1.0000
  H   H7        1.0  0.3103905588366871  0.4037201789417111  0.3598563880942152  1.0000
  H   H8        1.0  0.8103731788664633  0.5962787554498731  0.1401412292605286  1.0000
  H   H9        1.0  0.018423595344764  0.7333421463802522  0.3933230155135732  1.0000
  H   H10       1.0  0.5183720829279751  0.266628514245518  0.1066653959318842  1.0000
  H   H11       1.0  0.9815729681969287  0.2666555708424739  0.6066724796044412  1.0000
  H   H12       1.0  0.48163679509318763  0.7333683048311455  0.8933308748839862  1.0000
  H   H13       1.0  0.9984090551030533  0.04906595508413148  0.29784508299031387  1.0000
  H   H14       1.0  0.49843092916406556  0.9509460340987347  0.2021527018507001  1.0000
  H   H15       1.0  0.0015970858584708  0.9509361895193607  0.7021533031506166  1.0000
  H   H16       1.0  0.5015670020525178  0.04905430750117289  0.797848083288386  1.0000
  H   H17       1.0  0.09488637045796372  0.916024902321105  0.3460164943475306  1.0000
  H   H18       1.0  0.5948484032688058  0.0839742765180702  0.1539684947245092  1.0000
  H   H19       1.0  0.9051238754637224  0.08397635969664209  0.6539809747888157  1.0000
  H   H20       1.0  0.4051522643697539  0.9160269474696748  0.8460332071874461  1.0000
  H   H21       1.0  0.9834678765456887  0.5417887113138633  0.7651454323490086  1.0000
  H   H22       1.0  0.4834786498976057  0.4582001037512244  0.734881292142319  1.0000
  H   H23       1.0  0.016532791555143  0.4582098729342903  0.23485267247603048  1.0000
  H   H24       1.0  0.5165220181335995  0.5417984728355166  0.2651176591729651  1.0000
  H   H25       1.0  0.8823324198325936  0.4192187648975861  0.7332607011293817  1.0000
  H   H26       1.0  0.38234727464759294  0.5807982311366898  0.7667661682530706  1.0000
  H   H27       1.0  0.1176696164666708  0.5807789138597456  0.2667390262544913  1.0000
  H   H28       1.0  0.6176520250459276  0.419201235618047  0.2332328534838624  1.0000
  H   H29       1.0  0.7613969591826403  0.3612910244728696  0.4010389302168634  1.0000
  H   H30       1.0  0.2614022885724482  0.6387463336345434  0.09896651301047402  1.0000
  H   H31       1.0  0.2386037085171679  0.6387093093864563  0.5989627013197847  1.0000
  H   H32       1.0  0.7385901698530759  0.3612504552714384  0.9010331443224687  1.0000
  H   H33       1.0  0.6889808956536143  0.38373371650889954  0.5332675129038336  1.0000
  H   H34       1.0  0.18899241426539254  0.6162967137130906  0.966720958368306  1.0000
  H   H35       1.0  0.3110211402975053  0.6162639239413676  0.4667364469312574  1.0000
  H   H36       1.0  0.8110014123140488  0.3837018554101449  0.03327883966892391  1.0000
  C   C1        1.0  0.6116866768483007  0.7716755250209532  0.5919633353690088  1.0000
  C   C2        1.0  0.11171791815011291  0.22833964048831495  0.9080457524130879  1.0000
  C   C3        1.0  0.3883167274823692  0.22832571421045597  0.4080366734697805  1.0000
  C   C4        1.0  0.888278644572786  0.7716597803770991  0.09195834835799839  1.0000
  C   C5        1.0  0.7188884325485887  0.6685500647647729  0.5864741521410437  1.0000
  C   C6        1.0  0.2189127639490138  0.33145708780914873  0.9135309196273838  1.0000
  C   C7        1.0  0.281109499138651  0.33144853488536796  0.41352225979618146  1.0000
  C   C8        1.0  0.7810892724895027  0.6685406062710088  0.08646711477599923  1.0000
  C   C9        1.0  0.9025777968006778  0.7451812628230099  0.45080272699947693  1.0000
  C   C10       1.0  0.4025570833386213  0.25482206056751266  0.049197038579713095  1.0000
  C   C11       1.0  0.09741876667975898  0.2548173445281279  0.5491928384938517  1.0000
  C   C12       1.0  0.5974449531695214  0.7451756411740577  0.9508001493334249  1.0000
  C   C13       1.0  0.7985940926599964  0.8488281471669197  0.4575248974456231  1.0000
  C   C14       1.0  0.29857918995600136  0.15118389313654026  0.04247873658064089  1.0000
  C   C15       1.0  0.20140931186280403  0.1511713194690714  0.5424741241522923  1.0000
  C   C16       1.0  0.7014201093810116  0.8488146375213006  0.9575252937224477  1.0000
  C   C17       1.0  0.8257766970167995  0.9539872197532444  0.3898493794168161  1.0000
  C   C18       1.0  0.3257664170976326  0.04600972727050131  0.11016998035749029  1.0000
  C   C19       1.0  0.17422944379709546  0.046014011737589997  0.610151475819535  1.0000
  C   C20       1.0  0.6742328819943567  0.9539923639009942  0.8898343314468562  1.0000
  S   S1        1.0  0.38211064492923447  0.7581131411574304  0.3020301204536437  1.0000
  S   S2        1.0  0.8820730908641466  0.24189235658850808  0.1979600980686911  1.0000
  S   S3        1.0  0.6178886545721481  0.2418880981927245  0.6979698885241631  1.0000
  S   S4        1.0  0.1179207354173855  0.7581115609666328  0.8020392757301879  1.0000
  N   N1        1.0  0.6520233449617692  0.8598393697910183  0.5271343093474314  1.0000
  N   N2        1.0  0.1520110438316706  0.1401591675871003  0.9728768470764777  1.0000
  N   N3        1.0  0.3479855324049764  0.1401618616206548  0.47286654579623644  1.0000
  N   N4        1.0  0.8479855185682083  0.8598429083407312  0.02712915780104202  1.0000
  N   N5        1.0  0.8604187398327098  0.6555063001108934  0.5148922643513032  1.0000
  N   N6        1.0  0.36039538536540056  0.3444712258112262  0.985109998177478  1.0000
  N   N7        1.0  0.13957919212466413  0.3444914323950742  0.4851015377398795  1.0000
  N   N8        1.0  0.6396080193662854  0.6555282638090105  0.014886483949702297  1.0000
  N   N9        1.0  0.9808305048447324  0.9695608495002332  0.3363576005256235  1.0000
  N   N10       1.0  0.48082151425134606  0.0304431567122876  0.1636516766879623  1.0000
  N   N11       1.0  0.0191770041843355  0.030441272079428896  0.6636433250397006  1.0000
  N   N12       1.0  0.5191764167730994  0.9695589574830308  0.8363500956919978  1.0000
  O   O1        1.0  0.6932594924402408  0.0275747906581074  0.3880595689053408  1.0000
  O   O2        1.0  0.19324847824546512  0.9724334680518962  0.11195973723714299  1.0000
  O   O3        1.0  0.30674801651920097  0.972427323260142  0.6119422031502282  1.0000
  O   O4        1.0  0.8067494523083311  0.0275703880931815  0.888046408344671  1.0000
  O   O5        1.0  0.9659985785049938  0.4783278365225955  0.703403707305938  1.0000
  O   O6        1.0  0.46598164251814467  0.521661844475652  0.7966402847453224  1.0000
  O   O7        1.0  0.03401029922090971  0.5216671563287606  0.2965975017007665  1.0000
  O   O8        1.0  0.5340162888293207  0.4783376146572564  0.2033595835281972  1.0000
  O   O9        1.0  0.7613767158103071  0.41797165028814476  0.4706822235505115  1.0000
  O   O10       1.0  0.2614143235725805  0.5820470153600469  0.02932174207325031  1.0000
  O   O11       1.0  0.23862668842561163  0.5820268879123631  0.5293209601233073  1.0000
  O   O12       1.0  0.7385767665152586  0.41795066371393824  0.9706779856813482  1.0000
  O   O13       1.0  0.44995732326050597  0.6584546086656856  0.36860427723124184  1.0000
  O   O14       1.0  0.9499115442000202  0.34155142230451213  0.1313808512681192  1.0000
  O   O15       1.0  0.5500433441859159  0.34154838791747016  0.6313984119215945  1.0000
  O   O16       1.0  0.05007817792339609  0.6584498786140216  0.8686123861121261  1.0000
  O   O17       1.0  0.5346937171743278  0.8051657863472244  0.236904428831977  1.0000
  O   O18       1.0  0.034653255015783195  0.19484224646843273  0.2630816738474522  1.0000
  O   O19       1.0  0.4653028458438301  0.19483546074350497  0.763094733748268  1.0000
  O   O20       1.0  0.9653446763206618  0.8051634895318642  0.736913608111813  1.0000
  O   O21       1.0  0.3013014207692848  0.8534761752774784  0.3812806305575052  1.0000
  O   O22       1.0  0.8012929724832604  0.14654192378095837  0.1187250054732516  1.0000
  O   O23       1.0  0.6986965104724164  0.1465268596919103  0.6187178262367893  1.0000
  O   O24       1.0  0.19869127543714882  0.8534610502929353  0.8812802237064119  1.0000
  O   O25       1.0  0.2323841560745308  0.7096841422333569  0.22405964638654302  1.0000
  O   O26       1.0  0.7323317586488046  0.2903379989830199  0.275944733906492  1.0000
  O   O27       1.0  0.7676151436106124  0.29031442673154834  0.7759401514653278  1.0000
  O   O28       1.0  0.2676702767761369  0.709670345992464  0.7240575309616446  1.0000
