data_image0
_chemical_formula_structural       Zn16H24C96S16O60F8
_chemical_formula_sum              "Zn16 H24 C96 S16 O60 F8"
_cell_length_a       19.673766503806622
_cell_length_b       19.69416016339162
_cell_length_c       33.38057077273049
_cell_angle_alpha    79.15285936975343
_cell_angle_beta     79.21314492080099
_cell_angle_gamma    63.95746587791131

_space_group_name_H-M_alt    "P 1"
_space_group_IT_number       1

loop_
  _space_group_symop_operation_xyz
  'x, y, z'

loop_
  _atom_site_type_symbol
  _atom_site_label
  _atom_site_symmetry_multiplicity
  _atom_site_fract_x
  _atom_site_fract_y
  _atom_site_fract_z
  _atom_site_occupancy
  Zn  Zn1       1.0  0.0560028316662624  0.400078734696244  0.4785357668155187  1.0000
  Zn  Zn2       1.0  0.9840742683054912  0.48301620302186876  0.5607590721310204  1.0000
  Zn  Zn3       1.0  0.05881797847450088  0.5605593541126198  0.48286374215501837  1.0000
  Zn  Zn4       1.0  0.901296527233022  0.5547548192575319  0.4793863334762705  1.0000
  Zn  Zn5       1.0  0.6941864658038027  0.34974123285732606  0.27165517787653937  1.0000
  Zn  Zn6       1.0  0.6887881556897072  0.18980334994829204  0.26699684111989086  1.0000
  Zn  Zn7       1.0  0.7680251320202982  0.2665296481729127  0.19023938230968437  1.0000
  Zn  Zn8       1.0  0.8474505740510522  0.1940036932817436  0.27194315097224836  1.0000
  Zn  Zn9       1.0  0.267183060728911  0.7666116493401418  0.6895329997088311  1.0000
  Zn  Zn10      1.0  0.3498997607424741  0.6951588296499552  0.7716844888385879  1.0000
  Zn  Zn11      1.0  0.19388562610469504  0.848046082103018  0.7714911824177052  1.0000
  Zn  Zn12      1.0  0.19158201337976521  0.6890243986045305  0.7672574551196688  1.0000
  Zn  Zn13      1.0  0.5607979662765957  0.06056034457873941  0.9830270910758828  1.0000
  Zn  Zn14      1.0  0.40066394725424465  0.05577041410873562  0.9781356376098956  1.0000
  Zn  Zn15      1.0  0.555890824802347  0.9020117430380735  0.9785671269988117  1.0000
  Zn  Zn16      1.0  0.4827265218293491  0.9827094490620569  0.059744158792639696  1.0000
  H   H1        1.0  0.7484645827729678  0.4525999942189499  0.3504068735610559  1.0000
  H   H2        1.0  0.0018078863550882998  0.2972931206345065  0.39958588684399393  1.0000
  H   H3        1.0  0.2010819528796191  0.7009801556913614  0.5984342483620751  1.0000
  H   H4        1.0  0.049619733505814195  0.5498969709565457  0.651226909164514  1.0000
  H   H5        1.0  0.462973698687847  0.24016739253445235  0.3412430505293216  1.0000
  H   H6        1.0  0.4792817291749216  0.7027454407117231  0.6012188949057774  1.0000
  H   H7        1.0  0.2030456412622925  0.9785874366661531  0.6018849728183611  1.0000
  H   H8        1.0  0.9482685202699697  0.9701020064788817  0.3480898108857886  1.0000
  H   H9        1.0  0.6513853170546611  0.1514341417895864  0.04940628796068579  1.0000
  H   H10       1.0  0.5985087203068035  0.09823607332050682  0.20067927016877013  1.0000
  H   H11       1.0  0.5474394706285111  0.7706324256770004  0.14828937354770486  1.0000
  H   H12       1.0  0.1626072262429687  0.14163905399665566  0.040662789181269  1.0000
  H   H13       1.0  0.2972895296855995  0.0019825546347149742  0.8997712804004722  1.0000
  H   H14       1.0  0.4520049722581234  0.7490741078073313  0.8504149924467866  1.0000
  H   H15       1.0  0.3008886954780152  0.2800202905360081  0.9020855127025272  1.0000
  H   H16       1.0  0.7868439650247935  0.009916664403959816  0.9087927771593912  1.0000
  H   H17       1.0  0.8082146929822115  0.5278058532514152  0.4180229352491411  1.0000
  H   H18       1.0  0.941955564900951  0.22197893627473772  0.33204566561653337  1.0000
  H   H19       1.0  0.1372051871279325  0.6378347524731537  0.5267454553358418  1.0000
  H   H20       1.0  0.1133177272317454  0.6129870709388994  0.7229545285858521  1.0000
  H   H21       1.0  0.7231808655629877  0.22270428557076355  0.11299688374224812  1.0000
  H   H22       1.0  0.5267663336163436  0.026994368940726952  0.1370169238535297  1.0000
  H   H23       1.0  0.22136520852797048  0.9426479445862342  0.832228685439148  1.0000
  H   H24       1.0  0.527965310010117  0.8080724408475174  0.9180303312713604  1.0000
  C   C1        1.0  0.0617642838773094  0.31583725103493515  0.5617053866974332  1.0000
  C   C2        1.0  0.07012823958348952  0.5705791772421235  0.5693208505349433  1.0000
  C   C3        1.0  0.1835466420346137  0.4398453355326452  0.4388235009571346  1.0000
  C   C4        1.0  0.9371008196100163  0.683801268472635  0.43890461438319756  1.0000
  C   C5        1.0  0.9301477454813637  0.4302481267856846  0.430473305457113  1.0000
  C   C6        1.0  0.8166300030409204  0.5607429045243816  0.5618881162334688  1.0000
  C   C7        1.0  0.5654584969654621  0.3114113855626925  0.3113587681870911  1.0000
  C   C8        1.0  0.680659192289397  0.1800885236332377  0.1802037709878732  1.0000
  C   C9        1.0  0.6893127653436864  0.43340645109498893  0.18806291277416412  1.0000
  C   C10       1.0  0.9346084468559109  0.18743592276958057  0.18954271589196747  1.0000
  C   C11       1.0  0.8198558179796079  0.3193577940442933  0.3198050054896697  1.0000
  C   C12       1.0  0.8108087405005335  0.06574468991648534  0.3116975350716373  1.0000
  C   C13       1.0  0.4340283793392956  0.6894455243211366  0.6881904100677688  1.0000
  C   C14       1.0  0.3188219293273917  0.8209338363682548  0.8197226147957296  1.0000
  C   C15       1.0  0.1889113936615274  0.9336717383706631  0.6886891843213476  1.0000
  C   C16       1.0  0.06635042379315338  0.8101552517681797  0.8113398137708571  1.0000
  C   C17       1.0  0.18071771241659457  0.6800643617088085  0.6803803129590025  1.0000
  C   C18       1.0  0.3130024241928879  0.5659460842909921  0.8112818550567411  1.0000
  C   C19       1.0  0.4382689712670355  0.18411228394296583  0.9385960861187641  1.0000
  C   C20       1.0  0.43055749396714293  0.9301505895261571  0.9303795499356724  1.0000
  C   C21       1.0  0.6844140311916362  0.9387324132971955  0.9385501917291775  1.0000
  C   C22       1.0  0.5613748572218923  0.8160695058863109  0.061446484001614  1.0000
  C   C23       1.0  0.5695870544644279  0.06930541175373851  0.06989134712048888  1.0000
  C   C24       1.0  0.3156771131747433  0.061528852326901515  0.061323611476680584  1.0000
  C   C25       1.0  0.9010216027369893  0.4029314836711746  0.40193403067191014  1.0000
  C   C26       1.0  0.8492491042664413  0.34689934132814665  0.348042911468319  1.0000
  C   C27       1.0  0.8283015199621457  0.44774282115795927  0.38788024377901553  1.0000
  C   C28       1.0  0.9220079263951318  0.3021444092300669  0.3620615189089661  1.0000
  C   C29       1.0  0.8040054050677979  0.4186547538211657  0.3611724502421652  1.0000
  C   C30       1.0  0.9463245728242312  0.3312571268901294  0.38874733916968307  1.0000
  C   C31       1.0  0.09892796945951692  0.5992973381084852  0.5972837455849245  1.0000
  C   C32       1.0  0.1517724005762275  0.6516033288234057  0.6524121467255243  1.0000
  C   C33       1.0  0.1423148279478426  0.6426527664976689  0.5819320098582424  1.0000
  C   C34       1.0  0.10833715832663418  0.6083013381968527  0.6677402487511586  1.0000
  C   C35       1.0  0.1678417114198965  0.6678984431579096  0.6099213500194267  1.0000
  C   C36       1.0  0.0828234641271521  0.5830223309227092  0.6397411166452402  1.0000
  C   C37       1.0  0.3042283224037233  0.45391758621324396  0.4009643755357856  1.0000
  C   C38       1.0  0.4459794710930822  0.2969939411992114  0.3490875000718034  1.0000
  C   C39       1.0  0.2581652049038183  0.4151413425855494  0.41405765518677373  1.0000
  C   C40       1.0  0.49073662472000024  0.3369209601300155  0.33640993322691776  1.0000
  C   C41       1.0  0.3779012759882576  0.3400731714228513  0.37265608652274557  1.0000
  C   C42       1.0  0.3726570006775276  0.41199116696417076  0.3773333845212505  1.0000
  C   C43       1.0  0.7253117548938234  0.5763514719223507  0.6291045538401576  1.0000
  C   C44       1.0  0.524069818457896  0.6737811696421547  0.6211852761433789  1.0000
  C   C45       1.0  0.7421444870409531  0.5854650145643062  0.5866813390492567  1.0000
  C   C46       1.0  0.5090480169031083  0.6639423826470362  0.6635512050817738  1.0000
  C   C47       1.0  0.6032606501402001  0.6415652746092563  0.6087577995668099  1.0000
  C   C48       1.0  0.6464625714877245  0.6079687526945322  0.6422089365812765  1.0000
  C   C49       1.0  0.07684125993208821  0.224773349814626  0.6290997389033847  1.0000
  C   C50       1.0  0.17406629247320637  0.02352513565814009  0.6216932476196747  1.0000
  C   C51       1.0  0.0863057114746653  0.24138819742785958  0.5866534277606518  1.0000
  C   C52       1.0  0.1638505075856429  0.008688635235891702  0.6640538631668633  1.0000
  C   C53       1.0  0.1421441632025235  0.10262276645408255  0.6090971706687398  1.0000
  C   C54       1.0  0.1083280495419388  0.1460015992252011  0.6424004666096792  1.0000
  C   C55       1.0  0.8439768642466632  0.800656799876563  0.397306378096772  1.0000
  C   C56       1.0  0.9039366842903931  0.9496618741923087  0.35260420413820265  1.0000
  C   C57       1.0  0.9122628056868365  0.7581169147612881  0.41388451073086685  1.0000
  C   C58       1.0  0.8352521005769162  0.9908864453241576  0.33654451801759677  1.0000
  C   C59       1.0  0.9068139317245284  0.8801375311795209  0.3747798025819761  1.0000
  C   C60       1.0  0.8399082292106713  0.8703240264035159  0.37494698679913085  1.0000
  C   C61       1.0  0.6525936556890457  0.1522296041768029  0.15141658250285422  1.0000
  C   C62       1.0  0.5974258265938772  0.09730088221989056  0.0986753648222916  1.0000
  C   C63       1.0  0.6679167397881827  0.16764285933207648  0.10803125818954841  1.0000
  C   C64       1.0  0.5820582409445406  0.08194753884254874  0.14206019850524856  1.0000
  C   C65       1.0  0.6398928691995136  0.13978702738074844  0.08256694816021341  1.0000
  C   C66       1.0  0.6100513555744486  0.10982502943138417  0.1675197929734651  1.0000
  C   C67       1.0  0.6735740147209768  0.5247007330871722  0.12066362357857231  1.0000
  C   C68       1.0  0.5763809691665429  0.7258745144659711  0.12836712305672657  1.0000
  C   C69       1.0  0.6642551271576523  0.5078655336307846  0.16310282741756052  1.0000
  C   C70       1.0  0.5865530392055119  0.7409617200279398  0.0860079882205653  1.0000
  C   C71       1.0  0.6082997252871395  0.6467219167126571  0.14083202520507135  1.0000
  C   C72       1.0  0.6420350155628896  0.6035241553204995  0.10744531956271429  1.0000
  C   C73       1.0  0.0812727163231415  0.12412000341263509  0.1776060250843656  1.0000
  C   C74       1.0  0.17017237044322542  0.12507113266555336  0.0730371823650344  1.0000
  C   C75       1.0  0.0092087628552378  0.1628620462927231  0.1647838953733967  1.0000
  C   C76       1.0  0.24126974569539786  0.0862733291472963  0.08664579217739292  1.0000
  C   C77       1.0  0.1119418655683049  0.13874342572800197  0.10643115634714918  1.0000
  C   C78       1.0  0.1404656970150526  0.10987955713900989  0.1447648566486848  1.0000
  C   C79       1.0  0.3464263047382873  0.8499752034819609  0.8481431425938482  1.0000
  C   C80       1.0  0.4029368589959716  0.9011076487580284  0.902042437579709  1.0000
  C   C81       1.0  0.3017454283343283  0.9225584455754682  0.8622255712959656  1.0000
  C   C82       1.0  0.4475430990639637  0.8284845220339532  0.8879975783104043  1.0000
  C   C83       1.0  0.3310924689948678  0.9465864148916199  0.8889146172455182  1.0000
  C   C84       1.0  0.41821781670653024  0.8044912233271188  0.8612592752488126  1.0000
  C   C85       1.0  0.40600223137948893  0.4487651615161069  0.8527562887198529  1.0000
  C   C86       1.0  0.3453872702718215  0.3002366013152197  0.8975360344641389  1.0000
  C   C87       1.0  0.3377810121364461  0.491466298986971  0.83614556024029  1.0000
  C   C88       1.0  0.41397271910523864  0.2588880248846693  0.9136783255445947  1.0000
  C   C89       1.0  0.3428352229010727  0.36957224776167397  0.8752498702785303  1.0000
  C   C90       1.0  0.40987278346343464  0.37914099228342485  0.8750985847620851  1.0000
  C   C91       1.0  0.9455949562536785  0.7961773375753652  0.8490441933756971  1.0000
  C   C92       1.0  0.8038665837659095  0.9531054530298134  0.9009166214277967  1.0000
  C   C93       1.0  0.991714765868565  0.8349086690407997  0.8360293434217425  1.0000
  C   C94       1.0  0.7590965380997189  0.913193023801135  0.9135364801869559  1.0000
  C   C95       1.0  0.8719328214548625  0.9100167098104279  0.8773536567362401  1.0000
  C   C96       1.0  0.8771191710717828  0.8381351511521228  0.8726262442108637  1.0000
  S   S1        1.0  0.2992482983612916  0.3255135761619314  0.3972132784063689  1.0000
  S   S2        1.0  0.45091812311390816  0.42674446075875466  0.352900317336129  1.0000
  S   S3        1.0  0.6599840641701178  0.6336160720184337  0.5622004756588482  1.0000
  S   S4        1.0  0.5902975749414097  0.6157214689727082  0.6886960168501944  1.0000
  S   S5        1.0  0.1346129294501424  0.15909383444186173  0.5624366205536547  1.0000
  S   S6        1.0  0.11558486915374289  0.09005118954521407  0.6889850555859169  1.0000
  S   S7        1.0  0.9729381480649264  0.8040683176886103  0.4018885295075307  1.0000
  S   S8        1.0  0.7737207082537908  0.9459949970861671  0.3480546064157507  1.0000
  S   S9        1.0  0.6158776697753936  0.5900593005444745  0.18742533167441874  1.0000
  S   S10       1.0  0.634677292427412  0.6597316113689827  0.06092882443270043  1.0000
  S   S11       1.0  0.0137476540015058  0.1824633523458985  0.11146398246859952  1.0000
  S   S12       1.0  0.23832768305772592  0.06607258882639394  0.13987418782205913  1.0000
  S   S13       1.0  0.276917212317194  0.4457212512232117  0.8480619395186723  1.0000
  S   S14       1.0  0.475836394340881  0.30341049438072787  0.9020761760037106  1.0000
  S   S15       1.0  0.9506372803203719  0.924537037398835  0.8528949173759487  1.0000
  S   S16       1.0  0.7988376885539737  0.8233906338509909  0.8970219158192949  1.0000
  O   O1        1.0  0.00040813142596359946  0.49901372557931717  0.5002642772433249  1.0000
  O   O2        1.0  0.0783508979385985  0.31478537326967876  0.5227253534175348  1.0000
  O   O3        1.0  0.03226175794853249  0.5317845007852994  0.5849064630369725  1.0000
  O   O4        1.0  0.1553161772768235  0.5062774524407841  0.4500119463149162  1.0000
  O   O5        1.0  0.026516857215256102  0.37433589488205854  0.5808392438514504  1.0000
  O   O6        1.0  0.15365760879478071  0.3918909648198151  0.44684655312118343  1.0000
  O   O7        1.0  0.08563872821770252  0.5870838074209246  0.5302062770763242  1.0000
  O   O8        1.0  0.0035501999345086996  0.6576147669915713  0.45042630742447903  1.0000
  O   O9        1.0  0.8862797166814359  0.4966148581824684  0.4421594156546362  1.0000
  O   O10       1.0  0.8910400812114859  0.6520586747711756  0.44697289100989934  1.0000
  O   O11       1.0  0.9955086246836657  0.38790764143593043  0.4418768534968224  1.0000
  O   O12       1.0  0.8753160342384946  0.5261494035328056  0.5809837838621874  1.0000
  O   O13       1.0  0.8154194507058604  0.5766673758802554  0.5228673247363035  1.0000
  O   O14       1.0  0.7490367945477132  0.2502738840346409  0.25029117539820334  1.0000
  O   O15       1.0  0.5961598014265518  0.35861574632237136  0.30293710229521054  1.0000
  O   O16       1.0  0.6647188864151161  0.16491301522115986  0.21858216273268033  1.0000
  O   O17       1.0  0.725296643025473  0.37477538471504346  0.1690051529373946  1.0000
  O   O18       1.0  0.5927180948812278  0.24484199503768894  0.3003432911762546  1.0000
  O   O19       1.0  0.6725703539039642  0.4344171186892324  0.22702203521733116  1.0000
  O   O20       1.0  0.7202421970504814  0.21866990627460584  0.16415931297083117  1.0000
  O   O21       1.0  0.8767232887927748  0.2225981711691957  0.16944306185663996  1.0000
  O   O22       1.0  0.863193188679702  0.2524857526606822  0.3085466192116044  1.0000
  O   O23       1.0  0.9336842946805958  0.1719200721938775  0.22845352710993438  1.0000
  O   O24       1.0  0.7546553559312629  0.3618828571763969  0.30819330467202377  1.0000
  O   O25       1.0  0.7443583446484823  0.09333972307363325  0.30013569346556324  1.0000
  O   O26       1.0  0.8579376634920377  0.09634391811430731  0.30390473067848944  1.0000
  O   O27       1.0  0.2508125500350147  0.7498949322387457  0.7498917410292805  1.0000
  O   O28       1.0  0.3758670181698065  0.7251133145817051  0.6686259727421415  1.0000
  O   O29       1.0  0.3615283721837557  0.7559567125185751  0.8080994079102054  1.0000
  O   O30       1.0  0.1723094800928138  0.93373401328909  0.7276713493938233  1.0000
  O   O31       1.0  0.43425863949426  0.6733799492854897  0.7271759002628784  1.0000
  O   O32       1.0  0.2247122220873692  0.8756496528045614  0.6691468375608453  1.0000
  O   O33       1.0  0.251946582987074  0.8643178422317488  0.8083945076855416  1.0000
  O   O34       1.0  0.0964199816920797  0.8580221689996036  0.8036239775381803  1.0000
  O   O35       1.0  0.16505284617530688  0.6636521522290977  0.7194859782155376  1.0000
  O   O36       1.0  0.09465562015432032  0.7439891994965321  0.7998390874299303  1.0000
  O   O37       1.0  0.21896858006766706  0.718605057963124  0.664862168714251  1.0000
  O   O38       1.0  0.3591766347939683  0.5975352669607972  0.8032314360596049  1.0000
  O   O39       1.0  0.246375219666831  0.5923737021779232  0.7999153019737335  1.0000
  O   O40       1.0  0.49983319302687335  0.0006922644084567841  0.9997756950254412  1.0000
  O   O41       1.0  0.5052099910323093  0.1561786757698442  0.9495858807742225  1.0000
  O   O42       1.0  0.3881162847811126  0.9953493660175421  0.9419005683802907  1.0000
  O   O43       1.0  0.6536007966754057  0.8915732874153902  0.946754672688044  1.0000
  O   O44       1.0  0.3907281501248647  0.15400451548039473  0.9469900472693665  1.0000
  O   O45       1.0  0.657095964865654  0.005084600157971326  0.9498136739374701  1.0000
  O   O46       1.0  0.4972971357641782  0.886576249566424  0.9418574401436716  1.0000
  O   O47       1.0  0.5775380933127394  0.8162685091154317  0.022449865023823144  1.0000
  O   O48       1.0  0.5302887503433169  0.030368120525530274  0.08592506416086113  1.0000
  O   O49       1.0  0.525827624484947  0.8741398453819825  0.0810319486818969  1.0000
  O   O50       1.0  0.5853929579127666  0.08454952392391137  0.0315011760709112  1.0000
  O   O51       1.0  0.31538278217581  0.07809901242362828  0.022479612002712198  1.0000
  O   O52       1.0  0.37418453240051963  0.025375603329805926  0.0808203232126488  1.0000
  O   O53       1.0  0.7811779451409677  0.5174908384294169  0.3991402053916318  1.0000
  O   O54       1.0  0.9691515222054646  0.23233428483156618  0.3508046352936632  1.0000
  O   O55       1.0  0.1602153673313111  0.6606859543863662  0.5413578720648714  1.0000
  O   O56       1.0  0.0903611319936033  0.5902084326569149  0.7082873948991946  1.0000
  O   O57       1.0  0.7084622037952498  0.2081776673133289  0.09006666991669482  1.0000
  O   O58       1.0  0.5414428712816459  0.04139919046541955  0.16000476082311368  1.0000
  O   O59       1.0  0.23185198520519626  0.9697472610550546  0.8509781363910066  1.0000
  O   O60       1.0  0.5173479114999822  0.781150685137092  0.8992709443806463  1.0000
  F   F1        1.0  0.286824883691665  0.5240807803276369  0.4094967019524559  1.0000
  F   F2        1.0  0.7775984455756769  0.5413345602610274  0.6555757187121856  1.0000
  F   F3        1.0  0.041642765827646096  0.27711509594056577  0.6554565401875507  1.0000
  F   F4        1.0  0.7867425909641668  0.7790942279008983  0.40172114739417003  1.0000
  F   F5        1.0  0.7087617770400528  0.47242221256041  0.09425648271374597  1.0000
  F   F6        1.0  0.0947783485924205  0.10179854208480779  0.21700417209913783  1.0000
  F   F7        1.0  0.4632784229870595  0.47021545255304875  0.8484447384242914  1.0000
  F   F8        1.0  0.9630929500569891  0.7260363481797398  0.8404830490563527  1.0000
