data_image0
_chemical_formula_structural       Cd4H36C20N20O12
_chemical_formula_sum              "Cd4 H36 C20 N20 O12"
_cell_length_a       7.532169363919657
_cell_length_b       9.950347657518021
_cell_length_c       13.171394690838016
_cell_angle_alpha    74.57895230423514
_cell_angle_beta     73.39840154076444
_cell_angle_gamma    67.76479463931067

_space_group_name_H-M_alt    "P 1"
_space_group_IT_number       1

loop_
  _space_group_symop_operation_xyz
  'x, y, z'

loop_
  _atom_site_type_symbol
  _atom_site_label
  _atom_site_symmetry_multiplicity
  _atom_site_fract_x
  _atom_site_fract_y
  _atom_site_fract_z
  _atom_site_occupancy
  Cd  Cd1       1.0  0.4608217227737795  0.5807443550435141  0.8519862614248837  1.0000
  Cd  Cd2       1.0  0.8936228647139329  0.9191990965791278  0.6479330248276868  1.0000
  Cd  Cd3       1.0  0.5391804017340576  0.4192550964491133  0.1480118340682495  1.0000
  Cd  Cd4       1.0  0.10637553583051577  0.08079925241001011  0.3520680202845697  1.0000
  H   H1        1.0  0.1209815536619414  0.3899776287049833  0.6811808278997235  1.0000
  H   H2        1.0  0.19199444518230258  0.10996373081704293  0.8190754698139316  1.0000
  H   H3        1.0  0.8790196109723993  0.6100240294336461  0.3188169808151003  1.0000
  H   H4        1.0  0.8080014426488658  0.890036824399772  0.1809240733975699  1.0000
  H   H5        1.0  0.9800941040077832  0.5756271585094058  0.6879390618873132  1.0000
  H   H6        1.0  0.243798267742271  0.9243039994502386  0.8122704998692569  1.0000
  H   H7        1.0  0.01990725883777596  0.4243722932118176  0.312059792226087  1.0000
  H   H8        1.0  0.7562010918419871  0.0756965560511702  0.18772972809551192  1.0000
  H   H9        1.0  0.8938691015670558  0.4518940564955473  0.571471456506906  1.0000
  H   H10       1.0  0.9174254506619519  0.047658390648265915  0.9287070123270666  1.0000
  H   H11       1.0  0.10613110402746867  0.5481053951308114  0.42852716935540514  1.0000
  H   H12       1.0  0.08257399327030163  0.9523410612066812  0.07129237215550425  1.0000
  H   H13       1.0  0.8005184543534445  0.3432329769084533  0.6893545174976978  1.0000
  H   H14       1.0  0.8332084057770357  0.15656550878242115  0.8108735885910505  1.0000
  H   H15       1.0  0.19948290849211492  0.6567664748127628  0.3106443366157023  1.0000
  H   H16       1.0  0.1667898809041902  0.8434339429776687  0.18912556764043834  1.0000
  H   H17       1.0  0.49774427483588835  0.45232112804833957  0.6294030412192557  1.0000
  H   H18       1.0  0.5795985693628933  0.0477713104414264  0.8704762729683682  1.0000
  H   H19       1.0  0.502254209222869  0.5476805304526167  0.3705960564850131  1.0000
  H   H20       1.0  0.42040079022136484  0.9522292450599823  0.129523954996408  1.0000
  H   H21       1.0  0.5567118327724428  0.5937826524172182  0.5249032986270805  1.0000
  H   H22       1.0  0.6753940257060691  0.9062456667477011  0.9750233851802649  1.0000
  H   H23       1.0  0.44328752681181527  0.4062179030841904  0.4750969293376883  1.0000
  H   H24       1.0  0.3246076778954646  0.09375488981894624  0.024980031649668902  1.0000
  H   H25       1.0  0.48575757028249456  0.2839671374885456  0.9418440249348238  1.0000
  H   H26       1.0  0.7117892672112235  0.21598748304482743  0.5581899381521966  1.0000
  H   H27       1.0  0.514241507576237  0.716032314918458  0.058157105039370466  1.0000
  H   H28       1.0  0.2882108540353058  0.7840130722279923  0.44180953119231253  1.0000
  H   H29       1.0  0.3265843505417648  0.3331012427626377  0.8706393522789497  1.0000
  H   H30       1.0  0.5306176626673462  0.1668745964855631  0.6295117912634325  1.0000
  H   H31       1.0  0.6734162506415161  0.6668982091871741  0.12936026045471752  1.0000
  H   H32       1.0  0.46938322024146095  0.8331259585586539  0.3704869194608094  1.0000
  H   H33       1.0  0.6601843527365002  0.6679914755998058  0.6464273734232863  1.0000
  H   H34       1.0  0.974527976143755  0.83182707055434  0.8535548821346169  1.0000
  H   H35       1.0  0.3398170101090514  0.33200797612141036  0.353571480690114  1.0000
  H   H36       1.0  0.02547031053747161  0.16817238120574982  0.146444274096865  1.0000
  C   C1        1.0  0.9372453863187641  0.4230930738508719  0.8323324198596965  1.0000
  C   C2        1.0  0.1927797117881341  0.07684156620068451  0.6678492523180708  1.0000
  C   C3        1.0  0.06275405761348929  0.5769063780040753  0.16766696462287461  1.0000
  C   C4        1.0  0.8072192522073751  0.9231589889772708  0.33214998877534907  1.0000
  C   C5        1.0  0.9742047789801731  0.4624106828218118  0.7125049745908856  1.0000
  C   C6        1.0  0.1491513498023096  0.0374774965707445  0.7876975737308172  1.0000
  C   C7        1.0  0.02579582220311477  0.5375887691280004  0.2874946381427819  1.0000
  C   C8        1.0  0.8508480097819487  0.962523058930664  0.21230265423395883  1.0000
  C   C9        1.0  0.8279385877243116  0.4491389857883946  0.6582419146067551  1.0000
  C   C10       1.0  0.9354452404585628  0.05061446524220512  0.8418963201919  1.0000
  C   C11       1.0  0.17206353678351854  0.5508604657042326  0.341756180886378  1.0000
  C   C12       1.0  0.06455488078797346  0.9493860900306077  0.15810314915260895  1.0000
  C   C13       1.0  0.5044351951160809  0.5651703619851177  0.6122532499798083  1.0000
  C   C14       1.0  0.6818609139955851  0.9348758488330025  0.8876612360401384  1.0000
  C   C15       1.0  0.4955616517549045  0.4348323997439679  0.3877454760842127  1.0000
  C   C16       1.0  0.3181403645019715  0.06512470653467521  0.11233846155545996  1.0000
  C   C17       1.0  0.2961014443359887  0.6685843553529695  0.644841008620574  1.0000
  C   C18       1.0  0.6095569703861655  0.8314775294579919  0.8550414286641228  1.0000
  C   C19       1.0  0.7038990421503826  0.3314206125260669  0.3551556113065218  1.0000
  C   C20       1.0  0.39044950140024776  0.1685208193196743  0.14495848184279234  1.0000
  N   N1        1.0  0.7614637936848184  0.457972465478548  0.8993883976065576  1.0000
  N   N2        1.0  0.1189411616123051  0.041999392332861915  0.6007487997712176  1.0000
  N   N3        1.0  0.23853565024743523  0.5420269863763992  0.1006109868760134  1.0000
  N   N4        1.0  0.8810578023832036  0.9580011628450938  0.3992504413221951  1.0000
  N   N5        1.0  0.7959971352378614  0.4008710453526378  0.9991440199216512  1.0000
  N   N6        1.0  0.1961033191853756  0.0991503651345909  0.5010118579049276  1.0000
  N   N7        1.0  0.20400422760769735  0.5991284063685856  0.0008548341917488778  1.0000
  N   N8        1.0  0.8038968864091558  0.9008490864917676  0.4989867679573834  1.0000
  N   N9        1.0  0.9847714204970257  0.3340293405617487  0.9944065536144466  1.0000
  N   N10       1.0  0.313252718961202  0.16601770902098423  0.5058200121336328  1.0000
  N   N11       1.0  0.015228700749510453  0.6659712147110639  0.0055929157300624935  1.0000
  N   N12       1.0  0.6867491238211015  0.8339806393772309  0.4941789853689187  1.0000
  N   N13       1.0  0.07740395846145962  0.3460565149142029  0.8903232428378375  1.0000
  N   N14       1.0  0.31384257414931227  0.15393596676932483  0.6099254659007443  1.0000
  N   N15       1.0  0.9225966427218213  0.6539429370356091  0.10967636989582992  1.0000
  N   N16       1.0  0.6861557125319139  0.8460634849907649  0.39007369033073763  1.0000
  N   N17       1.0  0.6373678720733126  0.5677390313128329  0.6733740858731991  1.0000
  N   N18       1.0  0.8785331174729973  0.9321501002369249  0.826601209008004  1.0000
  N   N19       1.0  0.3626327291099686  0.43226042063697895  0.32662552686046104  1.0000
  N   N20       1.0  0.12146392760920582  0.0678504550747547  0.17339856245459376  1.0000
  O   O1        1.0  0.23457469556863214  0.6951201620080667  0.7401378312093598  1.0000
  O   O2        1.0  0.6698820507517736  0.8048788118056509  0.7597575782563553  1.0000
  O   O3        1.0  0.7654254256779041  0.304880393264746  0.2598616381351492  1.0000
  O   O4        1.0  0.33011988057621267  0.1951195392190925  0.24024961633513445  1.0000
  O   O5        1.0  0.188768572902525  0.7209339586356479  0.5748315349339209  1.0000
  O   O6        1.0  0.48467572896696937  0.7790584587722339  0.9250533340202766  1.0000
  O   O7        1.0  0.8112300241857681  0.279071010252629  0.42516834772532536  1.0000
  O   O8        1.0  0.5153245356580172  0.2209409946051438  0.07495075656798628  1.0000
  O   O9        1.0  0.4611330585338607  0.332098948851737  0.8682928836536945  1.0000
  O   O10       1.0  0.661899954522809  0.1677935872364813  0.6317512197264535  1.0000
  O   O11       1.0  0.5388667809871492  0.6679005033266706  0.13170748770023272  1.0000
  O   O12       1.0  0.3380994894094442  0.8322058646184731  0.36824816475612465  1.0000
