data_image0
_chemical_formula_structural       K4H24C32N20O4
_chemical_formula_sum              "K4 H24 C32 N20 O4"
_cell_length_a       3.943914325305942
_cell_length_b       12.382281384993451
_cell_length_c       20.062972045010074
_cell_angle_alpha    104.48036328527895
_cell_angle_beta     95.63397919803009
_cell_angle_gamma    89.97646044861857

_space_group_name_H-M_alt    "P 1"
_space_group_IT_number       1

loop_
  _space_group_symop_operation_xyz
  'x, y, z'

loop_
  _atom_site_type_symbol
  _atom_site_label
  _atom_site_symmetry_multiplicity
  _atom_site_fract_x
  _atom_site_fract_y
  _atom_site_fract_z
  _atom_site_occupancy
  K   K1        1.0  0.9782541489501281  0.8958321654468404  0.07487739936105693  1.0000
  K   K2        1.0  0.9027260249945002  0.6040254235275384  0.9249755919418305  1.0000
  K   K3        1.0  0.021748151332246793  0.10416959788317108  0.9251249817588632  1.0000
  K   K4        1.0  0.09724861216823649  0.39598048923370044  0.07502239147227391  1.0000
  H   H1        1.0  0.5801185486981381  0.5244041053616967  0.40012502243121156  1.0000
  H   H2        1.0  0.18053814574756188  0.9754813064559398  0.6001176783559572  1.0000
  H   H3        1.0  0.41987089983287257  0.47559598172078654  0.5998753545448281  1.0000
  H   H4        1.0  0.8194614991983254  0.02451877841249939  0.399882400668922  1.0000
  H   H5        1.0  0.818875479104406  0.41915015226884816  0.4841802538132002  1.0000
  H   H6        1.0  0.33497407479745783  0.08030511251519099  0.5157969926423719  1.0000
  H   H7        1.0  0.18113175069776585  0.5808490959730008  0.5158193485291207  1.0000
  H   H8        1.0  0.665028118007015  0.9196949724052672  0.4842031365710184  1.0000
  H   H9        1.0  0.7078746534139454  0.21527423298631018  0.4617804674411232  1.0000
  H   H10       1.0  0.24628475030341687  0.2842618943285443  0.5380194164753362  1.0000
  H   H11       1.0  0.2921477411202601  0.7847233444244991  0.538218680241279  1.0000
  H   H12       1.0  0.7537149583424848  0.7157390249004152  0.46198079109243656  1.0000
  H   H13       1.0  0.34678324716076486  0.1154274302215796  0.35359003734379973  1.0000
  H   H14       1.0  0.9931395612263996  0.3844327801686233  0.6461277608775617  1.0000
  H   H15       1.0  0.6532263294389012  0.8845693198349805  0.6464102269687402  1.0000
  H   H16       1.0  0.006857472160895403  0.6155664702872768  0.3538721394159268  1.0000
  H   H17       1.0  0.0009501360730083987  0.11467918809919547  0.2499475521167582  1.0000
  H   H18       1.0  0.7501525170125161  0.38548859307202576  0.7499020331699171  1.0000
  H   H19       1.0  0.9990419538997839  0.8853217188630605  0.7500500113595621  1.0000
  H   H20       1.0  0.24984445267477173  0.6145098230233542  0.2500977385806777  1.0000
  H   H21       1.0  0.0670786564259842  0.3813834642587963  0.2457534413348768  1.0000
  H   H22       1.0  0.8221102307354682  0.11902137425084898  0.7544036375006017  1.0000
  H   H23       1.0  0.9329184307002617  0.6186166254018843  0.754247584911873  1.0000
  H   H24       1.0  0.17788935051041213  0.8809778762570701  0.24559631298139104  1.0000
  C   C1        1.0  0.3328433452090208  0.37975529832717575  0.3299055738209021  1.0000
  C   C2        1.0  0.0032005876458640944  0.12031044756414386  0.6701434201131988  1.0000
  C   C3        1.0  0.6671561086368455  0.620242283459703  0.6700941195753103  1.0000
  C   C4        1.0  0.996801610139144  0.8796896349341876  0.3298562103950005  1.0000
  C   C5        1.0  0.5320702292124009  0.43495575609834686  0.3907063898905463  1.0000
  C   C6        1.0  0.14157860799494415  0.06490042151741449  0.6093610623606125  1.0000
  C   C7        1.0  0.4679345164311924  0.5650443264520035  0.6092932908061641  1.0000
  C   C8        1.0  0.8584262013486562  0.9351004953934562  0.3906387468789845  1.0000
  C   C9        1.0  0.66289051422288  0.37536122490686813  0.43729343961580724  1.0000
  C   C10       1.0  0.2258159989070876  0.12425476126733769  0.562657034298816  1.0000
  C   C11       1.0  0.33711664191822166  0.624637193818721  0.5627070315940088  1.0000
  C   C12       1.0  0.7741886780559636  0.8757444893446259  0.43734301656019164  1.0000
  C   C13       1.0  0.5988465663064415  0.26013905173189034  0.42480058377009305  1.0000
  C   C14       1.0  0.17426407692622795  0.23951021684118248  0.5750619228295335  1.0000
  C   C15       1.0  0.40116314765430866  0.7398593622014645  0.5751989402178525  1.0000
  C   C16       1.0  0.8257406637368303  0.7604898681312946  0.4249382565723607  1.0000
  C   C17       1.0  0.40032783952317874  0.20498479912726  0.36511283233748776  1.0000
  C   C18       1.0  0.0351919864233778  0.2948538535205217  0.63469551750444  1.0000
  C   C19       1.0  0.5996715605837366  0.795011943454838  0.6348857351054704  1.0000
  C   C20       1.0  0.96481529213721  0.7051462363482414  0.3653057094963401  1.0000
  C   C21       1.0  0.26361555421908617  0.2628763934811076  0.31679918651785505  1.0000
  C   C22       1.0  0.946669193245327  0.23717623727791448  0.6831061998206494  1.0000
  C   C23       1.0  0.7363814304097926  0.7371220153478859  0.6831990891171814  1.0000
  C   C24       1.0  0.05333554243721038  0.7628238501166958  0.31689447828643574  1.0000
  C   C25       1.0  0.053569937850895095  0.20384076174847368  0.2560096636862568  1.0000
  C   C26       1.0  0.7972802010884195  0.29635309025720596  0.7438864844426761  1.0000
  C   C27       1.0  0.946427184139061  0.7961593109573001  0.743987871624185  1.0000
  C   C28       1.0  0.20271937517692604  0.7036461626728396  0.2561139647445074  1.0000
  C   C29       1.0  0.7192893393535299  0.19737852408562154  0.1528555163257934  1.0000
  C   C30       1.0  0.5666744183891268  0.3027488275940015  0.8471272584022175  1.0000
  C   C31       1.0  0.2807027207360733  0.802622397409401  0.847145039381644  1.0000
  C   C32       1.0  0.43332528527623987  0.6972520940570913  0.15287344787073917  1.0000
  N   N1        1.0  0.9272461614571268  0.2552270844647423  0.21004342188691538  1.0000
  N   N2        1.0  0.7175731069895761  0.24500821446158474  0.7899148877477842  1.0000
  N   N3        1.0  0.07274095023745278  0.7447754959587696  0.7899552957085376  1.0000
  N   N4        1.0  0.2824316286929544  0.7549918729330258  0.21008579035930103  1.0000
  N   N5        1.0  0.6059748956142029  0.09038707276666  0.13909032476878744  1.0000
  N   N6        1.0  0.46699119709300857  0.4097566231648741  0.8609580326325458  1.0000
  N   N7        1.0  0.39401971233399274  0.9096138487803884  0.8609102811271612  1.0000
  N   N8        1.0  0.5330110544309434  0.5902442985382307  0.13904272382892197  1.0000
  N   N9        1.0  0.4131874474605011  0.0741816242946456  0.0782390827080732  1.0000
  N   N10       1.0  0.335082965474349  0.42590318037269265  0.9218201883762163  1.0000
  N   N11       1.0  0.5868072291682295  0.9258201291907893  0.9217611530255709  1.0000
  N   N12       1.0  0.6649192910301307  0.5740977389082856  0.07818006938006047  1.0000
  N   N13       1.0  0.4113762375448998  0.1666537816839835  0.0561175010751782  1.0000
  N   N14       1.0  0.35547320334664784  0.33337513429631827  0.9438804769526712  1.0000
  N   N15       1.0  0.588618375383831  0.8333471374409382  0.9438826061155795  1.0000
  N   N16       1.0  0.6445264415992398  0.666624950572121  0.056119602072214995  1.0000
  N   N17       1.0  0.6022712344449488  0.2462887046106061  0.10237030245125571  1.0000
  N   N18       1.0  0.5001709798134186  0.25376475901826007  0.8975809134677916  1.0000
  N   N19       1.0  0.39772083062518954  0.7537122144622896  0.897629754550998  1.0000
  N   N20       1.0  0.4998261172738835  0.7462353257981604  0.10241911536858338  1.0000
  O   O1        1.0  0.20757657476949018  0.4379776821585111  0.2849890064318146  1.0000
  O   O2        1.0  0.9234088853017539  0.06228731402243428  0.7151838167728855  1.0000
  O   O3        1.0  0.7924205123567487  0.5620224075021625  0.7150120198149352  1.0000
  O   O4        1.0  0.07659330750271919  0.9377127708980236  0.28481631244050476  1.0000
