data_image0
_chemical_formula_structural       Ag8H64C40N16O20
_chemical_formula_sum              "Ag8 H64 C40 N16 O20"
_cell_length_a       6.219842230106457
_cell_length_b       11.648367356
_cell_length_c       21.998
_cell_angle_alpha    90.0
_cell_angle_beta     97.77968063142201
_cell_angle_gamma    90.0

_space_group_name_H-M_alt    "P 1"
_space_group_IT_number       1

loop_
  _space_group_symop_operation_xyz
  'x, y, z'

loop_
  _atom_site_type_symbol
  _atom_site_label
  _atom_site_symmetry_multiplicity
  _atom_site_fract_x
  _atom_site_fract_y
  _atom_site_fract_z
  _atom_site_occupancy
  Ag  Ag1       1.0  0.07811969795125859  0.623899451132658  0.7130949364020296  1.0000
  Ag  Ag2       1.0  0.9218779926317211  0.12389976688506717  0.786906066216396  1.0000
  Ag  Ag3       1.0  0.9218893514844024  0.3761033513201609  0.2869087738951777  1.0000
  Ag  Ag4       1.0  0.0781099617918173  0.8761004600995363  0.2130900178957589  1.0000
  Ag  Ag5       1.0  0.5879147423315203  0.48223496292006723  0.9475757473323724  1.0000
  Ag  Ag6       1.0  0.4120861936379399  0.982243232061748  0.5524226519781905  1.0000
  Ag  Ag7       1.0  0.4120780801717386  0.5177601131280838  0.052423250619696694  1.0000
  Ag  Ag8       1.0  0.5879131196382801  0.0177707307533836  0.4475747760523987  1.0000
  H   H1        1.0  0.0891069538780584  0.5451699629587097  0.9365243688142543  1.0000
  H   H2        1.0  0.9109004728643626  0.0451719956899339  0.5634774610294286  1.0000
  H   H3        1.0  0.9108842459319675  0.4548242546000267  0.063477749138876  1.0000
  H   H4        1.0  0.08910370849157799  0.9548230803582172  0.43651969873362617  1.0000
  H   H5        1.0  0.0529776888935345  0.3974084829678333  0.9558598166786892  1.0000
  H   H6        1.0  0.9470297378488864  0.8974116011730615  0.5441406494046461  1.0000
  H   H7        1.0  0.9470118882232441  0.6025848761014955  0.044139966234119796  1.0000
  H   H8        1.0  0.052974443507054  0.10258175789626728  0.45585787411874185  1.0000
  H   H9        1.0  0.3241800327573472  0.2769392397586401  0.8349100569824444  1.0000
  H   H10       1.0  0.6758225259053531  0.7769406409850532  0.6650897681948748  1.0000
  H   H11       1.0  0.6758079216661983  0.7230584117577336  0.1650901184107312  1.0000
  H   H12       1.0  0.3241767873708667  0.22306044448895787  0.33490993276962655  1.0000
  H   H13       1.0  0.1848929131312005  0.249775776388212  0.8992471806006606  1.0000
  H   H14       1.0  0.8151128909179803  0.7497780361040327  0.6007536779630414  1.0000
  H   H15       1.0  0.8150934185991047  0.7502175826811237  0.10075156892576588  1.0000
  H   H16       1.0  0.1848847996649994  0.2502178984335258  0.3992468700686018  1.0000
  H   H17       1.0  0.799544771975178  0.27999460356305406  0.8919448096870538  1.0000
  H   H18       1.0  0.200462654767243  0.7799951463000523  0.6080561109830569  1.0000
  H   H19       1.0  0.20044155975512007  0.7200013309745046  0.1080539398393725  1.0000
  H   H20       1.0  0.7995415265886975  0.22000164672691366  0.3919437763006712  1.0000
  H   H21       1.0  0.6551948494408035  0.3365398669351478  0.8224164638747877  1.0000
  H   H22       1.0  0.3448093319151369  0.8365395511827458  0.6775843325825051  1.0000
  H   H23       1.0  0.3447931049827417  0.6634595015600411  0.1775814385844896  1.0000
  H   H24       1.0  0.6551851132813624  0.163458100333628  0.3224151820627554  1.0000
  H   H25       1.0  0.2782805317758914  0.5907943825668623  0.8490393046661281  1.0000
  H   H26       1.0  0.7217236495800492  0.0907972737874871  0.6509619463779472  1.0000
  H   H27       1.0  0.7217139134206078  0.4092006934812886  0.1509652104337249  1.0000
  H   H28       1.0  0.2782789090826512  0.9092029531971093  0.3490342421051338  1.0000
  H   H29       1.0  0.3691221447273136  0.4764238481147699  0.8046190642340321  1.0000
  H   H30       1.0  0.6308852820151074  0.976423532362368  0.6953814018493034  1.0000
  H   H31       1.0  0.6308706777759525  0.5235763788698264  0.19538357041228238  1.0000
  H   H32       1.0  0.3691140312611124  0.0235766946222356  0.3046155715945105  1.0000
  H   H33       1.0  0.8350330731299707  0.38188871144321  0.7376693829313297  1.0000
  H   H34       1.0  0.16497597630569055  0.8818892541802155  0.7623311452584217  1.0000
  H   H35       1.0  0.1649629947597688  0.6181175249672464  0.262331557580687  1.0000
  H   H36       1.0  0.8350298277434902  0.118112689783203  0.2376665311978243  1.0000
  H   H37       1.0  0.1218821119358751  0.3608857680672912  0.7405508642991094  1.0000
  H   H38       1.0  0.8781253148065458  0.8608871692937043  0.7594505109577909  1.0000
  H   H39       1.0  0.878112333260624  0.6391187513643501  0.2594500141064983  1.0000
  H   H40       1.0  0.1218821119358751  0.1391164916485295  0.2405490459519868  1.0000
  H   H41       1.0  0.703330421706724  0.5391219050767049  0.7959925824426505  1.0000
  H   H42       1.0  0.2966786277289302  0.0391222208291069  0.704009309507441  1.0000
  H   H43       1.0  0.29666726887625566  0.4608843313337515  0.20401069310968006  1.0000
  H   H44       1.0  0.70332393093377  0.9608814401131267  0.2959868789756399  1.0000
  H   H45       1.0  0.8907936809297965  0.6236573571194981  0.8455204288979344  1.0000
  H   H46       1.0  0.1092121231193843  0.12365595589308498  0.6544808842525498  1.0000
  H   H47       1.0  0.10920238695995009  0.37634286986509835  0.1544846028951099  1.0000
  H   H48       1.0  0.8907855674635953  0.8763408371338812  0.345514663324508  1.0000
  H   H49       1.0  0.7910840494227784  0.5089082288383153  0.6467528170246055  1.0000
  H   H50       1.0  0.2089428496385253  0.008899101207226999  0.8532488489224478  1.0000
  H   H51       1.0  0.2089233773196426  0.49110830944504597  0.3532499219926351  1.0000
  H   H52       1.0  0.7910678224903762  0.9910976918197392  0.1467508322001478  1.0000
  H   H53       1.0  0.5980452162276961  0.5517313975069342  0.5835621684485659  1.0000
  H   H54       1.0  0.40198330552684064  0.0517308547699287  0.9164391050181138  1.0000
  H   H55       1.0  0.40195571974176386  0.4482739804141218  0.4164389583826846  1.0000
  H   H56       1.0  0.598028989295301  0.9482693722146747  0.083562001971238  1.0000
  H   H57       1.0  0.6494115707340953  0.40400254011357356  0.5184484123788593  1.0000
  H   H58       1.0  0.35059585600832577  0.9039944979564893  0.9815543266383813  1.0000
  H   H59       1.0  0.3505991013948062  0.5960079887439278  0.4815558146115464  1.0000
  H   H60       1.0  0.6494083253476147  0.09600057809166167  0.0184478335792591  1.0000
  H   H61       1.0  0.86870882593589  0.3479028327444169  0.5700847433286569  1.0000
  H   H62       1.0  0.1313180731254064  0.84789822454497  0.9299137405109335  1.0000
  H   H63       1.0  0.1313115823524527  0.6521016866872245  0.42991621960597126  1.0000
  H   H64       1.0  0.8686893536170075  0.1521037194184487  0.0700862709856196  1.0000
  C   C1        1.0  0.059306192528822486  0.45824018395595795  0.9179862938886458  1.0000
  C   C2        1.0  0.9406996115203583  0.9582441606505936  0.5820141100882736  1.0000
  C   C3        1.0  0.9406963661338776  0.5417540336027854  0.08201580422257848  1.0000
  C   C4        1.0  0.0592915882896605  0.041754349355187494  0.41798482575738655  1.0000
  C   C5        1.0  0.19533169874294026  0.3077590095193443  0.8603349555307959  1.0000
  C   C6        1.0  0.8046805960792013  0.8077586937669351  0.6396666060453384  1.0000
  C   C7        1.0  0.8046562556806052  0.6922377835076218  0.13966431068882199  1.0000
  C   C8        1.0  0.1953268306632197  0.19223981623884606  0.3603352237983444  1.0000
  C   C9        1.0  0.808601022946597  0.33919860863289125  0.8536051813648413  1.0000
  C   C10       1.0  0.19140315840934355  0.8392034438169347  0.6463951605056764  1.0000
  C   C11       1.0  0.1913869314769414  0.6608007598622975  0.1463931756812187  1.0000
  C   C12       1.0  0.8085994002533566  0.16079764165706928  0.3536055738452077  1.0000
  C   C13       1.0  0.24217398449673058  0.503581302059338  0.8317059247751217  1.0000
  C   C14       1.0  0.7578237060862492  0.0035807593223395997  0.6682937140829637  1.0000
  C   C15       1.0  0.7578188380065356  0.49641806643585074  0.1682948915240772  1.0000
  C   C16       1.0  0.2421691164170099  0.9964186091728564  0.3317021017616426  1.0000
  C   C17       1.0  0.9919783405918067  0.3846410284864631  0.7673429499041405  1.0000
  C   C18       1.0  0.0080258407641338  0.8846407127340612  0.7326578465531525  1.0000
  C   C19       1.0  0.0080144819114523  0.6153634909451782  0.23265832098184086  1.0000
  C   C20       1.0  0.9919734725120861  0.1153612312293575  0.2673404906510015  1.0000
  C   C21       1.0  0.8575154879676317  0.5370083041532822  0.8268515328666908  1.0000
  C   C22       1.0  0.1424886933883087  0.0370103368844994  0.6731501727641671  1.0000
  C   C23       1.0  0.1424773345356272  0.4629919228313213  0.1731515563664061  1.0000
  C   C24       1.0  0.8575122425811514  0.9629907485895046  0.32684777195962056  1.0000
  C   C25       1.0  0.6234695739091478  0.22414986754818494  0.5370213868049518  1.0000
  C   C26       1.0  0.3765427209129939  0.7241409669017002  0.9629774472504948  1.0000
  C   C27       1.0  0.3765410982197536  0.7758640952669466  0.46297647597052105  1.0000
  C   C28       1.0  0.6234501015902651  0.2758549676358583  0.03702064152801649  1.0000
  C   C29       1.0  0.6898847855216061  0.3454896190174708  0.5581409380789708  1.0000
  C   C30       1.0  0.3101372454599769  0.8454841523286161  0.9418591777885083  1.0000
  C   C31       1.0  0.3101356227667367  0.6545166173929857  0.4418600248556572  1.0000
  C   C32       1.0  0.6898604451230099  0.15451349918775747  0.05814182482992439  1.0000
  C   C33       1.0  0.6213470911514634  0.4953629829529547  0.6246885832944997  1.0000
  C   C34       1.0  0.37868143060307347  0.9953566577746924  0.8753140539325273  1.0000
  C   C35       1.0  0.3786619582841908  0.5046441119469094  0.3753133086555849  1.0000
  C   C36       1.0  0.6213324869123085  0.0046384182734585  0.1246871151632405  1.0000
  C   C37       1.0  0.462655805763589  0.5376933787011637  0.6674988762491054  1.0000
  C   C38       1.0  0.537374338684188  0.0376825340912603  0.8325029139107727  1.0000
  C   C39       1.0  0.5373418848193906  0.4623171501563377  0.3325025809561026  1.0000
  C   C40       1.0  0.4626460696041477  0.9623091079992534  0.1674966852635151  1.0000
  N   N1        1.0  0.8476365315236265  0.45621929988863735  0.8779490177242053  1.0000
  N   N2        1.0  0.15237251791202766  0.9562207011150504  0.6220519650523215  1.0000
  N   N3        1.0  0.152359536366113  0.5437774931383287  0.12205283196136921  1.0000
  N   N4        1.0  0.8476284180574325  0.0437760919119157  0.37794461591112594  1.0000
  N   N5        1.0  0.23758338532128678  0.4247384932834847  0.8836672381930627  1.0000
  N   N6        1.0  0.7624207960346538  0.9247381775310828  0.6163321945038902  1.0000
  N   N7        1.0  0.7624094371819723  0.5752565827646592  0.11633266893257138  1.0000
  N   N8        1.0  0.2375785172415661  0.0752543230488385  0.3836656881134815  1.0000
  N   N9        1.0  0.0323629939749068  0.5030765102872152  0.7907208759250466  1.0000
  N   N10       1.0  0.9676363193013131  0.0030759675502097  0.7092792796262302  1.0000
  N   N11       1.0  0.9676282058351191  0.49692629216561096  0.2092812420280765  1.0000
  N   N12       1.0  0.0323613712816666  0.9969251179237942  0.2907176317111748  1.0000
  N   N13       1.0  0.9850770262428694  0.3022775546468637  0.8187116870525982  1.0000
  N   N14       1.0  0.0149320231927916  0.8022780973838621  0.6812897503107109  1.0000
  N   N15       1.0  0.0149109281806759  0.6977226723377397  0.1812875791670194  1.0000
  N   N16       1.0  0.9850754035496294  0.1977204126219192  0.3187102611858421  1.0000
  O   O1        1.0  0.7150527576711596  0.18715841743066616  0.4923122274299772  1.0000
  O   O2        1.0  0.284959537150975  0.6871503752735889  0.007688424972592098  1.0000
  O   O3        1.0  0.2849546690712543  0.8128512529374277  0.5076886932401337  1.0000
  O   O4        1.0  0.7150332853522838  0.3128429837957468  0.992313755086947  1.0000
  O   O5        1.0  0.4889272093162233  0.1709149393347857  0.5649176893499686  1.0000
  O   O6        1.0  0.5110688585735232  0.6709094726459313  0.9350777961206873  1.0000
  O   O7        1.0  0.5110558770276015  0.8290947310333081  0.4350795722032998  1.0000
  O   O8        1.0  0.4889077369973407  0.329083027933997  0.0649201261804961  1.0000
  O   O9        1.0  0.5822872421758376  0.3792531489594991  0.6080022388320074  1.0000
  O   O10       1.0  0.417754261124621  0.8792476822706448  0.8920054411141151  1.0000
  O   O11       1.0  0.4177445249651797  0.6207530874509642  0.39200552306243003  1.0000
  O   O12       1.0  0.5822564110042804  0.1207473937775063  0.1079978767027256  1.0000
  O   O13       1.0  0.2786667327669647  0.48873887867792826  0.6638222467339218  1.0000
  O   O14       1.0  0.7213601662943319  0.9887231101161686  0.8361785100395734  1.0000
  O   O15       1.0  0.7213423166686894  0.5112647822643055  0.3361782814558296  1.0000
  O   O16       1.0  0.278660241994011  0.0112668149955297  0.1638269987628576  1.0000
  O   O17       1.0  0.5248260518606855  0.6226100000412771  0.7017135260209031  1.0000
  O   O18       1.0  0.4751992245073708  0.12260430636782617  0.7982880778197411  1.0000
  O   O19       1.0  0.475170016029054  0.377392802411542  0.2982869599043383  1.0000
  O   O20       1.0  0.5248098249282904  0.8773856187438724  0.2017106320228876  1.0000
