data_image0
_chemical_formula_structural       Zn4H20C8N44O12
_chemical_formula_sum              "Zn4 H20 C8 N44 O12"
_cell_length_a       6.708622434408227
_cell_length_b       10.230796686000927
_cell_length_c       14.001965457392153
_cell_angle_alpha    89.99995245193315
_cell_angle_beta     102.1676504930905
_cell_angle_gamma    89.99999981637235

_space_group_name_H-M_alt    "P 1"
_space_group_IT_number       1

loop_
  _space_group_symop_operation_xyz
  'x, y, z'

loop_
  _atom_site_type_symbol
  _atom_site_label
  _atom_site_symmetry_multiplicity
  _atom_site_fract_x
  _atom_site_fract_y
  _atom_site_fract_z
  _atom_site_occupancy
  Zn  Zn1       1.0  0.9907992378878347  0.8593852419804904  0.7418023932169575  1.0000
  Zn  Zn2       1.0  0.5092024274974208  0.35938604887751074  0.7581972516142839  1.0000
  Zn  Zn3       1.0  0.0092018424595537  0.1406135365115375  0.2581975480623129  1.0000
  Zn  Zn4       1.0  0.4907986528498328  0.6406137070555076  0.24180268966467366  1.0000
  H   H1        1.0  0.4900749237559127  0.854582228227507  0.5114189827830486  1.0000
  H   H2        1.0  0.0099283630486084  0.35458375152689564  0.9885818251488484  1.0000
  H   H3        1.0  0.5099276712666025  0.14541557282304748  0.4885818303878364  1.0000
  H   H4        1.0  0.9900727071320078  0.6454179592876913  0.011418829272407985  1.0000
  H   H5        1.0  0.3688413608327538  0.6252882277836207  0.5634685819620413  1.0000
  H   H6        1.0  0.1311574264837247  0.1252898097028918  0.9365311825002178  1.0000
  H   H7        1.0  0.6311581946734323  0.3747095732675163  0.43653120056914213  1.0000
  H   H8        1.0  0.8688405940142091  0.8747119011118801  0.06346915442426136  1.0000
  H   H9        1.0  0.17702382875403092  0.6228181944784411  0.6344537839710468  1.0000
  H   H10       1.0  0.3229764637699972  0.1228188788231037  0.8655475670976143  1.0000
  H   H11       1.0  0.8229772312605022  0.37718156145377435  0.36554758359375217  1.0000
  H   H12       1.0  0.6770215567282137  0.8771808771096941  0.13445276982748308  1.0000
  H   H13       1.0  0.48457753362941264  0.6443638035566652  0.8500216459779179  1.0000
  H   H14       1.0  0.015425822814641806  0.1443637556118986  0.649978582590684  1.0000
  H   H15       1.0  0.5154220117101361  0.35563595237604056  0.14997884969557154  1.0000
  H   H16       1.0  0.9845767823739493  0.8556360003210273  0.3500215174366587  1.0000
  H   H17       1.0  0.6034512078495026  0.7929475505750643  0.8313238463097573  1.0000
  H   H18       1.0  0.8965489413242267  0.29294650288619556  0.6686763951963214  1.0000
  H   H19       1.0  0.3965483273235506  0.20705318279821935  0.16867736250634374  1.0000
  H   H20       1.0  0.1034521390230339  0.7070532530468225  0.3313235460826291  1.0000
  C   C1        1.0  0.7201657039910432  0.6296406495209366  0.7796252261757458  1.0000
  C   C2        1.0  0.7798345117166149  0.1296395435979605  0.7203736929700069  1.0000
  C   C3        1.0  0.2798323165070329  0.3703600838528445  0.22037511074903895  1.0000
  C   C4        1.0  0.2201665787971336  0.8703592348944795  0.279625535166339  1.0000
  C   C5        1.0  0.2767174792185045  0.8010721714700675  0.6001943530624273  1.0000
  C   C6        1.0  0.2232812786996021  0.30107379473219  0.8998038732483165  1.0000
  C   C7        1.0  0.7232820966204089  0.19892562958187907  0.3998040031829148  1.0000
  C   C8        1.0  0.7767167722975474  0.6989269386428064  0.10019432424770261  1.0000
  N   N1        1.0  0.15768829791989705  0.8831273425603501  0.6397605682716048  1.0000
  N   N2        1.0  0.34231195145906673  0.3831280328624728  0.8602384777123502  1.0000
  N   N3        1.0  0.842311267752372  0.11687241337316584  0.36023850111603645  1.0000
  N   N4        1.0  0.6576876142130672  0.6168727005120261  0.13976059167498528  1.0000
  N   N5        1.0  0.8756098870310113  0.681717747863253  0.7438300705590135  1.0000
  N   N6        1.0  0.6243903139433729  0.18171757927940746  0.7561688154455337  1.0000
  N   N7        1.0  0.12438813346720683  0.318282008069545  0.2561702663660839  1.0000
  N   N8        1.0  0.37560926189540567  0.8182811992135227  0.24382954079949568  1.0000
  N   N9        1.0  0.3881026149810652  0.8791697325932123  0.553404470018634  1.0000
  N   N10       1.0  0.1118991603587673  0.37917130316613884  0.9465947372319758  1.0000
  N   N11       1.0  0.6118969506913459  0.12082904589931329  0.4465945993693196  1.0000
  N   N12       1.0  0.8881019199882091  0.6208304076488531  0.053405204046356396  1.0000
  N   N13       1.0  0.7085167302484763  0.5006233398155118  0.7562894122140589  1.0000
  N   N14       1.0  0.7914819971181687  0.0006222074177913  0.7437094302875451  1.0000
  N   N15       1.0  0.2914812902495925  0.49937739355826943  0.2437109247107329  1.0000
  N   N16       1.0  0.2085175685541074  0.9993775485157244  0.2562896391000961  1.0000
  N   N17       1.0  0.19944293970489474  0.007125196515566798  0.6142356474788286  1.0000
  N   N18       1.0  0.30055893072389495  0.5071261819424392  0.8857645096771732  1.0000
  N   N19       1.0  0.8005581406425007  0.9928735819764682  0.38576429380044164  1.0000
  N   N20       1.0  0.6994421394568633  0.4928745514311644  0.11423614474439595  1.0000
  N   N21       1.0  0.9585091346261763  0.5823159338865338  0.7003124630301156  1.0000
  N   N22       1.0  0.5414910843035089  0.0823166936787132  0.7996871993745457  1.0000
  N   N23       1.0  0.04148888587217671  0.4176828446052809  0.2996878738952944  1.0000
  N   N24       1.0  0.4585084813687672  0.9176830622548026  0.2003118700131026  1.0000
  N   N25       1.0  0.1908662448008513  0.8285654397367279  0.9389483059900028  1.0000
  N   N26       1.0  0.30913399968133604  0.3285674465708368  0.5610522010015655  1.0000
  N   N27       1.0  0.8091333005388395  0.1714333387549942  0.0610521896837994  1.0000
  N   N28       1.0  0.6908670704991453  0.6714352416847335  0.4389484534193783  1.0000
  N   N29       1.0  0.8609310065397721  0.4758804260896099  0.7075424779615317  1.0000
  N   N30       1.0  0.6390690908801986  0.9758805402703175  0.7924576471290761  1.0000
  N   N31       1.0  0.13906700379208561  0.524119329842783  0.29245857210649007  1.0000
  N   N32       1.0  0.36093047479207735  0.024119215663198194  0.20754142225857206  1.0000
  N   N33       1.0  0.33628867552544517  0.0060226722099728  0.5624687739406227  1.0000
  N   N34       1.0  0.1637147200566105  0.506023599383596  0.9375315426654109  1.0000
  N   N35       1.0  0.6637139296632952  0.9939761062819628  0.4375313260870327  1.0000
  N   N36       1.0  0.8362878851318528  0.4939771339903203  0.062468557361626195  1.0000
  N   N37       1.0  0.28795942471690245  0.6716951461980755  0.6073076395161079  1.0000
  N   N38       1.0  0.2120408743120521  0.17169580011093902  0.8926922541623339  1.0000
  N   N39       1.0  0.7120401206226532  0.32830460973462994  0.39269285615738164  1.0000
  N   N40       1.0  0.7879571563523841  0.8283049332632545  0.10730736961953372  1.0000
  N   N41       1.0  0.6046273219252357  0.6925985716366867  0.8315220251458013  1.0000
  N   N42       1.0  0.8953728759709705  0.19259752417657688  0.6684768539346704  1.0000
  N   N43       1.0  0.3953706985728402  0.3074021617371018  0.16847831177898334  1.0000
  N   N44       1.0  0.1046267100340259  0.8074022317577416  0.33152078916712907  1.0000
  O   O1        1.0  0.23845889768627873  0.8603372057843544  0.8562184396876373  1.0000
  O   O2        1.0  0.261542852482755  0.36033618669753764  0.6437829189772373  1.0000
  O   O3        1.0  0.7615421623279771  0.13966450502982747  0.14378292787653624  1.0000
  O   O4        1.0  0.7384566826907104  0.6396616143527895  0.3562182898397949  1.0000
  O   O5        1.0  0.005686352986828098  0.8397033765172992  0.9451722701872212  1.0000
  O   O6        1.0  0.49431237366892594  0.339708322183931  0.5548273578241236  1.0000
  O   O7        1.0  0.9943132126860021  0.16029246965226918  0.054826799201670356  1.0000
  O   O8        1.0  0.5056871716697985  0.6602972983946953  0.4451731378474974  1.0000
  O   O9        1.0  0.32567884456697993  0.7881429182181061  0.006783068653668104  1.0000
  O   O10       1.0  0.174321609004501  0.288145413224079  0.4932170751876014  1.0000
  O   O11       1.0  0.6743207109392131  0.2118548828330303  0.9932167138775225  1.0000
  O   O12       1.0  0.8256794713423404  0.7118572750318962  0.5067828660904181  1.0000
