data_image0
_chemical_formula_structural       Ag8H56C48Br8N8
_chemical_formula_sum              "Ag8 H56 C48 Br8 N8"
_cell_length_a       6.627348102972114
_cell_length_b       14.247430688517793
_cell_length_c       15.68654436985301
_cell_angle_alpha    90.00340580401068
_cell_angle_beta     89.9996377455772
_cell_angle_gamma    89.99743555522902

_space_group_name_H-M_alt    "P 1"
_space_group_IT_number       1

loop_
  _space_group_symop_operation_xyz
  'x, y, z'

loop_
  _atom_site_type_symbol
  _atom_site_label
  _atom_site_symmetry_multiplicity
  _atom_site_fract_x
  _atom_site_fract_y
  _atom_site_fract_z
  _atom_site_occupancy
  Ag  Ag1       1.0  0.9264959438891509  0.8056979066204876  0.6665819514744697  1.0000
  Ag  Ag2       1.0  0.9264210167197716  0.694308547870463  0.833417550133291  1.0000
  Ag  Ag3       1.0  0.5735008686139551  0.19431523774126452  0.1665826397580261  1.0000
  Ag  Ag4       1.0  0.5735660715678961  0.3056846424378179  0.3334132621507635  1.0000
  Ag  Ag5       1.0  0.07355470653661911  0.19433384448988283  0.3334073073975716  1.0000
  Ag  Ag6       1.0  0.07359644578864531  0.305650908502166  0.1665997525050784  1.0000
  Ag  Ag7       1.0  0.42642002933466483  0.805647026152059  0.8333836623904531  1.0000
  Ag  Ag8       1.0  0.4263683852453469  0.6943772874058283  0.6666123338831228  1.0000
  H   H1        1.0  0.2565953301093201  0.7961253896244218  0.5158303532077255  1.0000
  H   H2        1.0  0.2565745896865508  0.703881642272009  0.9841684089121898  1.0000
  H   H3        1.0  0.24341204032111113  0.20388696240588192  0.015817545350365902  1.0000
  H   H4        1.0  0.24340589245390026  0.2961248996312591  0.4841644380830772  1.0000
  H   H5        1.0  0.7434372157431851  0.20389653509628408  0.4841518922822914  1.0000
  H   H6        1.0  0.7434383436136045  0.2960981687071397  0.0158437952076511  1.0000
  H   H7        1.0  0.756557141159412  0.7960921474566833  0.9841366465057106  1.0000
  H   H8        1.0  0.7565738343717641  0.7039068495502577  0.5158751812696707  1.0000
  H   H9        1.0  0.4692029431465841  0.8090964396494374  0.3912438873352286  1.0000
  H   H10       1.0  0.4691872427203307  0.6908778109234888  0.1087646114123473  1.0000
  H   H11       1.0  0.030837992105219304  0.1908769809766966  0.8912175556847544  1.0000
  H   H12       1.0  0.0308396538771234  0.30910238793822487  0.6087750873644924  1.0000
  H   H13       1.0  0.5307979190694425  0.19091285112595813  0.6087256069483331  1.0000
  H   H14       1.0  0.5308090913894999  0.3091048072047471  0.8912558799974875  1.0000
  H   H15       1.0  0.9691704225568502  0.8090937068822941  0.1087315362896248  1.0000
  H   H16       1.0  0.9692125037702296  0.6908900562906555  0.3912855674701987  1.0000
  H   H17       1.0  0.3237634111660341  0.8042320973826309  0.29623554446955325  1.0000
  H   H18       1.0  0.32376986582894324  0.6957324572217373  0.20375993854240454  1.0000
  H   H19       1.0  0.1762629672723435  0.19572934819078117  0.7962216534750369  1.0000
  H   H20       1.0  0.176292712244674  0.3042646302725416  0.7037763561390094  1.0000
  H   H21       1.0  0.6761936926963584  0.195778596632266  0.7037345866929385  1.0000
  H   H22       1.0  0.6762294877397749  0.3042431422580593  0.7962548150092348  1.0000
  H   H23       1.0  0.823739412349923  0.8042322149780574  0.2037350876118538  1.0000
  H   H24       1.0  0.8237850884662664  0.6957790514509768  0.29628940271845755  1.0000
  H   H25       1.0  0.4317734781104789  0.911993830499725  0.3284350773565805  1.0000
  H   H26       1.0  0.4317707846583971  0.5879788489840223  0.1715556299938115  1.0000
  H   H27       1.0  0.06826870488006881  0.08797602889195841  0.8284161637209095  1.0000
  H   H28       1.0  0.06823977611661289  0.4120119301518202  0.6715757838043006  1.0000
  H   H29       1.0  0.5682122944526641  0.08801896947708343  0.6715356919127589  1.0000
  H   H30       1.0  0.5682451667933819  0.4119981544924444  0.828457211461732  1.0000
  H   H31       1.0  0.931717076535783  0.9119876397268529  0.171540577247967  1.0000
  H   H32       1.0  0.9317429702278376  0.5880142041990626  0.3284555478353185  1.0000
  H   H33       1.0  0.0405766002986354  0.9584726236927427  0.30240147964660485  1.0000
  H   H34       1.0  0.040588356827754496  0.541499388205203  0.19759244784347632  1.0000
  H   H35       1.0  0.45948770140620354  0.041494166876155716  0.8023853947000107  1.0000
  H   H36       1.0  0.4594393147101172  0.4585021807457111  0.6976103462591325  1.0000
  H   H37       1.0  0.959403137142509  0.04152754206334211  0.6975826758835524  1.0000
  H   H38       1.0  0.9594291040193496  0.4584734039751909  0.8024216683110768  1.0000
  H   H39       1.0  0.5405192034488239  0.9584695017503222  0.197582183925789  1.0000
  H   H40       1.0  0.5405736084223989  0.541532376541042  0.3024203489891589  1.0000
  H   H41       1.0  0.7262461387367767  0.9895440166968471  0.38553897222651295  1.0000
  H   H42       1.0  0.7262350431285682  0.5104544559911943  0.1144587597921216  1.0000
  H   H43       1.0  0.7738038330742895  0.010444079805246502  0.8855391474110661  1.0000
  H   H44       1.0  0.773763767350566  0.4895665903004699  0.6144655377232695  1.0000
  H   H45       1.0  0.2737547212264886  0.010463167904255503  0.6144547464884625  1.0000
  H   H46       1.0  0.2737733634142003  0.4895239511175405  0.8855559941090763  1.0000
  H   H47       1.0  0.22619250660868323  0.9895329242545262  0.114436719361791  1.0000
  H   H48       1.0  0.22621746803405074  0.5104841102014036  0.3855504959259477  1.0000
  H   H49       1.0  0.690739997700568  0.9182005253674108  0.5313155191720966  1.0000
  H   H50       1.0  0.6907093439214264  0.5818250169509369  0.9686954451005152  1.0000
  H   H51       1.0  0.8092673921814326  0.08181223715315873  0.0313197634517621  1.0000
  H   H52       1.0  0.8092535792979803  0.4182043505070683  0.4686857152899009  1.0000
  H   H53       1.0  0.3092955638249891  0.08182069704587043  0.4686877634544118  1.0000
  H   H54       1.0  0.3093005710396853  0.41815479388125715  0.0313218588825208  1.0000
  H   H55       1.0  0.19070329545699144  0.9181675740624158  0.9686592905516704  1.0000
  H   H56       1.0  0.19070049494708033  0.5818540704115308  0.5313284060072833  1.0000
  C   C1        1.0  0.1407452537488751  0.8376725881928877  0.4838186784620363  1.0000
  C   C2        1.0  0.14071549900429403  0.6623389505052869  0.016176595080942508  1.0000
  C   C3        1.0  0.3592866047112366  0.1623388828858198  0.9838116568085482  1.0000
  C   C4        1.0  0.3592661451371484  0.3376754914150198  0.516175728591847  1.0000
  C   C5        1.0  0.8592918176290354  0.16235354775415092  0.5161686673173875  1.0000
  C   C6        1.0  0.8592868708895909  0.3376464753427087  0.9838381592281067  1.0000
  C   C7        1.0  0.6406976644159953  0.8376451401927484  0.016148273048266007  1.0000
  C   C8        1.0  0.6407120731196301  0.6623576616227282  0.4838587909253107  1.0000
  C   C9        1.0  0.17187462670523965  0.8709411173074741  0.4009333461388138  1.0000
  C   C10       1.0  0.1718508552656886  0.6290402621987283  0.0990552874319874  1.0000
  C   C11       1.0  0.32818386562709634  0.12904451181623242  0.9009262518523187  1.0000
  C   C12       1.0  0.3281509370480578  0.3709593131395863  0.5990671338569699  1.0000
  C   C13       1.0  0.8281383040972301  0.12907519209586837  0.5990508110946635  1.0000
  C   C14       1.0  0.8281605707735907  0.3709304243666339  0.9009543660494401  1.0000
  C   C15       1.0  0.6718139858176215  0.8709219643127284  0.0990375018945144  1.0000
  C   C16       1.0  0.6718363329431157  0.629080858686855  0.400973123714607  1.0000
  C   C17       1.0  0.3599011750693535  0.8476342026957014  0.3522184477302588  1.0000
  C   C18       1.0  0.35987517650600864  0.6523325951839143  0.14776992234752132  1.0000
  C   C19       1.0  0.14015708912435096  0.15233040191883165  0.852206049856747  1.0000
  C   C20       1.0  0.1401464644081614  0.347655718354318  0.6477882348260096  1.0000
  C   C21       1.0  0.6400966696187212  0.1523750881005839  0.6477484965481253  1.0000
  C   C22       1.0  0.6401302132906823  0.347638793080371  0.8522448309986501  1.0000
  C   C23       1.0  0.8598422734661214  0.847626949957281  0.1477494158994475  1.0000
  C   C24       1.0  0.8598740021624849  0.6523683102605419  0.3522673218582  1.0000
  C   C25       1.0  0.0202633399600458  0.9271200918817332  0.3652967447838763  1.0000
  C   C26       1.0  0.0202518710474422  0.5728668890237574  0.13470098547485782  1.0000
  C   C27       1.0  0.47979516601603234  0.07286288971185681  0.8652832916944535  1.0000
  C   C28       1.0  0.47974990554877905  0.4271437562480997  0.634708647802448  1.0000
  C   C29       1.0  0.9797360104573584  0.07289411159514  0.6346931494783519  1.0000
  C   C30       1.0  0.9797535179450918  0.4271094123931079  0.8653144057145213  1.0000
  C   C31       1.0  0.5202072111568583  0.9271077976853945  0.1346836498747024  1.0000
  C   C32       1.0  0.5202403838928333  0.5728971178579841  0.3653150351539622  1.0000
  C   C33       1.0  0.8448873256456652  0.944696743197149  0.4113138992222076  1.0000
  C   C34       1.0  0.8448742860506757  0.5552981694501541  0.0886819519688302  1.0000
  C   C35       1.0  0.6551496358202442  0.05529022219222671  0.9113160458084553  1.0000
  C   C36       1.0  0.6551149025711993  0.44471769083275353  0.5886873318850407  1.0000
  C   C37       1.0  0.1551090082737474  0.055308335778477186  0.5886766318222314  1.0000
  C   C38       1.0  0.15513713880884697  0.4446781320927826  0.9113308893625389  1.0000
  C   C39       1.0  0.3448406689727078  0.9446811667219422  0.0886610954395834  1.0000
  C   C40       1.0  0.3448602966161404  0.5553316056692809  0.4113363514332492  1.0000
  C   C41       1.0  0.8253079670861966  0.9065840020252057  0.4925581732929061  1.0000
  C   C42       1.0  0.8252886541510874  0.5934315118713442  0.0074440551626296  1.0000
  C   C43       1.0  0.6747042185958135  0.0934197528576846  0.9925619898275357  1.0000
  C   C44       1.0  0.674692110497709  0.4065900185965318  0.5074407490822281  1.0000
  C   C45       1.0  0.1747125081751832  0.0934266922364628  0.5074342710158462  1.0000
  C   C46       1.0  0.1747152245144576  0.4065525101623707  0.9925738865149114  1.0000
  C   C47       1.0  0.32526646928301517  0.9065593565049213  0.0074157891472382  1.0000
  C   C48       1.0  0.3252815815562543  0.593451557323533  0.4925771962536913  1.0000
  Br  Br1       1.0  0.5285670458799245  0.8798214346752931  0.6803607899024158  1.0000
  Br  Br2       1.0  0.5285353711517686  0.6201834942701582  0.8196410759135874  1.0000
  Br  Br3       1.0  0.9714464599871847  0.12019321091813853  0.1803630901243949  1.0000
  Br  Br4       1.0  0.9714727453652615  0.3798032817424684  0.3196457475719185  1.0000
  Br  Br5       1.0  0.471492655837814  0.12021171991051459  0.31964631891086276  1.0000
  Br  Br6       1.0  0.4714790707318741  0.37979842236933337  0.18037112838257494  1.0000
  Br  Br7       1.0  0.028530260867604802  0.8797830903614567  0.8196433757525199  1.0000
  Br  Br8       1.0  0.028510005291138896  0.6202130268627004  0.6803588088200172  1.0000
  N   N1        1.0  0.9716479499999765  0.8547320476425001  0.5288586269837127  1.0000
  N   N2        1.0  0.9716113294914309  0.6452810715913346  0.9711385186226238  1.0000
  N   N3        1.0  0.528367505854682  0.14527801526186582  0.028862252616043804  1.0000
  N   N4        1.0  0.5283586212623774  0.35473485283016276  0.4711372817134674  1.0000
  N   N5        1.0  0.0283906307509767  0.1452877712957203  0.471133180788094  1.0000
  N   N6        1.0  0.028400095157650206  0.3546966337134734  0.028874322809926405  1.0000
  N   N7        1.0  0.47160318265474643  0.8547031999393583  0.9711066016640758  1.0000
  N   N8        1.0  0.47160601569152055  0.6453095302427272  0.5288927759692754  1.0000
