data_image0
_chemical_formula_structural       Ni3H12C21O15
_chemical_formula_sum              "Ni3 H12 C21 O15"
_cell_length_a       8.979914192393503
_cell_length_b       8.979967335323522
_cell_length_c       10.177989888840578
_cell_angle_alpha    89.98135611006707
_cell_angle_beta     90.01937526052805
_cell_angle_gamma    120.04231039131612

_space_group_name_H-M_alt    "P 1"
_space_group_IT_number       1

loop_
  _space_group_symop_operation_xyz
  'x, y, z'

loop_
  _atom_site_type_symbol
  _atom_site_label
  _atom_site_symmetry_multiplicity
  _atom_site_fract_x
  _atom_site_fract_y
  _atom_site_fract_z
  _atom_site_occupancy
  Ni  Ni1       1.0  0.9999482559899558  0.9717827528400418  0.16683131619588207  1.0000
  Ni  Ni2       1.0  0.028447305214868397  0.028445211067044295  0.5000016502764808  1.0000
  Ni  Ni3       1.0  0.9717831924178735  0.9999459428444833  0.8331710304022406  1.0000
  H   H1        1.0  0.7462149102291062  0.6466142972099643  0.3000576625541952  1.0000
  H   H2        1.0  0.35348510162328484  0.09946855210660024  0.633732169481888  1.0000
  H   H3        1.0  0.9004560124243073  0.2537552229870173  0.966470439253811  1.0000
  H   H4        1.0  0.6466166513082995  0.7462193688221603  0.699947302348633  1.0000
  H   H5        1.0  0.09947640067753843  0.3534949070524434  0.366286144288189  1.0000
  H   H6        1.0  0.2537719507194963  0.9004783581818571  0.03353513988661659  1.0000
  H   H7        1.0  0.47892997289714867  0.3919212498506326  0.2015044876913308  1.0000
  H   H8        1.0  0.6080065627082901  0.08679172406995399  0.5352217949103064  1.0000
  H   H9        1.0  0.9128854777470251  0.5207929510538705  0.8678911246725959  1.0000
  H   H10       1.0  0.3919317356879404  0.4789382034653045  0.7984759086291575  1.0000
  H   H11       1.0  0.08680138709913636  0.6080030874639846  0.4647900295090109  1.0000
  H   H12       1.0  0.5208081863198473  0.912912942029159  0.1321091575080828  1.0000
  C   C1        1.0  0.7325884171394319  0.7325855230291011  1.1987093983999813e-06  1.0000
  C   C2        1.0  0.2676605563644116  0.0002695178538089216  0.3336025635686113  1.0000
  C   C3        1.0  0.000256731524501691  0.2676504593779043  0.666409790341099  1.0000
  C   C4        1.0  0.5224229019171529  0.47391549971529645  0.11448023685927207  1.0000
  C   C5        1.0  0.5259787130298648  0.048243490284349315  0.4482187399977277  1.0000
  C   C6        1.0  0.951382073805405  0.47740823993007075  0.7808462320759729  1.0000
  C   C7        1.0  0.473923814893375  0.522411752530317  0.8855038195299085  1.0000
  C   C8        1.0  0.04822871319491651  0.5259692709655397  0.5517982944301139  1.0000
  C   C9        1.0  0.4774256510054328  0.9514155879424421  0.2191618820145606  1.0000
  C   C10       1.0  0.25582438560691384  0.2558168433485547  0.9999916541369557  1.0000
  C   C11       1.0  0.7439411710442554  0.9997679402096435  0.3337487330636151  1.0000
  C   C12       1.0  0.9997612911906867  0.7439378109563249  0.6662591998259514  1.0000
  C   C13       1.0  0.678525217363507  0.6266764548140028  0.11252736745418447  1.0000
  C   C14       1.0  0.3734338774409877  0.05182697498809565  0.4462124970972852  1.0000
  C   C15       1.0  0.9483022560210084  0.32151984159221286  0.778918136421467  1.0000
  C   C16       1.0  0.6266763911674004  0.6785224636507718  0.887471207127845  1.0000
  C   C17       1.0  0.0518221129463114  0.37342979767144163  0.5537997649719059  1.0000
  C   C18       1.0  0.3215345186105124  0.9483233795645204  0.22108907936638636  1.0000
  C   C19       1.0  0.4211786480751555  0.4211640247117926  0.9999916083765822  1.0000
  C   C20       1.0  0.5786349761571683  0.9997391492855808  0.33371992683397167  1.0000
  C   C21       1.0  0.9997157528433434  0.5786258057493043  0.666290998831542  1.0000
  O   O1        1.0  0.7981655337042994  0.6878073166794962  0.21389508768615428  1.0000
  O   O2        1.0  0.31243949653202197  0.11033052116691515  0.5475348183868289  1.0000
  O   O3        1.0  0.8900751247669659  0.20194793678710707  0.8803245444080045  1.0000
  O   O4        1.0  0.6877999760776559  0.7981753571613551  0.7861084371612959  1.0000
  O   O5        1.0  0.11034963002474997  0.31244782633716983  0.4524803788647843  1.0000
  O   O6        1.0  0.20195422346176892  0.8900898466829119  0.11967969983610519  1.0000
  O   O7        1.0  0.1712101911392949  0.21225494361110012  0.10788002996611819  1.0000
  O   O8        1.0  0.7878157163836406  0.9592873974022921  0.4417545201831599  1.0000
  O   O9        1.0  0.04036255268913891  0.8282765069520295  0.7742814266507236  1.0000
  O   O10       1.0  0.21224926006713926  0.1711964617404149  0.8921093990127673  1.0000
  O   O11       1.0  0.9592879554884062  0.7878144093781712  0.5582465550843095  1.0000
  O   O12       1.0  0.828281214702123  0.04036372224858532  0.2257225375913237  1.0000
  O   O13       1.0  0.8805326897104777  0.8805317814066741  4.98321260519997e-06  1.0000
  O   O14       1.0  0.12000888937117787  0.0007004537280649928  0.333435746467451  1.0000
  O   O15       1.0  0.0006957551916926157  0.12000360512792703  0.6665757747954402  1.0000
