data_image0
_chemical_formula_structural       NiH20C20N2O6
_chemical_formula_sum              "Ni1 H20 C20 N2 O6"
_cell_length_a       5.5698046783187
_cell_length_b       7.896455968577719
_cell_length_c       11.43328926359016
_cell_angle_alpha    114.4381898327037
_cell_angle_beta     91.81540812587794
_cell_angle_gamma    103.030325892102

_space_group_name_H-M_alt    "P 1"
_space_group_IT_number       1

loop_
  _space_group_symop_operation_xyz
  'x, y, z'

loop_
  _atom_site_type_symbol
  _atom_site_label
  _atom_site_symmetry_multiplicity
  _atom_site_fract_x
  _atom_site_fract_y
  _atom_site_fract_z
  _atom_site_occupancy
  Ni  Ni1       1.0  0.9999796675698249  0.5000183746691391  0.5000092090821722  1.0000
  H   H1        1.0  0.8634438624202616  0.24488491228022724  0.5671658688902637  1.0000
  H   H2        1.0  0.13655419169306526  0.7551479015742614  0.4328505953919757  1.0000
  H   H3        1.0  0.6114334411932775  0.31870027393178196  0.553007358477842  1.0000
  H   H4        1.0  0.38857307761781346  0.6813299379085506  0.4470070630053299  1.0000
  H   H5        1.0  0.43750133194748025  0.8438110104455491  0.29971488936333657  1.0000
  H   H6        1.0  0.5624855709486097  0.1561687172882742  0.7002574744787464  1.0000
  H   H7        1.0  0.7196298694137295  0.9528236986110984  0.25963389283564436  1.0000
  H   H8        1.0  0.2803975865852664  0.04717810836707769  0.7403583278976665  1.0000
  H   H9        1.0  0.16723217102111224  0.5535436576558583  0.14015538712108366  1.0000
  H   H10       1.0  0.8328177930963322  0.44643226071423925  0.8598372733863894  1.0000
  H   H11       1.0  0.07363824799880092  0.2852735271869591  0.9179011839005465  1.0000
  H   H12       1.0  0.9264213063600976  0.7147001216549568  0.08209570781028219  1.0000
  H   H13       1.0  0.3024429866262537  0.2426215464745525  0.3765084230437096  1.0000
  H   H14       1.0  0.6975402459656551  0.7574092284814925  0.6235059589003311  1.0000
  H   H15       1.0  0.3121312153468736  0.010309836219434492  0.15266357089014795  1.0000
  H   H16       1.0  0.6878473008216447  0.9897068085788306  0.847353062489965  1.0000
  H   H17       1.0  0.6874863569244667  0.17272463948769004  0.031127457826087775  1.0000
  H   H18       1.0  0.3124813012938077  0.8272491232327044  0.9688828031312152  1.0000
  H   H19       1.0  0.7072536857561147  0.3981456896860821  0.260621730853252  1.0000
  H   H20       1.0  0.2927149137498474  0.6018541681496004  0.7393743113553624  1.0000
  C   C1        1.0  0.7663604021077859  0.7689306893307731  0.3479606385842401  1.0000
  C   C2        1.0  0.23364973544531864  0.2310636589295427  0.6520358678647324  1.0000
  C   C3        1.0  0.6103750389595319  0.8194996990867056  0.26075441044118003  1.0000
  C   C4        1.0  0.38964504679741196  0.1804858735248871  0.7392271215709056  1.0000
  C   C5        1.0  0.5525848481179736  0.6559685962054757  0.1257413351209563  1.0000
  C   C6        1.0  0.4474804118351939  0.34400599562680867  0.8742411593500347  1.0000
  C   C7        1.0  0.3135585750552679  0.5304392233902747  0.07858253948029406  1.0000
  C   C8        1.0  0.6864841083107153  0.46951883408308964  0.9213946308958963  1.0000
  C   C9        1.0  0.2619165713909908  0.37820299038654787  0.9545956236561747  1.0000
  C   C10       1.0  0.7381395926559193  0.6217808845067623  0.045381853777413994  1.0000
  C   C11       1.0  0.17419909838653075  0.22422773839937096  0.295675070336216  1.0000
  C   C12       1.0  0.8257771688079245  0.7757954422530704  0.7043326384626096  1.0000
  C   C13       1.0  0.1748030755160954  0.09327442629160031  0.16915519088648515  1.0000
  C   C14       1.0  0.8251494137378045  0.9067222905367345  0.8308463134951578  1.0000
  C   C15       1.0  0.0011260486703222005  0.0685031128854163  0.06790638392954658  1.0000
  C   C16       1.0  0.9988382550510765  0.9314872321722804  0.9321001409846797  1.0000
  C   C17       1.0  0.828550256915463  0.18021466923530483  0.10249237577222906  1.0000
  C   C18       1.0  0.17140296199130486  0.8197753290874985  0.8975153065943712  1.0000
  C   C19       1.0  0.8373446989113377  0.3087739993557862  0.23056552868091268  1.0000
  C   C20       1.0  0.16262773574577952  0.6912275131847923  0.7694328714667544  1.0000
  N   N1        1.0  0.00874098986957253  0.3315281768142172  0.32580042929556186  1.0000
  N   N2        1.0  0.9912452502767407  0.6684837945777817  0.6742004403184436  1.0000
  O   O1        1.0  0.6547320392503692  0.6750004756337801  0.40718429687206015  1.0000
  O   O2        1.0  0.3452487658867796  0.3250128740035976  0.5928201891751568  1.0000
  O   O3        1.0  0.0009037146446431074  0.813724647008428  0.34939777162743707  1.0000
  O   O4        1.0  0.9991131956438081  0.18629177212510237  0.6506144185168947  1.0000
  O   O5        1.0  0.7651046005833351  0.28992747396986124  0.5101826223558772  1.0000
  O   O6        1.0  0.23489777878969426  0.710099606470074  0.48982816718425676  1.0000
