data_image0
_chemical_formula_structural       V8Co2H32C48N8O23
_chemical_formula_sum              "V8 Co2 H32 C48 N8 O23"
_cell_length_a       8.87313485443917
_cell_length_b       11.899689393220235
_cell_length_c       13.06
_cell_angle_alpha    97.07996036760697
_cell_angle_beta     96.33759411948067
_cell_angle_gamma    102.95205129312019

_space_group_name_H-M_alt    "P 1"
_space_group_IT_number       1

loop_
  _space_group_symop_operation_xyz
  'x, y, z'

loop_
  _atom_site_type_symbol
  _atom_site_label
  _atom_site_symmetry_multiplicity
  _atom_site_fract_x
  _atom_site_fract_y
  _atom_site_fract_z
  _atom_site_occupancy
  V   V1        1.0  0.3833712829616758  0.5987111891905954  0.8679559968890018  1.0000
  V   V2        1.0  0.6166245457312485  0.4012889909020458  0.13204547159897828  1.0000
  V   V3        1.0  0.5339906663586972  0.6683836583007832  0.13064019397783258  1.0000
  V   V4        1.0  0.46600516233421974  0.3316165217918581  0.8693589774197931  1.0000
  V   V5        1.0  0.3902425717718927  0.8516506096716796  0.4895887468447525  1.0000
  V   V6        1.0  0.6097611944109572  0.1483495704209687  0.5104117855456067  1.0000
  V   V7        1.0  0.5810392590843705  0.7071960662025916  0.6696002709337705  1.0000
  V   V8        1.0  0.418958844883491  0.2928006237225347  0.33039867914551013  1.0000
  Co  Co1       1.0  0.23261953361719626  0.7468906139449842  0.23927037004184365  1.0000
  Co  Co2       1.0  0.7673799784837384  0.2531104386895393  0.7607299412906982  1.0000
  H   H1        1.0  0.9513781240386477  0.5482835037835301  0.11942737523318667  1.0000
  H   H2        1.0  0.048621106435668096  0.4517166763091184  0.8805728169880638  1.0000
  H   H3        1.0  0.7765647151663373  0.5366045307210356  0.9557884311165026  1.0000
  H   H4        1.0  0.22343451530797856  0.4633956493716057  0.0442132924983127  1.0000
  H   H5        1.0  0.8167291608127415  0.7054492373590266  0.8528797560911769  1.0000
  H   H6        1.0  0.18327092196209796  0.2945500701917396  0.1471211677578381  1.0000
  H   H7        1.0  0.4609656507409807  0.1519139040003665  0.04548654837199708  1.0000
  H   H8        1.0  0.5390347136604701  0.8480862760922747  0.9545137288915271  1.0000
  H   H9        1.0  0.6175722204566937  0.12543138540345922  0.20865044152263573  1.0000
  H   H10       1.0  0.38242984854579726  0.8745670496054245  0.7913474705125052  1.0000
  H   H11       1.0  0.5231368922917738  0.9500270890050047  0.2949298059407539  1.0000
  H   H12       1.0  0.4768631904830654  0.04997221854575431  0.7050695865146892  1.0000
  H   H13       1.0  0.1785753600050199  0.9998518479730621  0.2826762350089851  1.0000
  H   H14       1.0  0.8214204686879043  0.0001483321195863  0.7173221706918653  1.0000
  H   H15       1.0  0.9720207755636777  0.07252655359934582  0.3632858327332683  1.0000
  H   H16       1.0  0.027976468682993454  0.9274744990351778  0.6367135428179295  1.0000
  H   H17       1.0  0.7593925252688292  0.935260190229542  0.4259786422237893  1.0000
  H   H18       1.0  0.2406052896517464  0.0647391173212242  0.5740228772374465  1.0000
  H   H19       1.0  0.8464962431459853  0.3699542669110017  0.4033054299418524  1.0000
  H   H20       1.0  0.15350553680922013  0.6300467857235219  0.5966958171720335  1.0000
  H   H21       1.0  0.08840111149348218  0.3375201401512768  0.33239844311771083  1.0000
  H   H22       1.0  0.9116003868350973  0.6624800399413645  0.6676026848848763  1.0000
  H   H23       1.0  0.2588296736533948  0.49890548625798203  0.26315437400506875  1.0000
  H   H24       1.0  0.7411723879284224  0.5010964389184167  0.7368477579168909  1.0000
  H   H25       1.0  0.6738797276970274  0.5200471760080134  0.4454621091070691  1.0000
  H   H26       1.0  0.32612063670442376  0.4799530040846279  0.5545396995500269  1.0000
  H   H27       1.0  0.642250348788181  0.7187947654121345  0.44988712816358856  1.0000
  H   H28       1.0  0.3577500156132701  0.2812054146805139  0.550113914796718  1.0000
  H   H29       1.0  0.2221779065954692  0.0647077058135466  0.9015339634928524  1.0000
  H   H30       1.0  0.7778213238788467  0.9352924742791018  0.09846546303160858  1.0000
  H   H31       1.0  0.9880604593297021  0.9010390976997797  0.8331985959806829  1.0000
  H   H32       1.0  0.011939623445137196  0.09896020985098633  0.1668000307779778  1.0000
  C   C1        1.0  0.970053681102186  0.6201198767558722  0.07451802152856854  1.0000
  C   C2        1.0  0.029945830998748577  0.3798811758786513  0.9254830555007628  1.0000
  C   C3        1.0  0.8704647735976963  0.6148130770423066  0.9815863086377449  1.0000
  C   C4        1.0  0.12953473850323147  0.385187975592217  0.01841476839158669  1.0000
  C   C5        1.0  0.8929794445710825  0.7060198797484817  0.9244825221975645  1.0000
  C   C6        1.0  0.10701950427662149  0.2939794278022774  0.0755175509123873  1.0000
  C   C7        1.0  0.02042122415554813  0.803158222154231  0.9592967371976824  1.0000
  C   C8        1.0  0.9795799925464195  0.19684108539652811  0.040702740300041305  1.0000
  C   C9        1.0  0.1148046689543278  0.8014785790354183  0.053054211632947094  1.0000
  C   C10       1.0  0.8851934275928527  0.1985216010572231  0.9469458955460225  1.0000
  C   C11       1.0  0.24684656591264792  0.8941189680502719  0.09257000370838138  1.0000
  C   C12       1.0  0.7531540801154151  0.1058820845842519  0.9074296269696589  1.0000
  C   C13       1.0  0.287641130423161  0.9899275566310524  0.0388509086284614  1.0000
  C   C14       1.0  0.7123598046521947  0.0100708783778316  0.961146918364399  1.0000
  C   C15       1.0  0.4246402855310336  0.0755202447892955  0.08316912950535738  1.0000
  C   C16       1.0  0.575360931170934  0.9244790627614706  0.9168303479923663  1.0000
  C   C17       1.0  0.5109786924166072  0.061091892263228004  0.17358753063918184  1.0000
  C   C18       1.0  0.48902252428536724  0.9389074152875311  0.82641041546497  1.0000
  C   C19       1.0  0.4606227266696975  0.9635855172768046  0.22281686549244026  1.0000
  C   C20       1.0  0.5393776377317536  0.0364146628158366  0.7771826460743014  1.0000
  C   C21       1.0  0.08572988134520895  0.9389632579678491  0.30961387991319356  1.0000
  C   C22       1.0  0.9142682152019785  0.06103692212479932  0.6903846958722113  1.0000
  C   C23       1.0  0.9679486494622861  0.9796621014140073  0.35525192674917605  1.0000
  C   C24       1.0  0.032048313157766  0.0203380786786411  0.6447473296907305  1.0000
  C   C25       1.0  0.8503720323467332  0.9031288355021446  0.3905747645194921  1.0000
  C   C26       1.0  0.14962861368132954  0.096872217132379  0.6094248661585411  1.0000
  C   C27       1.0  0.8523851396571658  0.7841498973005657  0.38291677725899115  1.0000
  C   C28       1.0  0.1476140908171502  0.2158502827920827  0.6170841806590416  1.0000
  C   C29       1.0  0.9762570449939074  0.750815307320778  0.33786454404037863  1.0000
  C   C30       1.0  0.02374360103415538  0.2491857453137456  0.6621350866376544  1.0000
  C   C31       1.0  0.9940667486505959  0.6352366648251788  0.3341023861610707  1.0000
  C   C32       1.0  0.005933045076950785  0.364765260351227  0.6658980442827698  1.0000
  C   C33       1.0  0.8892203908225014  0.5503304870337757  0.37498100495999853  1.0000
  C   C34       1.0  0.11077912127842637  0.4496705656007478  0.6250193063725433  1.0000
  C   C35       1.0  0.9232310769616561  0.4394190710537771  0.3729603333675939  1.0000
  C   C36       1.0  0.07677126624677295  0.5605837266645111  0.6270396205753173  1.0000
  C   C37       1.0  0.05544326638935358  0.4205704213641255  0.3335215351181943  1.0000
  C   C38       1.0  0.9445562457115811  0.5794306312703981  0.6664780105175651  1.0000
  C   C39       1.0  0.1529586840471779  0.5100574440250157  0.2933081697257265  1.0000
  C   C40       1.0  0.847042243607504  0.4899444811513902  0.7066931114571702  1.0000
  C   C41       1.0  0.7597461066357738  0.5838980456954986  0.415723460857123  1.0000
  C   C42       1.0  0.24025595494604346  0.4161038794809073  0.5842786710648369  1.0000
  C   C43       1.0  0.7419994610072321  0.6956846211810443  0.4188102726972431  1.0000
  C   C44       1.0  0.258000903394219  0.304315558911604  0.5811915359598528  1.0000
  C   C45       1.0  0.19007821438513148  0.9911787816868342  0.943815289823135  1.0000
  C   C46       1.0  0.8099221500163194  0.008821398405814302  0.05618422174360658  1.0000
  C   C47       1.0  0.06206565688020756  0.9013715361560203  0.905769786692204  1.0000
  C   C48       1.0  0.9379344258946246  0.09862777139473883  0.09423037146002136  1.0000
  N   N1        1.0  0.08864904868097061  0.7123623866734904  0.10990072854942669  1.0000
  N   N2        1.0  0.9113504634199642  0.2876386659610333  0.8901003484799047  1.0000
  N   N3        1.0  0.33014751402544107  0.8830010394165628  0.1831882708769825  1.0000
  N   N4        1.0  0.6698519980754936  0.11700001321796091  0.8168120404555594  1.0000
  N   N5        1.0  0.08835229807259273  0.826333807026316  0.3001932223503799  1.0000
  N   N6        1.0  0.9116483479554773  0.1736672456082076  0.6998071740244427  1.0000
  N   N7        1.0  0.12089086379500454  0.6139579860000026  0.2926267138172349  1.0000
  N   N8        1.0  0.8791100638596773  0.3860439391763962  0.7073745673656616  1.0000
  O   O1        1.0  0.21951146240255776  0.8486953103244446  0.5252211214494408  1.0000
  O   O2        1.0  0.7804937119133655  0.151309232477594  0.4747784751038252  1.0000
  O   O3        1.0  0.4567297912925454  0.6771361258980804  0.7730760385110144  1.0000
  O   O4        1.0  0.5432674603747925  0.3228614365689211  0.22692217994050165  1.0000
  O   O5        1.0  0.4907706258367097  0.7787061085118552  0.5737486027226595  1.0000
  O   O6        1.0  0.509231443165781  0.2212923264970286  0.4262516064028289  1.0000
  O   O7        1.0  0.5979610738524668  0.581228940084877  0.6141270610838204  1.0000
  O   O8        1.0  0.4020330650807579  0.4187660047564918  0.3858698642524629  1.0000
  O   O9        1.0  0.20896819199294464  0.6148418709243444  0.8778936232548418  1.0000
  O   O10       1.0  0.7910330172883562  0.38516092679393676  0.12210777703935348  1.0000
  O   O11       1.0  0.755996770216832  0.7888293394024828  0.7204300532534658  1.0000
  O   O12       1.0  0.24400474295310193  0.21116386035512852  0.2795687605497434  1.0000
  O   O13       1.0  0.6511791019670098  0.7946936933773048  0.1741348773480809  1.0000
  O   O14       1.0  0.34882267798818833  0.205307359257219  0.8258663697658051  1.0000
  O   O15       1.0  0.5032763589918473  0.6550067187400046  0.9898198512824832  1.0000
  O   O16       1.0  0.4967242870362154  0.3449943338945189  0.010179779395556875  1.0000
  O   O17       1.0  0.6227685809717514  0.5517553479236598  0.16265843281543368  1.0000
  O   O18       1.0  0.3772297972020482  0.448245704710864  0.8373440905651889  1.0000
  O   O19       1.0  0.35931394848905274  0.6577465002428938  0.1753275824714464  1.0000
  O   O20       1.0  0.6406855636118819  0.3422545523916298  0.8246719631643131  1.0000
  O   O21       1.0  0.37622170564414853  0.79025158266672  0.36168933249953733  1.0000
  O   O22       1.0  0.6237789403839216  0.20974946996780372  0.6383102981785029  1.0000
  O   O23       1.0  0.5000071049429734  0.9999984350088837  0.5000008165200355  1.0000
