data_image0
_chemical_formula_structural       Mn4H56C32N8O24
_chemical_formula_sum              "Mn4 H56 C32 N8 O24"
_cell_length_a       8.000672346004738
_cell_length_b       10.14811498403677
_cell_length_c       14.92216716605907
_cell_angle_alpha    89.99969799779072
_cell_angle_beta     90.00009222035308
_cell_angle_gamma    89.99991295320008

_space_group_name_H-M_alt    "P 1"
_space_group_IT_number       1

loop_
  _space_group_symop_operation_xyz
  'x, y, z'

loop_
  _atom_site_type_symbol
  _atom_site_label
  _atom_site_symmetry_multiplicity
  _atom_site_fract_x
  _atom_site_fract_y
  _atom_site_fract_z
  _atom_site_occupancy
  Mn  Mn1       1.0  0.16146023167025453  0.7499982974337557  0.4999991803133739  1.0000
  Mn  Mn2       1.0  0.3385403555941338  0.24999892387617  0.9999998923130491  1.0000
  Mn  Mn3       1.0  0.8385400596845543  0.24999863036649117  0.5000016816312893  1.0000
  Mn  Mn4       1.0  0.6614611856536501  0.7499989893306562  2.9948645870000026e-07  1.0000
  H   H1        1.0  0.47428244880160975  0.8803112790666178  0.42467356224720026  1.0000
  H   H2        1.0  0.0257150888470861  0.3803156377274136  0.0753255328731797  1.0000
  H   H3        1.0  0.4742841831994583  0.6196878974812423  0.5753250597917301  1.0000
  H   H4        1.0  0.025716655287737904  0.11968358159084865  0.9246744705577754  1.0000
  H   H5        1.0  0.5257178425493123  0.11968860495031923  0.5753266295483286  1.0000
  H   H6        1.0  0.9742827027128912  0.6196842462936659  0.92467398877735  1.0000
  H   H7        1.0  0.5257173580443465  0.3803119865402423  0.4246737917164225  1.0000
  H   H8        1.0  0.9742811362722392  0.8803163024302308  0.0753250510927543  1.0000
  H   H9        1.0  0.7011594661886918  0.952315892979407  0.3628648140817036  1.0000
  H   H10       1.0  0.7988363895364898  0.4523154943171052  0.13713779668515258  1.0000
  H   H11       1.0  0.7011602809255706  0.5476849827426734  0.6371346676920099  1.0000
  H   H12       1.0  0.7988354035583001  0.047684770179763816  0.8628621826728562  1.0000
  H   H13       1.0  0.2988395752644238  0.047686947252323406  0.6371353777081055  1.0000
  H   H14       1.0  0.20116265191948204  0.547684389700578  0.8628623951098504  1.0000
  H   H15       1.0  0.2988400104233619  0.45231588668159617  0.36286485395783785  1.0000
  H   H16       1.0  0.2011623879997799  0.9523170846506802  0.13713733897421324  1.0000
  H   H17       1.0  0.7297831918335903  0.8948889062858499  0.2504529708231686  1.0000
  H   H18       1.0  0.7702265234474197  0.39489060930733905  0.2495518520894819  1.0000
  H   H19       1.0  0.7297854938949231  0.6051119351623555  0.7495472050151477  1.0000
  H   H20       1.0  0.7702250786190632  0.10510870403886946  0.7504481033616058  1.0000
  H   H21       1.0  0.2702158496195323  0.10511393394587291  0.7495472209666404  1.0000
  H   H22       1.0  0.22977376790255025  0.6051102601142804  0.750448339704306  1.0000
  H   H23       1.0  0.27021604735198684  0.3948879488511849  0.2504536569248472  1.0000
  H   H24       1.0  0.22977521272986934  0.8948921653854003  0.2495514182882346  1.0000
  H   H25       1.0  0.852230605426904  0.8261239854444895  0.33968213913162504  1.0000
  H   H26       1.0  0.647766743476929  0.3261265405511794  0.1603262760303679  1.0000
  H   H27       1.0  0.8522312486831042  0.673876709404752  0.6603174688878752  1.0000
  H   H28       1.0  0.647767942200993  0.17387489022021899  0.839673577082209  1.0000
  H   H29       1.0  0.14776843602518144  0.1738788547898835  0.6603173825142363  1.0000
  H   H30       1.0  0.3522310480831339  0.6738743288719321  0.8396739157623827  1.0000
  H   H31       1.0  0.14776779277087826  0.3261241600202639  0.3396820527614466  1.0000
  H   H32       1.0  0.35223109925203744  0.826126964609472  0.1603259445653862  1.0000
  H   H33       1.0  0.7284774485107661  0.5870600540799629  0.3151498776725391  1.0000
  H   H34       1.0  0.7715241109454497  0.08705931087152413  0.1848506653359578  1.0000
  H   H35       1.0  0.7284752070763858  0.9129407889369435  0.6848496269287595  1.0000
  H   H36       1.0  0.7715247728360952  0.4129409863245357  0.8151492911986438  1.0000
  H   H37       1.0  0.2715240927291518  0.41294278615821184  0.6848483036864722  1.0000
  H   H38       1.0  0.22847493051052237  0.9129405731461588  0.8151495264590454  1.0000
  H   H39       1.0  0.2715238343816608  0.08705909507543912  0.3151519051541385  1.0000
  H   H40       1.0  0.22847426861797263  0.5870608685025119  0.18485090059289896  1.0000
  H   H41       1.0  0.647180302970483  0.6636215130343646  0.2155703396065434  1.0000
  H   H42       1.0  0.8528248585748416  0.16361791435618764  0.2844299344869228  1.0000
  H   H43       1.0  0.6471785175317494  0.8363784419122241  0.7844290970589612  1.0000
  H   H44       1.0  0.8528253596622974  0.336382285501017  0.715570089988333  1.0000
  H   H45       1.0  0.35281998837551504  0.336381327201913  0.7844285118958964  1.0000
  H   H46       1.0  0.1471729329852209  0.8363829550669236  0.7155702573058207  1.0000
  H   H47       1.0  0.3528192740312548  0.16362045669887956  0.2155717648811972  1.0000
  H   H48       1.0  0.14717493168767254  0.663618583920595  0.28443010180546213  1.0000
  H   H49       1.0  0.5083709143904757  0.5841346097375963  0.29228514952001217  1.0000
  H   H50       1.0  0.9916306506988735  0.08413539304568472  0.20771205304166782  1.0000
  H   H51       1.0  0.5083687381284676  0.9158645259995098  0.7077135010040436  1.0000
  H   H52       1.0  0.9916324860466902  0.41586464062271483  0.7922880874302011  1.0000
  H   H53       1.0  0.49162937695543724  0.4158672450966492  0.707713031840207  1.0000
  H   H54       1.0  0.008369640651956401  0.9158635055692204  0.7922874686116401  1.0000
  H   H55       1.0  0.4916278035395792  0.08413437261233984  0.2922873609355889  1.0000
  H   H56       1.0  0.008367805304317199  0.584136228796254  0.2077127745075344  1.0000
  C   C1        1.0  0.04750794474911402  0.0200452401055529  0.4564015196401314  1.0000
  C   C2        1.0  0.45249528702518665  0.5200399788841069  0.0435988409312813  1.0000
  C   C3        1.0  0.047507636462690114  0.4799549385133376  0.5436018527197248  1.0000
  C   C4        1.0  0.4524975070637325  0.9799582383438976  0.9563997629026701  1.0000
  C   C5        1.0  0.952488596923942  0.9799516876889882  0.5436013527348039  1.0000
  C   C6        1.0  0.547506254221979  0.47995103650851006  0.9563966598727163  1.0000
  C   C7        1.0  0.9524926548901291  0.5200429746942419  0.4563983390792572  1.0000
  C   C8        1.0  0.5475115335502423  0.020046572683256204  0.043602439319698795  1.0000
  C   C9        1.0  0.4757148708984148  0.7831298139498416  0.3916115117590948  1.0000
  C   C10       1.0  0.024285353892899802  0.28313095670641536  0.1083872545732731  1.0000
  C   C11       1.0  0.47571527044402734  0.7168693608838198  0.6083871114763114  1.0000
  C   C12       1.0  0.024285380693399403  0.21686629351254552  0.8916134178096655  1.0000
  C   C13       1.0  0.5242854204525074  0.21687007006709538  0.6083886800364269  1.0000
  C   C14       1.0  0.9757149374577594  0.716865971104433  0.8916109267956003  1.0000
  C   C15       1.0  0.5242862708016817  0.2831285523283072  0.3916117400353016  1.0000
  C   C16       1.0  0.9757149106596827  0.783134575901123  0.1083887844159719  1.0000
  C   C17       1.0  0.7290496414397794  0.8657571076871806  0.3214018314749652  1.0000
  C   C18       1.0  0.770951380735568  0.3657603561992033  0.1786024236126167  1.0000
  C   C19       1.0  0.729050417716792  0.6342427492381691  0.6785976736074844  1.0000
  C   C20       1.0  0.7709513493734976  0.13423994168033465  0.8213982025870266  1.0000
  C   C21       1.0  0.2709506499082011  0.13424474714177145  0.6785976901731487  1.0000
  C   C22       1.0  0.22904766072144161  0.6342395278158295  0.8213984383263337  1.0000
  C   C23       1.0  0.2709511235280431  0.3657571347806653  0.3214018480446086  1.0000
  C   C24       1.0  0.22904769208152234  0.8657609277420307  0.1786019892062427  1.0000
  C   C25       1.0  0.6230637102275978  0.6420497537729801  0.28635901280750886  1.0000
  C   C26       1.0  0.8769389931113382  0.1420486567241426  0.21364066690723152  1.0000
  C   C27       1.0  0.6230616639681731  0.8579512154551665  0.7136397335586581  1.0000
  C   C28       1.0  0.8769409217464459  0.3579515142584314  0.7863600478640649  1.0000
  C   C29       1.0  0.37693658111632544  0.357953086468598  0.7136384984070361  1.0000
  C   C30       1.0  0.12305879844872442  0.8579522126989689  0.786359524885512  1.0000
  C   C31       1.0  0.37693612759483136  0.14204768315593705  0.28636112838150035  1.0000
  C   C32       1.0  0.12306061949951902  0.6420493551597845  0.2136408140741963  1.0000
  N   N1        1.0  0.6021341762944559  0.7650556685797127  0.3352142921900736  1.0000
  N   N2        1.0  0.8978657901173079  0.2650578889586513  0.16478629574823597  1.0000
  N   N3        1.0  0.6021334657630109  0.7349433548965723  0.6647844366898852  1.0000
  N   N4        1.0  0.8978656074059118  0.2349422569701645  0.8352144365101069  1.0000
  N   N5        1.0  0.3978661150534394  0.234945200847207  0.6647845593158196  1.0000
  N   N6        1.0  0.10213325133771183  0.734942980463714  0.8352138960450333  1.0000
  N   N7        1.0  0.3978643257959292  0.2650565291271576  0.3352144148166971  1.0000
  N   N8        1.0  0.1021334340501454  0.7650586124495578  0.1647864254271099  1.0000
  O   O1        1.0  0.14551502384285436  0.9351108227316165  0.4228558982514272  1.0000
  O   O2        1.0  0.3544836580639341  0.43510787556344616  0.0771436745432226  1.0000
  O   O3        1.0  0.14551686951797654  0.5648887474289523  0.5771451296217336  1.0000
  O   O4        1.0  0.3544828247151841  0.0648899647294812  0.9228559334870781  1.0000
  O   O5        1.0  0.8544802679352514  0.06488610506367114  0.5771469741229893  1.0000
  O   O6        1.0  0.6455153833895155  0.5648870814493777  0.9228518262528027  1.0000
  O   O7        1.0  0.854480922046058  0.4351101511795081  0.4228564024623651  1.0000
  O   O8        1.0  0.6455187165338075  0.9351099192787587  0.0771462687408118  1.0000
  O   O9        1.0  0.0192789093213435  0.13422421936419945  0.4255230846802008  1.0000
  O   O10       1.0  0.4807353513985575  0.6342137531632661  0.0744802255718895  1.0000
  O   O11       1.0  0.0192764169948347  0.3657769784531625  0.5744816043747036  1.0000
  O   O12       1.0  0.48073394622341686  0.8657824594465641  0.9255184018634282  1.0000
  O   O13       1.0  0.9807226319316201  0.8657736938293822  0.5744804578390444  1.0000
  O   O14       1.0  0.5192711894282456  0.36577529142228843  0.9255139349497625  1.0000
  O   O15       1.0  0.9807288739356466  0.6342199493546873  0.4255165769962588  1.0000
  O   O16       1.0  0.5192813438584096  0.13422629320351834  0.0744817899227854  1.0000
  O   O17       1.0  0.36401311497548516  0.6982933731060258  0.4074424245360575  1.0000
  O   O18       1.0  0.135984773576439  0.19829647809973497  0.0925573099232011  1.0000
  O   O19       1.0  0.3640133019407017  0.8017059354675741  0.5925554352093273  1.0000
  O   O20       1.0  0.1359821860655259  0.3017026091904854  0.9074447960871126  1.0000
  O   O21       1.0  0.635990926064274  0.3017045400940078  0.5925591075523897  1.0000
  O   O22       1.0  0.8640130179833605  0.8017014351172875  0.9074408714429014  1.0000
  O   O23       1.0  0.6359844896133141  0.1982969047754963  0.40744207600417337  1.0000
  O   O24       1.0  0.8640143556047734  0.6982982602201275  0.09255874642484942  1.0000
