data_image0
_chemical_formula_structural       Zn8H20C20N52O4
_chemical_formula_sum              "Zn8 H20 C20 N52 O4"
_cell_length_a       10.944027618033498
_cell_length_b       11.11543918179217
_cell_length_c       11.91741556114109
_cell_angle_alpha    103.9723332790992
_cell_angle_beta     90.00009748128379
_cell_angle_gamma    90.00023764531178

_space_group_name_H-M_alt    "P 1"
_space_group_IT_number       1

loop_
  _space_group_symop_operation_xyz
  'x, y, z'

loop_
  _atom_site_type_symbol
  _atom_site_label
  _atom_site_symmetry_multiplicity
  _atom_site_fract_x
  _atom_site_fract_y
  _atom_site_fract_z
  _atom_site_occupancy
  Zn  Zn1       1.0  0.8777000271736952  0.49885314070442616  0.17148489475811599  1.0000
  Zn  Zn2       1.0  0.3777014443892952  0.5011444167027364  0.3285169828477663  1.0000
  Zn  Zn3       1.0  0.12229686665943973  0.5011474691813119  0.828516048379086  1.0000
  Zn  Zn4       1.0  0.6222972769173155  0.4988534200252132  0.6714824750336987  1.0000
  Zn  Zn5       1.0  0.16961147821265854  0.4904696583297437  0.1293774596404091  1.0000
  Zn  Zn6       1.0  0.669611401798882  0.5095306455874677  0.37062223446046255  1.0000
  Zn  Zn7       1.0  0.8303863293667606  0.50953278970119  0.8706255900451437  1.0000
  Zn  Zn8       1.0  0.3303854920202767  0.49046536096692245  0.629374279590145  1.0000
  H   H1        1.0  0.808219426543552  0.2376841483608345  0.021734170810688586  1.0000
  H   H2        1.0  0.3082194936504052  0.7623121688580311  0.4782656373927451  1.0000
  H   H3        1.0  0.19178020851841648  0.7623211286530633  0.9782645031659738  1.0000
  H   H4        1.0  0.6917801413942329  0.2376856917934518  0.5217313086458971  1.0000
  H   H5        1.0  0.8101112903977566  0.0421824796595018  0.8918654673184604  1.0000
  H   H6        1.0  0.31011147395437183  0.9578127938445817  0.6081337021526351  1.0000
  H   H7        1.0  0.1898892584004628  0.957819992299292  0.1081350705266217  1.0000
  H   H8        1.0  0.6898927297937618  0.04218505087013819  0.3918649184545515  1.0000
  H   H9        1.0  0.9763590191439064  0.937401781266352  0.7993738435809444  1.0000
  H   H10       1.0  0.4763601649068576  0.0625970847117401  0.7006238899523395  1.0000
  H   H11       1.0  0.023643357133678898  0.0625959597847938  0.2006356616812113  1.0000
  H   H12       1.0  0.5236431250985305  0.9374007839221856  0.29937221880967246  1.0000
  H   H13       1.0  0.18416708440694413  0.0379776327427948  0.8365594517077709  1.0000
  H   H14       1.0  0.6841694369571344  0.9620254354957113  0.6634363138230625  1.0000
  H   H15       1.0  0.815837119351599  0.9620191573460062  0.16345234940848027  1.0000
  H   H16       1.0  0.3158338530460867  0.037971506092915795  0.3365595789466979  1.0000
  H   H17       1.0  0.20025223061117006  0.2494804081930936  0.9692370100183607  1.0000
  H   H18       1.0  0.7002516072309959  0.7505190041213511  0.5307604447874253  1.0000
  H   H19       1.0  0.7997492319238617  0.7505164058105859  0.03077227925037105  1.0000
  H   H20       1.0  0.29974894154555193  0.24947419738441567  0.469237933135126  1.0000
  C   C1        1.0  0.007109466347394302  0.26365728149400514  0.009330713098648904  1.0000
  C   C2        1.0  0.5071105788561284  0.736343243588358  0.4906620804587831  1.0000
  C   C3        1.0  0.9928892549720275  0.7363470684724261  0.9906677448845825  1.0000
  C   C4        1.0  0.49289088366889905  0.2636565190007829  0.5093302738787243  1.0000
  C   C5        1.0  0.8948666159537809  0.20009605259739527  0.9844118905617448  1.0000
  C   C6        1.0  0.39486504080829127  0.7999024513156313  0.5155831213593913  1.0000
  C   C7        1.0  0.10513484657831643  0.7999036382276542  0.015587999307754839  1.0000
  C   C8        1.0  0.6051382492041882  0.20009914144708318  0.4844121768089663  1.0000
  C   C9        1.0  0.9911213691667273  0.0274754909004145  0.8576912830578249  1.0000
  C   C10       1.0  0.4911189392166548  0.9725234370156952  0.6423073257510622  1.0000
  C   C11       1.0  0.0088883170333389  0.9725213071751637  0.14231968078414775  1.0000
  C   C12       1.0  0.5088816095632468  0.0274725775211309  0.3576883510229223  1.0000
  C   C13       1.0  0.10398102463472723  0.08534951200766018  0.879590423430514  1.0000
  C   C14       1.0  0.6039794394645385  0.9146550384932794  0.6204047303963448  1.0000
  C   C15       1.0  0.8960250066158225  0.9146538072715341  0.12041870322719454  1.0000
  C   C16       1.0  0.39602385054361383  0.08534470017882259  0.37959013578750944  1.0000
  C   C17       1.0  0.11229729351014581  0.20215194891184754  0.953409174222152  1.0000
  C   C18       1.0  0.612300555497022  0.7978489168608931  0.5465868116110073  1.0000
  C   C19       1.0  0.8877050827768898  0.7978494923467141  0.04660203229034475  1.0000
  C   C20       1.0  0.3877009070297674  0.202149878814005  0.4534095131409116  1.0000
  N   N1        1.0  0.0284498612374193  0.6045133471874422  0.19869665640631243  1.0000
  N   N2        1.0  0.5284482560937462  0.39548628812935493  0.30130267433703745  1.0000
  N   N3        1.0  0.9715488600800273  0.3954891247670174  0.8013038814364106  1.0000
  N   N4        1.0  0.4715495514701261  0.6045115725178006  0.6986942716992528  1.0000
  N   N5        1.0  0.04122514310834191  0.7053261285549084  0.2659595648541567  1.0000
  N   N6        1.0  0.541224810316372  0.2946698670662328  0.23403809752456783  1.0000
  N   N7        1.0  0.9587708369792909  0.2946726352118532  0.7340401090160354  1.0000
  N   N8        1.0  0.4587720835025949  0.7053270904548227  0.7659561206742962  1.0000
  N   N9        1.0  0.05546513587368201  0.801242637435571  0.328432275881326  1.0000
  N   N10       1.0  0.5554661053337498  0.19875619082317547  0.1715677456927978  1.0000
  N   N11       1.0  0.9445290167398712  0.19875795649610234  0.6715703418150126  1.0000
  N   N12       1.0  0.4445353571936367  0.8012435478446063  0.8284271204887047  1.0000
  N   N13       1.0  0.7715588827583204  0.49401780275764634  0.02817365563240768  1.0000
  N   N14       1.0  0.2715560265679571  0.5059792838084576  0.4718245996311694  1.0000
  N   N15       1.0  0.22843801107264747  0.5059818800827925  0.9718270715125428  1.0000
  N   N16       1.0  0.7284381260343835  0.4940185768300366  0.5281723464004172  1.0000
  N   N17       1.0  0.6678309967965249  0.4540665733651323  0.035349393186301405  1.0000
  N   N18       1.0  0.1678292094506304  0.545930940979062  0.4646496483525836  1.0000
  N   N19       1.0  0.3321759481922584  0.5459396147638031  0.9646511713546885  1.0000
  N   N20       1.0  0.8321722530749727  0.45406596871008276  0.5353495935401539  1.0000
  N   N21       1.0  0.5713371976044712  0.4157093929924828  0.043337920674929406  1.0000
  N   N22       1.0  0.0713401257641593  0.5842886232708508  0.4566577393581141  1.0000
  N   N23       1.0  0.4286542137875458  0.5842931028660344  0.9566601053143983  1.0000
  N   N24       1.0  0.9286558543307566  0.41571291365802665  0.54334341977016  1.0000
  N   N25       1.0  0.8068438834688723  0.38661560770865583  0.2669904995820644  1.0000
  N   N26       1.0  0.3068446781752315  0.6133834841327257  0.2330099530583638  1.0000
  N   N27       1.0  0.1931530103634742  0.6133850101508783  0.7330096062738105  1.0000
  N   N28       1.0  0.6931540431357134  0.38661620668582947  0.7669899368076043  1.0000
  N   N29       1.0  0.8321241345417576  0.28456273280851  0.2790260028326442  1.0000
  N   N30       1.0  0.33212442377914914  0.7154355357759811  0.22097597344990302  1.0000
  N   N31       1.0  0.16787458677135447  0.715437885055344  0.7209741030255754  1.0000
  N   N32       1.0  0.6678742975310143  0.2845641630163627  0.7790230791347311  1.0000
  N   N33       1.0  0.8525387296963064  0.1868912054039598  0.29353066667028566  1.0000
  N   N34       1.0  0.3525357489929561  0.81310902192871  0.20647095685919226  1.0000
  N   N35       1.0  0.14746090536151973  0.8131112665526669  0.7064698711736169  1.0000
  N   N36       1.0  0.6474584036131149  0.1868897498075128  0.7935278797273069  1.0000
  N   N37       1.0  0.7574147169672829  0.6282849018161228  0.29053531315258135  1.0000
  N   N38       1.0  0.25741535876674965  0.37171306873261745  0.2094606098561157  1.0000
  N   N39       1.0  0.24258217685699182  0.3717129508550768  0.7094624701638635  1.0000
  N   N40       1.0  0.7425815350683608  0.6282894191650924  0.7905382534215943  1.0000
  N   N41       1.0  0.7340140554709438  0.7352492472384212  0.2943777397374062  1.0000
  N   N42       1.0  0.2340169790122459  0.2647495076311585  0.20562168815758497  1.0000
  N   N43       1.0  0.2659837521177337  0.2647578519665998  0.7056247153467368  1.0000
  N   N44       1.0  0.7659826560241073  0.7352427429057753  0.7943789856155374  1.0000
  N   N45       1.0  0.7133171439493611  0.83863352209746  0.29795330585641716  1.0000
  N   N46       1.0  0.2133187099118459  0.16136606178551458  0.2020462847544167  1.0000
  N   N47       1.0  0.28668797354308856  0.1613642827504833  0.702049501158605  1.0000
  N   N48       1.0  0.7866864075896702  0.8386373452031818  0.7979536318074592  1.0000
  N   N49       1.0  0.8921972704364125  0.0869500146058115  0.9106520616852405  1.0000
  N   N50       1.0  0.3921963149983797  0.9130475575941048  0.5893418900921077  1.0000
  N   N51       1.0  0.10780601957783631  0.91305061124266  0.08934720689752845  1.0000
  N   N52       1.0  0.6078042337907875  0.0869531081168162  0.41065319208047407  1.0000
  O   O1        1.0  0.013791037052833102  0.37399373154205745  0.08006537104352417  1.0000
  O   O2        1.0  0.5137888063074529  0.6260039802527116  0.41993348998212804  1.0000
  O   O3        1.0  0.986213166709085  0.62600966747069  0.9199353827985135  1.0000
  O   O4        1.0  0.48620991499227983  0.373992977272664  0.5800607282190882  1.0000
