data_image0
_chemical_formula_structural       Cu4H16C12N28
_chemical_formula_sum              "Cu4 H16 C12 N28"
_cell_length_a       7.789816627790773
_cell_length_b       9.480836363793651
_cell_length_c       9.480767786536596
_cell_angle_alpha    67.95662951676988
_cell_angle_beta     80.28644867968487
_cell_angle_gamma    80.2866992444329

_space_group_name_H-M_alt    "P 1"
_space_group_IT_number       1

loop_
  _space_group_symop_operation_xyz
  'x, y, z'

loop_
  _atom_site_type_symbol
  _atom_site_label
  _atom_site_symmetry_multiplicity
  _atom_site_fract_x
  _atom_site_fract_y
  _atom_site_fract_z
  _atom_site_occupancy
  Cu  Cu1       1.0  0.6408185226777192  0.9826676215782086  0.6149469289091201  1.0000
  Cu  Cu2       1.0  0.8591823385896549  0.3850644284566798  0.01732637657010362  1.0000
  Cu  Cu3       1.0  0.35917844325268794  0.017326077622939803  0.3850660106347874  1.0000
  Cu  Cu4       1.0  0.1408210357048461  0.6149421553304749  0.9826653107779747  1.0000
  H   H1        1.0  0.6969814566938624  0.9276112107593094  0.9311276480945239  1.0000
  H   H2        1.0  0.8030311771608041  0.0688858132729351  0.07239243628976057  1.0000
  H   H3        1.0  0.3030150042596631  0.07239616772167781  0.06888363212033971  1.0000
  H   H4        1.0  0.19696185138623434  0.9311285275476068  0.927612575524897  1.0000
  H   H5        1.0  0.684647641773836  0.25586947817764377  0.4394080850676191  1.0000
  H   H6        1.0  0.8153478600538335  0.560602566549491  0.7441091596007964  1.0000
  H   H7        1.0  0.31535436813244644  0.7441060102343402  0.5606043863346102  1.0000
  H   H8        1.0  0.18466293860392818  0.439408863465971  0.25586507331039604  1.0000
  H   H9        1.0  0.8397815914945995  0.3797473504407876  0.4249814663439436  1.0000
  H   H10       1.0  0.6602160151956157  0.5750139281742507  0.6202360538875381  1.0000
  H   H11       1.0  0.16022173471721857  0.6202398514782672  0.5750129344051231  1.0000
  H   H12       1.0  0.33979862927731114  0.4249870621899277  0.3797477472977207  1.0000
  H   H13       1.0  0.6144857512473223  0.435677502151094  0.46138043149561275  1.0000
  H   H14       1.0  0.8855061245921901  0.5386134316743778  0.5643081642749762  1.0000
  H   H15       1.0  0.3855055695368819  0.5643120458463075  0.5386136151237579  1.0000
  H   H16       1.0  0.11450045835528748  0.4613796090044602  0.4356774018836446  1.0000
  C   C1        1.0  0.7288570972615815  0.2622693094031304  0.6540861630821057  1.0000
  C   C2        1.0  0.7711347778106372  0.3459163630122291  0.7377182176549227  1.0000
  C   C3        1.0  0.2711485818142165  0.7377292116129226  0.34591022051845505  1.0000
  C   C4        1.0  0.22886750437716336  0.6540788361537864  0.2622745136697588  1.0000
  C   C5        1.0  0.7234148710467923  0.04638876683148399  0.8748011590875038  1.0000
  C   C6        1.0  0.776582079689753  0.12521747954296097  0.9536052349253055  1.0000
  C   C7        1.0  0.2765679948891844  0.9536129270862262  0.12521389610412098  1.0000
  C   C8        1.0  0.22341012953354786  0.8747934906007232  0.04639792160054404  1.0000
  C   C9        1.0  0.7156210475847119  0.3365001460793096  0.4866088788664626  1.0000
  C   C10       1.0  0.7843721484934177  0.5133856815392831  0.6634869140147189  1.0000
  C   C11       1.0  0.2843773056881958  0.6634846982497393  0.5133912222729435  1.0000
  C   C12       1.0  0.21563907106666141  0.4866119458641122  0.3364953632292256  1.0000
  N   N1        1.0  0.7014622228715128  0.11438638740487761  0.7253648311425919  1.0000
  N   N2        1.0  0.7985376014355055  0.2746374717809631  0.8856186375271021  1.0000
  N   N3        1.0  0.2985418100912369  0.8856129950943554  0.2746462259606163  1.0000
  N   N4        1.0  0.20146336999071934  0.725377030889696  0.11437580273948099  1.0000
  N   N5        1.0  0.5969398005773883  0.9062702831761412  0.44578471512252094  1.0000
  N   N6        1.0  0.9030582824329089  0.5542249960004427  0.0937232147320586  1.0000
  N   N7        1.0  0.40305270390977926  0.09371772501085472  0.5542297755145995  1.0000
  N   N8        1.0  0.09694303933204648  0.445787298091041  0.9062677498915762  1.0000
  N   N9        1.0  0.7246707810426897  0.86562710107615  0.3710895690751029  1.0000
  N   N10       1.0  0.7753273354060468  0.628910207501235  0.1343785417458959  1.0000
  N   N11       1.0  0.2753221919280335  0.1343781831766151  0.6289134116816584  1.0000
  N   N12       1.0  0.22467143732095715  0.37109047971806325  0.8656253383682325  1.0000
  N   N13       1.0  0.8518293571065315  0.8251782335811768  0.30682411468655596  1.0000
  N   N14       1.0  0.6481684327389561  0.6931684539216649  0.17483535810941211  1.0000
  N   N15       1.0  0.14816354530060494  0.17483864470447233  0.6931673460944977  1.0000
  N   N16       1.0  0.35182882748047467  0.3068229544788181  0.82517836246069  1.0000
  N   N17       1.0  0.8836766324488042  0.8788995599804323  0.6025842173960426  1.0000
  N   N18       1.0  0.6163181565126408  0.3974110241594745  0.12110458539763869  1.0000
  N   N19       1.0  0.11632086550849864  0.12110117220763776  0.3974177000572682  1.0000
  N   N20       1.0  0.3836827663575023  0.6025930709893785  0.8788988559969795  1.0000
  N   N21       1.0  0.9723601466679741  0.8527570748095243  0.7023808754523343  1.0000
  N   N22       1.0  0.5276405142009822  0.2976132190599897  0.14724862766462363  1.0000
  N   N23       1.0  0.027639571494603422  0.14724716808495938  0.2976152824450438  1.0000
  N   N24       1.0  0.47236255229352503  0.7023839381627256  0.8527601836366684  1.0000
  N   N25       1.0  0.06462414919505478  0.8275229745088312  0.7973560488694815  1.0000
  N   N26       1.0  0.4353873025850561  0.2026336786159817  0.1724824751289447  1.0000
  N   N27       1.0  0.9353803947619143  0.1724847713759914  0.2026340181244563  1.0000
  N   N28       1.0  0.5646209825813031  0.7973531378742608  0.8275304179362309  1.0000
