data_image0
_chemical_formula_structural       Li2H44C20N4
_chemical_formula_sum              "Li2 H44 C20 N4"
_cell_length_a       7.8040830432602215
_cell_length_b       8.729046838104473
_cell_length_c       9.191390022054954
_cell_angle_alpha    107.75750389202976
_cell_angle_beta     113.0816710104777
_cell_angle_gamma    90.90905904472677

_space_group_name_H-M_alt    "P 1"
_space_group_IT_number       1

loop_
  _space_group_symop_operation_xyz
  'x, y, z'

loop_
  _atom_site_type_symbol
  _atom_site_label
  _atom_site_symmetry_multiplicity
  _atom_site_fract_x
  _atom_site_fract_y
  _atom_site_fract_z
  _atom_site_occupancy
  Li  Li1       1.0  0.44700155379140233  0.6241862971358858  0.4893217120760128  1.0000
  Li  Li2       1.0  0.5529992101552351  0.3758120616190582  0.510677355521544  1.0000
  H   H1        1.0  0.5868233609982242  0.5041167609179525  0.8984755067130621  1.0000
  H   H2        1.0  0.4131750659318953  0.49588405184292145  0.10152242507980704  1.0000
  H   H3        1.0  0.3697467372536494  0.7780758656005063  0.8254607960418028  1.0000
  H   H4        1.0  0.6302507549678609  0.2219273837467242  0.17453863265486552  1.0000
  H   H5        1.0  0.38970836723331803  0.6954629119462724  0.9841629932491784  1.0000
  H   H6        1.0  0.610292622500232  0.30453666432558185  0.015836506855201493  1.0000
  H   H7        1.0  0.6242794441108828  0.9559802325295623  0.0941157898815278  1.0000
  H   H8        1.0  0.37572037978532086  0.044020568100748406  0.9058836864202817  1.0000
  H   H9        1.0  0.7324611492503548  0.7857064414697917  0.12664414608695998  1.0000
  H   H10       1.0  0.26753844885893596  0.21429314164360852  0.8733548977080262  1.0000
  H   H11       1.0  0.9033741482997328  0.9226850264014813  0.015750367117895982  1.0000
  H   H12       1.0  0.09662684677563499  0.07731454458135542  0.9842502211860307  1.0000
  H   H13       1.0  0.6915199544490418  0.9183959569669399  0.8434268365907585  1.0000
  H   H14       1.0  0.30848081483941314  0.08160239649898673  0.15657331920634482  1.0000
  H   H15       1.0  0.8564829929471288  0.6220762702195588  0.9169455986898074  1.0000
  H   H16       1.0  0.14351639005889177  0.37792208479888967  0.08305518899745583  1.0000
  H   H17       1.0  0.04623241303556819  0.770731594263822  0.8315868110247208  1.0000
  H   H18       1.0  0.9537671904155401  0.22926798356055397  0.16841332096981879  1.0000
  H   H19       1.0  0.8464275707585782  0.7704457993626262  0.6512229054111954  1.0000
  H   H20       1.0  0.1535729780847817  0.22955133129736544  0.34877790607863096  1.0000
  H   H21       1.0  0.9278652392986827  0.5845816924029636  0.6658823127447349  1.0000
  H   H22       1.0  0.07213553533158998  0.4154166557739458  0.3341189312519219  1.0000
  H   H23       1.0  0.24429986022611416  0.4276517586445508  0.7772001108004505  1.0000
  H   H24       1.0  0.7557013552943488  0.5723490351442209  0.22279982181075303  1.0000
  H   H25       1.0  0.3285791589417427  0.3267726318781499  0.625627311675018  1.0000
  H   H26       1.0  0.6714206649544608  0.6732281687521677  0.3743721646267915  1.0000
  H   H27       1.0  0.21379839487126867  0.49896175092680284  0.6083464258087261  1.0000
  H   H28       1.0  0.7861968025783314  0.5010366351943035  0.3916508165512553  1.0000
  H   H29       1.0  0.44486195558826575  0.023323270622476903  0.6477529969635967  1.0000
  H   H30       1.0  0.5551390394871021  0.9766763003603602  0.35224759134032974  1.0000
  H   H31       1.0  0.31514582090571247  0.0722879365773892  0.46477670885639105  1.0000
  H   H32       1.0  0.6848535567584833  0.9277104237300762  0.5352229906313185  1.0000
  H   H33       1.0  0.3539427810818268  0.7653080242236783  0.20883577205862036  1.0000
  H   H34       1.0  0.646061915925202  0.2346891123567616  0.7911609673616481  1.0000
  H   H35       1.0  0.14296437166257195  0.8487354278040302  0.19739193043633216  1.0000
  H   H36       1.0  0.8570361771807882  0.1512617028559617  0.8026088810535016  1.0000
  H   H37       1.0  0.1613598591576917  0.6433195713907197  0.19445795416218206  1.0000
  H   H38       1.0  0.8386432155863159  0.3566836347232964  0.805546564370708  1.0000
  H   H39       1.0  0.2060067416371325  0.8484627512947682  0.6169924050056464  1.0000
  H   H40       1.0  0.7939944792251482  0.15153803720498624  0.38300861580510326  1.0000
  H   H41       1.0  0.08354069767560897  0.6815136139228387  0.4269770211715596  1.0000
  H   H42       1.0  0.9164591475878795  0.3184871655514101  0.5730268079284428  1.0000
  H   H43       1.0  0.04711297519979501  0.8834126665845974  0.43140774903169193  1.0000
  H   H44       1.0  0.9528868593800512  0.116588123467686  0.5685939036692176  1.0000
  C   C1        1.0  0.4983264895718094  0.560674931019321  0.8055062780153577  1.0000
  C   C2        1.0  0.5016695949999814  0.43932834103650015  0.1944894297732773  1.0000
  C   C3        1.0  0.46416630486577043  0.7211283865595494  0.9120963422428331  1.0000
  C   C4        1.0  0.5358309562270094  0.278873650559774  0.0879015657474653  1.0000
  C   C5        1.0  0.6492691630810157  0.8359748146865515  0.02852788501486719  1.0000
  C   C6        1.0  0.3507318266525274  0.1640247615853028  0.9714716150895127  1.0000
  C   C7        1.0  0.7625095650683278  0.8518430348519814  0.9297757956889042  1.0000
  C   C8        1.0  0.23749165579395282  0.1481577536477729  0.07022522512184541  1.0000
  C   C9        1.0  0.7795796044774477  0.6826910770635736  0.8232868071716197  1.0000
  C   C10       1.0  0.22041860734940136  0.3173085076023483  0.1767128685135262  1.0000
  C   C11       1.0  0.9068877794475867  0.7028873635682373  0.7382418797445707  1.0000
  C   C12       1.0  0.093111377771514  0.2971097739333004  0.2617584754358688  1.0000
  C   C13       1.0  0.3114406658508528  0.4471089789851704  0.6978705839453099  1.0000
  C   C14       1.0  0.6885552036176604  0.5528930649756987  0.30212686773559466  1.0000
  C   C15       1.0  0.41055031363354993  0.9891315431800578  0.5130094688486437  1.0000
  C   C16       1.0  0.5894506867836424  0.010868022513768902  0.4869922076548292  1.0000
  C   C17       1.0  0.23850326831488636  0.7676279651605711  0.24858460532708898  1.0000
  C   C18       1.0  0.7615076778917355  0.23237279131544145  0.7514163450507638  1.0000
  C   C19       1.0  0.1538516804813383  0.8082567796236334  0.4797209048953945  1.0000
  C   C20       1.0  0.8461493145940294  0.1917427913592107  0.5202796834085317  1.0000
  N   N1        1.0  0.5969176495970315  0.5840080378676547  0.7058270214860372  1.0000
  N   N2        1.0  0.4030796114957482  0.4159939992516755  0.2941708865042613  1.0000
  N   N3        1.0  0.3119012699389572  0.8201150532472639  0.43286167492477295  1.0000
  N   N4        1.0  0.688100896315575  0.17988328808809936  0.5671400253812706  1.0000
