data_image0
_chemical_formula_structural       Nd2H18C14S4O22
_chemical_formula_sum              "Nd2 H18 C14 S4 O22"
_cell_length_a       6.783380372084308
_cell_length_b       9.205301281380743
_cell_length_c       11.365769253723304
_cell_angle_alpha    113.13494369495419
_cell_angle_beta     93.93749754547895
_cell_angle_gamma    104.8059331014247

_space_group_name_H-M_alt    "P 1"
_space_group_IT_number       1

loop_
  _space_group_symop_operation_xyz
  'x, y, z'

loop_
  _atom_site_type_symbol
  _atom_site_label
  _atom_site_symmetry_multiplicity
  _atom_site_fract_x
  _atom_site_fract_y
  _atom_site_fract_z
  _atom_site_occupancy
  Nd  Nd1       1.0  0.6639951654731533  0.17542639037138494  0.7716345608300514  1.0000
  Nd  Nd2       1.0  0.33600465491254267  0.8245735369829106  0.2283652513345871  1.0000
  H   H1        1.0  0.2339954911615862  0.5057283963719712  0.3060887883247574  1.0000
  H   H2        1.0  0.7660043377684644  0.4942715339602018  0.6939119049589594  1.0000
  H   H3        1.0  0.1416951414767809  0.14927215357926127  0.47134768563281426  1.0000
  H   H4        1.0  0.8583017173089472  0.8507277573069345  0.5286520087530633  1.0000
  H   H5        1.0  0.33619997059972917  0.6760026011089906  0.7221432432069719  1.0000
  H   H6        1.0  0.6638032884130779  0.3239985873372859  0.2778579800834109  1.0000
  H   H7        1.0  0.8015200666388865  0.37085265332834183  0.057179277750741234  1.0000
  H   H8        1.0  0.1984802222295982  0.6291485156719503  0.9428209466417954  1.0000
  H   H9        1.0  0.8934181382830033  0.2264233783456007  0.04723536257945681  1.0000
  H   H10       1.0  0.1065816821026927  0.7735765490086874  0.9527644495851817  1.0000
  H   H11       1.0  0.6160859289960855  0.5265985727930413  0.8916280832876424  1.0000
  H   H12       1.0  0.38391583212803937  0.47340260146341967  0.10837131887519293  1.0000
  H   H13       1.0  0.8634227537055351  0.5621004705862659  0.933409988400733  1.0000
  H   H14       1.0  0.13657706668016803  0.4378994567680224  0.06658982376389844  1.0000
  H   H15       1.0  0.42523637885058463  0.15915812156298872  0.006563286183514104  1.0000
  H   H16       1.0  0.5747634415351115  0.8408418057913069  0.9934365259811244  1.0000
  H   H17       1.0  0.31160453373989583  0.0128113556243861  0.8735471238728251  1.0000
  H   H18       1.0  0.688395755128589  0.9871898133759063  0.12645310051971148  1.0000
  C   C1        1.0  0.3549835797744478  0.787183186873243  0.5330499224894396  1.0000
  C   C2        1.0  0.6450177299555832  0.21281675169297645  0.46695082968366114  1.0000
  C   C3        1.0  0.28691556163668247  0.6094047341618064  0.5159487099549551  1.0000
  C   C4        1.0  0.7130857480933487  0.39059520440441997  0.4840520422181456  1.0000
  C   C5        1.0  0.23196374835567468  0.47899364010527284  0.39132222436039404  1.0000
  C   C6        1.0  0.768036080574376  0.5210062902269001  0.6086784689233227  1.0000
  C   C7        1.0  0.1813666950597153  0.31483012195513993  0.3761885038796748  1.0000
  C   C8        1.0  0.8186316530703479  0.6851698001429867  0.6238121305146649  1.0000
  C   C9        1.0  0.1792940805850023  0.277279291538477  0.48357667529391074  1.0000
  C   C10       1.0  0.8207047274835021  0.7227218692277617  0.5164234902092417  1.0000
  C   C11       1.0  0.2327937161887377  0.40942859264705334  0.6077261460466872  1.0000
  C   C12       1.0  0.7672041549141894  0.590570084827192  0.3922731950006764  1.0000
  C   C13       1.0  0.2876954897766026  0.5741591718222311  0.6251911672359043  1.0000
  C   C14       1.0  0.7123058114090811  0.4258407637661109  0.37480870381811837  1.0000
  S   S1        1.0  0.1276569368468969  0.155239832471409  0.21466268847033376  1.0000
  S   S2        1.0  0.8723428920831536  0.844760097860764  0.7853380048133829  1.0000
  S   S3        1.0  0.23632675446667406  0.3661396927616636  0.7469071400293643  1.0000
  S   S4        1.0  0.763673065919022  0.633860234592632  0.2530926721352742  1.0000
  O   O1        1.0  0.4292578328266502  0.8994342350729243  0.6480852019385708  1.0000
  O   O2        1.0  0.570741987559046  0.10056569228137142  0.3519146102260677  1.0000
  O   O3        1.0  0.33609172710671226  0.8138962534041171  0.4322805111629933  1.0000
  O   O4        1.0  0.6639095740789712  0.18610368218422477  0.5677193598910293  1.0000
  O   O5        1.0  0.9187553346201298  0.1417287858385592  0.1549754571127906  1.0000
  O   O6        1.0  0.08124448576557343  0.8582711415157364  0.8450243550518478  1.0000
  O   O7        1.0  0.1252267746749141  0.0027095646639097005  0.2295164124478291  1.0000
  O   O8        1.0  0.8747715649108015  0.9972903544563321  0.7704833408274253  1.0000
  O   O9        1.0  0.289468983610405  0.2090090022381617  0.1495810995000113  1.0000
  O   O10       1.0  0.7105308453196458  0.7909909280940113  0.8504195937837125  1.0000
  O   O11       1.0  0.3368325367257299  0.23636791808622357  0.7218885725941107  1.0000
  O   O12       1.0  0.6631672922043138  0.7636320122459497  0.27811212068960606  1.0000
  O   O13       1.0  0.3545915272531986  0.5241424004484047  0.8582957296059277  1.0000
  O   O14       1.0  0.6454082931325045  0.4758575269058909  0.14170408255871078  1.0000
  O   O15       1.0  0.02039102842078219  0.31211403103052504  0.7603290412925645  1.0000
  O   O16       1.0  0.9796088005092687  0.687885899301648  0.23967165199115212  1.0000
  O   O17       1.0  0.8821360650254065  0.3007831758825006  0.004440193843436211  1.0000
  O   O18       1.0  0.11786523616027725  0.6992167597058413  0.9955596772105793  1.0000
  O   O19       1.0  0.7286957284493596  0.4754170051978904  0.8841978555179751  1.0000
  O   O20       1.0  0.2713055727363242  0.5245829303904517  0.11580201553604046  1.0000
  O   O21       1.0  0.4429702687367936  0.1055772239827988  0.9160238633949405  1.0000
  O   O22       1.0  0.5570295516489024  0.8944227033714968  0.0839759487696981  1.0000
