data_image0
_chemical_formula_structural       Al6H80C105O37
_chemical_formula_sum              "Al6 H80 C105 O37"
_cell_length_a       13.174920360633864
_cell_length_b       13.472143392520778
_cell_length_c       27.42126702553629
_cell_angle_alpha    89.63367195384711
_cell_angle_beta     89.52015376811714
_cell_angle_gamma    60.12874353327906

_space_group_name_H-M_alt    "P 1"
_space_group_IT_number       1

loop_
  _space_group_symop_operation_xyz
  'x, y, z'

loop_
  _atom_site_type_symbol
  _atom_site_label
  _atom_site_symmetry_multiplicity
  _atom_site_fract_x
  _atom_site_fract_y
  _atom_site_fract_z
  _atom_site_occupancy
  Al  Al1       1.0  0.847060647686128  0.5752948947551461  0.4995287272522191  1.0000
  Al  Al2       1.0  0.6039610462834445  0.5763420811326156  0.4990616978019133  1.0000
  Al  Al3       1.0  0.5958646231087171  0.8027227490760327  0.5007651465338583  1.0000
  Al  Al4       1.0  0.8356999387724571  0.0798815669165265  0.986207970097638  1.0000
  Al  Al5       1.0  0.08662540095055253  0.065256388518165  0.982424765820916  1.0000
  Al  Al6       1.0  0.08244407838321167  0.8451464826979134  0.9839193334285454  1.0000
  H   H1        1.0  0.46189490224963947  0.8781012404772641  0.187349168187616  1.0000
  H   H2        1.0  0.22007213356994987  0.7543531609235217  0.210479337312897  1.0000
  H   H3        1.0  0.7679224301648233  0.0217708717322296  0.2039449654352268  1.0000
  H   H4        1.0  0.029506625082291318  0.15939093766130696  0.2167464153337022  1.0000
  H   H5        1.0  0.2114239202035719  0.03484744592758911  0.8522968775959967  1.0000
  H   H6        1.0  0.07063098574289496  0.7301356561189747  0.8489040761230698  1.0000
  H   H7        1.0  0.7402399612907474  0.2218287666516332  0.8586141372052938  1.0000
  H   H8        1.0  0.338428491293577  0.9541647723528471  0.6118318297608454  1.0000
  H   H9        1.0  0.9670516333066107  0.6700536524572414  0.6122282967366175  1.0000
  H   H10       1.0  0.6517266614418418  0.3666714747406418  0.619550107426008  1.0000
  H   H11       1.0  0.2090030669581679  0.1134270889186979  0.7706496315668689  1.0000
  H   H12       1.0  0.9148237687064052  0.6562342786439289  0.1954637033408275  1.0000
  H   H13       1.0  0.14695608069809646  0.6423464773031923  0.7670232794876101  1.0000
  H   H14       1.0  0.6294141284946306  0.24601530242301803  0.7822525733597205  1.0000
  H   H15       1.0  0.24141735797122985  0.0877153432870514  0.6816286550303516  1.0000
  H   H16       1.0  0.11104907646575421  0.6240427970439625  0.6799754227145698  1.0000
  H   H17       1.0  0.6029007260713897  0.2879346670315783  0.694266341571776  1.0000
  H   H18       1.0  0.33095346856146096  0.6756448984545713  0.8703804488010932  1.0000
  H   H19       1.0  0.7269131806702306  0.0218223172636627  0.8618470229236762  1.0000
  H   H20       1.0  0.05253366675427168  0.246579929235871  0.8557276902217197  1.0000
  H   H21       1.0  0.48441477582186127  0.8750238111456667  0.2721713762409692  1.0000
  H   H22       1.0  0.8845896013209895  0.6510488727381941  0.2795905765761049  1.0000
  H   H23       1.0  0.7208015253707742  0.476327684077397  0.1796735286172009  1.0000
  H   H24       1.0  0.6743586319772846  0.5024064791104694  0.2631609888758462  1.0000
  H   H25       1.0  0.46247409192550737  0.59457109495186  0.6292203068037239  1.0000
  H   H26       1.0  0.6247967810217717  0.966713349987046  0.6240900661268682  1.0000
  H   H27       1.0  0.9723479107162304  0.3767137423854835  0.6146195658401936  1.0000
  H   H28       1.0  0.18187277316483372  0.9222086613406546  0.2959703234263245  1.0000
  H   H29       1.0  0.9427913783582368  0.8933515929954154  0.2998844997052431  1.0000
  H   H30       1.0  0.8364126767055993  0.18576166836831481  0.2890313976292944  1.0000
  H   H31       1.0  0.2656001526972105  0.9914363608552037  0.2960265615577384  1.0000
  H   H32       1.0  0.007493361805543998  0.7429445031906211  0.2995272986287745  1.0000
  H   H33       1.0  0.6945390295306595  0.3043549247155469  0.2835564642094184  1.0000
  H   H34       1.0  0.5530887141673873  0.7247540465014524  0.2694125468028332  1.0000
  H   H35       1.0  0.25083707957622897  0.0151535794040569  0.210878011865745  1.0000
  H   H36       1.0  0.04446927667384409  0.7388152978247717  0.2155093146502765  1.0000
  H   H37       1.0  0.7062588892776276  0.29966937191187526  0.1976735903635003  1.0000
  H   H38       1.0  0.14788226835857216  0.9675315563758672  0.2129470495094452  1.0000
  H   H39       1.0  0.986313071771761  0.8887153501327775  0.2165905181477612  1.0000
  H   H40       1.0  0.8339331278241675  0.16508262716980945  0.2040381061762631  1.0000
  H   H41       1.0  0.2791430545877205  0.7096944382478441  0.29172491510554727  1.0000
  H   H42       1.0  0.7304229190623346  0.016642951325479806  0.28739739834161077  1.0000
  H   H43       1.0  0.006371673466262003  0.2100464744906176  0.2991631608230351  1.0000
  H   H44       1.0  0.3665568165222127  0.6567286548537011  0.1937079169929277  1.0000
  H   H45       1.0  0.7324700170581906  0.7382945034234041  0.2703643747540241  1.0000
  H   H46       1.0  0.6764313678142387  0.9638030394822793  0.1915576627038007  1.0000
  H   H47       1.0  0.04109551861841958  0.2826915835235297  0.2049130607783596  1.0000
  H   H48       1.0  0.3376565845088422  0.4440641574176992  0.7736448669057694  1.0000
  H   H49       1.0  0.2628582195249649  0.5321414858457416  0.8257362628214794  1.0000
  H   H50       1.0  0.39567265545673547  0.39859324995780543  0.833590550849685  1.0000
  H   H51       1.0  0.45416507174779497  0.056314540732998394  0.8091610018724326  1.0000
  H   H52       1.0  0.46158373915142903  0.15297129687321837  0.8520655442677666  1.0000
  H   H53       1.0  0.5739176055242724  0.005861534133075002  0.8510278077818542  1.0000
  H   H54       1.0  0.08398092567404797  0.4719956835279504  0.789414985289703  1.0000
  H   H55       1.0  0.19361922720798916  0.37370387722150883  0.8309619829987368  1.0000
  H   H56       1.0  0.7971439935058912  0.5206044098648518  0.270899334239715  1.0000
  H   H57       1.0  0.043439299786257386  0.41154101871099164  0.8391146133515761  1.0000
  H   H58       1.0  0.3272044244676381  0.5471650151971802  0.6462331301873121  1.0000
  H   H59       1.0  0.29443536271319454  0.48160573103066895  0.6964969165486536  1.0000
  H   H60       1.0  0.4168051084653682  0.3964002231567392  0.6574530345156193  1.0000
  H   H61       1.0  0.4497793885508443  0.0256593175863813  0.7013835951598822  1.0000
  H   H62       1.0  0.4050089667397287  0.15008164881697186  0.7386619748399069  1.0000
  H   H63       1.0  0.37981440811943673  0.1654488073169063  0.6743016581884193  1.0000
  H   H64       1.0  0.03097312100641151  0.48956200032005637  0.6685094680921255  1.0000
  H   H65       1.0  0.14891608849167431  0.4394019338494388  0.7113700600947083  1.0000
  H   H66       1.0  0.1792846629423224  0.41108243293665947  0.6471831488375627  1.0000
  H   H67       1.0  0.5123873300554748  0.7294168381770947  0.18654802465368192  1.0000
  H   H68       1.0  0.402538537267219  0.4987097443088259  0.2411200519584114  1.0000
  H   H69       1.0  0.37556926747337377  0.5174508259579014  0.3058006441668297  1.0000
  H   H70       1.0  0.5219953020183538  0.4336136131644963  0.283060317075936  1.0000
  H   H71       1.0  0.5150355147520359  0.108640850057121  0.23519680192018202  1.0000
  H   H72       1.0  0.5330670730077572  0.12840133593733333  0.298739744274549  1.0000
  H   H73       1.0  0.440494847551804  0.0728276194696065  0.2809236884076398  1.0000
  H   H74       1.0  0.18329578264804525  0.2527762943173428  0.2682847691346808  1.0000
  H   H75       1.0  0.14547041951360742  0.24040828266598882  0.3303515565685303  1.0000
  H   H76       1.0  0.1520445907279182  0.3645211019569814  0.3112243789583147  1.0000
  H   H77       1.0  0.7631126022970064  0.7480602711082655  0.1868708084132038  1.0000
  H   H78       1.0  0.8552011966297783  0.47256944934498085  0.1896575658705402  1.0000
  H   H79       1.0  0.03931298246703105  0.49589163574032824  0.47028597833738667  1.0000
  H   H80       1.0  0.6438483587101801  0.2236838060488111  0.9694682311533925  1.0000
  C   C1        1.0  0.764003301403079  0.776798939865955  0.4314312541210086  1.0000
  C   C2        1.0  0.2972327993953172  0.8504808215163635  0.1430390809041029  1.0000
  C   C3        1.0  0.36533394202005803  0.4805698151367396  0.6745846871682275  1.0000
  C   C4        1.0  0.4400817541319171  0.11143895344569903  0.7028760549744888  1.0000
  C   C5        1.0  0.11961670115404395  0.4198922465075228  0.6771149159185583  1.0000
  C   C6        1.0  0.43659006973737047  0.509440283734115  0.2762122577119612  1.0000
  C   C7        1.0  0.5218028620745727  0.07317242294758591  0.2722557063758586  1.0000
  C   C8        1.0  0.12832624571775855  0.3008478687462954  0.2999114342746411  1.0000
  C   C9        1.0  0.8819477393171906  0.8409486392410558  0.14475636981735823  1.0000
  C   C10       1.0  0.8881391554992535  0.28019688928944225  0.1418852099615933  1.0000
  C   C11       1.0  0.39398153549730375  0.7931145702730689  0.3403479732703546  1.0000
  C   C12       1.0  0.7991244753114021  0.8249805661177946  0.3414921120596759  1.0000
  C   C13       1.0  0.8101556502509413  0.3756196167990922  0.33832038662345815  1.0000
  C   C14       1.0  0.415690484529712  0.7824326656761755  0.3837162747690286  1.0000
  C   C15       1.0  0.7843467312434171  0.8109617409522799  0.3842071021924056  1.0000
  C   C16       1.0  0.7932308387784346  0.40183016667874943  0.381131406763501  1.0000
  C   C17       1.0  0.9193278640880038  0.1934911195844721  0.9131890194261842  1.0000
  C   C18       1.0  0.7697633404055538  0.4516757798133283  0.42896813076770013  1.0000
  C   C19       1.0  0.22612784465734148  0.8813755731169406  0.9173780027719972  1.0000
  C   C20       1.0  0.9184607310601084  0.8900272512300589  0.9119911506403042  1.0000
  C   C21       1.0  0.9243298426758031  0.1995518729760164  0.052106585557126606  1.0000
  C   C22       1.0  0.21786044040640448  0.889568801427245  0.0525946677497089  1.0000
  C   C23       1.0  0.9150093329829405  0.8774198448581032  0.0526969784359821  1.0000
  C   C24       1.0  0.3492741048111653  0.8834118778492482  0.634940091888879  1.0000
  C   C25       1.0  0.90315777858752  0.7417554647215355  0.6340868954215182  1.0000
  C   C26       1.0  0.7304173253525618  0.3537388760763847  0.637969486642497  1.0000
  C   C27       1.0  0.31332109614529446  0.9030009242157747  0.6839150772405347  1.0000
  C   C28       1.0  0.9296058929905441  0.759292942924276  0.6814926995851636  1.0000
  C   C29       1.0  0.4638558406411377  0.7587825007298079  0.4319849242832277  1.0000
  C   C30       1.0  0.7511428188563088  0.3159560661867076  0.6866158630062955  1.0000
  C   C31       1.0  0.2682376036894427  0.9351281604978606  0.7859526104193578  1.0000
  C   C32       1.0  0.9705536354230802  0.7806791699583043  0.7818667852641783  1.0000
  C   C33       1.0  0.7836069547126316  0.26433566262042524  0.7880623424357722  1.0000
  C   C34       1.0  0.7607571377036351  0.7799803118917836  0.5679101868841201  1.0000
  C   C35       1.0  0.7761839640557114  0.44198077384588413  0.5660343616295904  1.0000
  C   C36       1.0  0.4588440425938176  0.7484663515759351  0.5667570265171946  1.0000
  C   C37       1.0  0.24262192249661046  0.02946587429768501  0.7542887704121313  1.0000
  C   C38       1.0  0.061220967185334776  0.6974690740312401  0.7510915951250111  1.0000
  C   C39       1.0  0.6893319672011061  0.2650949130947566  0.7621405623407043  1.0000
  C   C40       1.0  0.31112164100502343  0.7342340809817999  0.21505944670093413  1.0000
  C   C41       1.0  0.2620511751080485  0.014681439948823502  0.7052462707452349  1.0000
  C   C42       1.0  0.04162049245737631  0.6873926804463008  0.703100546322034  1.0000
  C   C43       1.0  0.6744756878925244  0.2887149923857281  0.713443337524204  1.0000
  C   C44       1.0  0.2479864280714211  0.9499428722369883  0.8363131534883125  1.0000
  C   C45       1.0  0.9873533256509788  0.7887606042033897  0.8317900766082502  1.0000
  C   C46       1.0  0.8003278103811695  0.23991839569809773  0.8380524153982166  1.0000
  C   C47       1.0  0.26851633610905873  0.8571718731546485  0.8661580132755732  1.0000
  C   C48       1.0  0.8983265189888813  0.8747061273627138  0.8599004233682592  1.0000
  C   C49       1.0  0.8968233873634759  0.2337996016005164  0.8617629163643913  1.0000
  C   C50       1.0  0.4176124232236161  0.68007195538776  0.6448255772764214  1.0000
  C   C51       1.0  0.7527776442464569  0.9504599983802607  0.21268822074752342  1.0000
  C   C52       1.0  0.7091727264230911  0.9095449091554569  0.6405251906501874  1.0000
  C   C53       1.0  0.9118427186265593  0.35990490016852306  0.6354584434706183  1.0000
  C   C54       1.0  0.3825011370548595  0.6963431402289402  0.6939451358724043  1.0000
  C   C55       1.0  0.7322028249698748  0.9286043750261824  0.6883805729897503  1.0000
  C   C56       1.0  0.9335007696715892  0.32548905047937643  0.6842471484658645  1.0000
  C   C57       1.0  0.3347964080513677  0.8079812187534616  0.7144874312804319  1.0000
  C   C58       1.0  0.8409673922007602  0.849313171934206  0.7102472288165416  1.0000
  C   C59       1.0  0.8499229069154952  0.3089575636235935  0.7110952749690898  1.0000
  C   C60       1.0  0.4008840774622301  0.602408280153128  0.7252820114308917  1.0000
  C   C61       1.0  0.6452043294876972  0.021627494477911607  0.7172849668651153  1.0000
  C   C62       1.0  0.9845953722797418  0.252696493840304  0.2211674324197332  1.0000
  C   C63       1.0  0.034365713738793616  0.31440663998407103  0.7091118876376115  1.0000
  C   C64       1.0  0.38537967607663864  0.6166785278675987  0.7751490277130202  1.0000
  C   C65       1.0  0.6600124463631332  0.025565429582975703  0.7668456396221331  1.0000
  C   C66       1.0  0.04326037399599161  0.3027225592296077  0.7589900584133744  1.0000
  C   C67       1.0  0.33928639265777594  0.7285385647151443  0.7965522429598266  1.0000
  C   C68       1.0  0.7691900111296519  0.9455305540583652  0.7896129016439559  1.0000
  C   C69       1.0  0.9611411810930688  0.28345353545899604  0.7867524445183562  1.0000
  C   C70       1.0  0.472868179610643  0.8039421179010233  0.2599537141184172  1.0000
  C   C71       1.0  0.8175526390874029  0.7318112621182634  0.263288904209368  1.0000
  C   C72       1.0  0.7691233614795934  0.4621707625935798  0.25684208702224254  1.0000
  C   C73       1.0  0.3484618653670922  0.7110669701998021  0.2691948953905339  1.0000
  C   C74       1.0  0.31322703662205953  0.8238110968119371  0.7654416719405718  1.0000
  C   C75       1.0  0.860182153340631  0.8586068928107267  0.7604350093283188  1.0000
  C   C76       1.0  0.8649587979603622  0.28578159178739077  0.7618490745935916  1.0000
  C   C77       1.0  0.31478639033807104  0.7469585333004929  0.8466079927354996  1.0000
  C   C78       1.0  0.7912390973048818  0.9534119489850426  0.8389294542252159  1.0000
  C   C79       1.0  0.9767021018289911  0.25529211170652394  0.8364315301827503  1.0000
  C   C80       1.0  0.4038584087643215  0.7723310390972743  0.6160173356046457  1.0000
  C   C81       1.0  0.7920492100864676  0.813560821784968  0.614636489327502  1.0000
  C   C82       1.0  0.8075821851833143  0.38014167905247137  0.6134913518568014  1.0000
  C   C83       1.0  0.25667596430385936  0.9232541922080346  0.2783628938653493  1.0000
  C   C84       1.0  0.7268309116044874  0.9470721664148058  0.2676600184013012  1.0000
  C   C85       1.0  0.9415315312170807  0.8216454850805236  0.28151385451245403  1.0000
  C   C86       1.0  0.7850396118093316  0.2688610984501381  0.270580703794046  1.0000
  C   C87       1.0  0.23765551284645872  0.9443883031521666  0.2228606012181515  1.0000
  C   C88       1.0  0.967610453295528  0.8201004959509319  0.22631402463871814  1.0000
  C   C89       1.0  0.7931902628908034  0.2555428198018319  0.21458988843684074  1.0000
  C   C90       1.0  0.26976981162225394  0.864830137388644  0.10023770736144398  1.0000
  C   C91       1.0  0.8966472836104133  0.8489765608553554  0.1014163255055678  1.0000
  C   C92       1.0  0.9049494753503354  0.25256533025417843  0.0992070053845353  1.0000
  C   C93       1.0  0.36898324534476507  0.8072921583436923  0.2884816748019574  1.0000
  C   C94       1.0  0.8201108108580042  0.8319283751710532  0.2899093484755539  1.0000
  C   C95       1.0  0.9638579166553638  0.28697417174364404  0.2756218088130282  1.0000
  C   C96       1.0  0.8309101077528284  0.349246708144257  0.2868274371956332  1.0000
  C   C97       1.0  0.4504625110150257  0.8102730601643204  0.20443203529374898  1.0000
  C   C98       1.0  0.8388218266434536  0.7362467973408185  0.2080301455538489  1.0000
  C   C99       1.0  0.800097206761194  0.4373102672115934  0.2021584785897588  1.0000
  C   C100      1.0  0.3243183493134935  0.8347037014636387  0.1947056103064639  1.0000
  C   C101      1.0  0.8608464158591077  0.8366791374285403  0.1964968559380864  1.0000
  C   C102      1.0  0.867158084573987  0.3064212763929107  0.1933956111587491  1.0000
  C   C103      1.0  0.34909724075706805  0.4729869198560479  0.809546894446143  1.0000
  C   C104      1.0  0.512857304287337  0.0787557254674951  0.8285116378145787  1.0000
  C   C105      1.0  0.11222266948382043  0.39492379505446007  0.8120944766245799  1.0000
  O   O1        1.0  0.8426471385787195  0.4765710315631678  0.4463279103100176  1.0000
  O   O2        1.0  0.8434228596994658  0.4764596161381717  0.5498886085695531  1.0000
  O   O3        1.0  0.4896228396918902  0.6506036428310581  0.5478733088342125  1.0000
  O   O4        1.0  0.657976045691001  0.8483538426642597  0.5503497470908343  1.0000
  O   O5        1.0  0.8341999937139876  0.6848652652147961  0.5496392235272438  1.0000
  O   O6        1.0  0.6795966062180554  0.46192653420697377  0.5457498693181293  1.0000
  O   O7        1.0  0.478157532348945  0.8240929237139341  0.5472233662644967  1.0000
  O   O8        1.0  0.6802861871248069  0.6525281801055628  0.4992873928629606  1.0000
  O   O9        1.0  0.8424324242037785  0.979648319657052  0.9331613700999173  1.0000
  O   O10       1.0  0.01922576698887472  0.1695719613024735  0.931429541964107  1.0000
  O   O11       1.0  0.2068941236577189  0.8081473356794433  0.9395147576411845  1.0000
  O   O12       1.0  0.48682606326629957  0.6634510534651386  0.4514660464115678  1.0000
  O   O13       1.0  0.8423648430579151  0.18011126121700022  0.9353281029947098  1.0000
  O   O14       1.0  0.20310911831186476  0.977782944059925  0.9355646835876428  1.0000
  O   O15       1.0  0.014493759978861907  0.8122589944935329  0.9316497572476268  1.0000
  O   O16       1.0  0.0035837516994095347  0.9957944944375823  0.9842607640408474  1.0000
  O   O17       1.0  0.8506133991564867  0.17160826235139126  0.0388154210631626  1.0000
  O   O18       1.0  0.19814546671589295  0.9831855889524662  0.0322572285389811  1.0000
  O   O19       1.0  0.007207328429089371  0.802093386976196  0.0296861706221705  1.0000
  O   O20       1.0  0.41993137947191883  0.5258962700070171  0.8066924063010462  1.0000
  O   O21       1.0  0.5737273480034306  0.11290816347683119  0.7943084421966587  1.0000
  O   O22       1.0  0.13888750667150865  0.2973797988744097  0.7821149509764284  1.0000
  O   O23       1.0  0.6692742302418251  0.8476547149244599  0.45405974561587215  1.0000
  O   O24       1.0  0.4442508392616061  0.49518437748769634  0.7055810575787121  1.0000
  O   O25       1.0  0.5505075646204106  0.1045298222026219  0.6925495154610177  1.0000
  O   O26       1.0  0.12203760337165184  0.3126844682985634  0.6808003470871924  1.0000
  O   O27       1.0  0.4546279159474979  0.6050158091867387  0.2756090148586168  1.0000
  O   O28       1.0  0.614469748056372  0.9580957477228297  0.27590399800973847  1.0000
  O   O29       1.0  0.007382432172157416  0.3614455901621483  0.2881884137122057  1.0000
  O   O30       1.0  0.8416940334515177  0.9756500263827734  0.0372919460011047  1.0000
  O   O31       1.0  0.017577037772923555  0.18078999474949609  0.0284881693840191  1.0000
  O   O32       1.0  0.19026597580003826  0.8182527374702744  0.0353555774101224  1.0000
  O   O33       1.0  0.8389672321153299  0.6779520361999546  0.44597801954236627  1.0000
  O   O34       1.0  0.672879864433412  0.4705810270622309  0.4493331797655672  1.0000
  O   O35       1.0  0.48521839422159024  0.8331378232787259  0.45091244857672313  1.0000
  O   O36       1.0  0.0009611393986404454  0.5036158741264954  0.5013732642397741  1.0000
  O   O37       1.0  0.6820043882957663  0.1542496840176071  0.9886401576831434  1.0000
