data_image0
_chemical_formula_structural       Cd4H80C128S4N16O16
_chemical_formula_sum              "Cd4 H80 C128 S4 N16 O16"
_cell_length_a       10.190202222983988
_cell_length_b       15.274001242847593
_cell_length_c       25.432775615126634
_cell_angle_alpha    86.15897094692266
_cell_angle_beta     78.43180954809918
_cell_angle_gamma    70.50406430590613

_space_group_name_H-M_alt    "P 1"
_space_group_IT_number       1

loop_
  _space_group_symop_operation_xyz
  'x, y, z'

loop_
  _atom_site_type_symbol
  _atom_site_label
  _atom_site_symmetry_multiplicity
  _atom_site_fract_x
  _atom_site_fract_y
  _atom_site_fract_z
  _atom_site_occupancy
  Cd  Cd1       1.0  0.2355595518542373  0.6274782911474971  0.6248780871620951  1.0000
  Cd  Cd2       1.0  0.48818786098568273  0.3725326816047668  0.37512939962864783  1.0000
  Cd  Cd3       1.0  0.6106695076561478  0.1276938656673963  0.875186964232917  1.0000
  Cd  Cd4       1.0  0.6139756486283544  0.8723205142316883  0.12481443015789748  1.0000
  H   H1        1.0  0.02319594138420887  0.6130460116451958  0.46888471741021237  1.0000
  H   H2        1.0  0.10509068083942452  0.3870422111802227  0.5311278091762119  1.0000
  H   H3        1.0  0.2425755430691865  0.11259913800787298  0.031141022179120608  1.0000
  H   H4        1.0  0.38719079248853905  0.8871215872006886  0.9689006412713257  1.0000
  H   H5        1.0  0.823661539987803  0.6125381641420662  0.42521188656020575  1.0000
  H   H6        1.0  0.8612649252544462  0.3876577619891322  0.5747627926168732  1.0000
  H   H7        1.0  0.9995632522934059  0.1117478309872553  0.0748883131216616  1.0000
  H   H8        1.0  0.18753191169279396  0.8875312328270084  0.9250366933659677  1.0000
  H   H9        1.0  0.5877533760470187  0.6255809604794891  0.4823122160182153  1.0000
  H   H10       1.0  0.6956994682942366  0.3744944993896695  0.5176368164096702  1.0000
  H   H11       1.0  0.8204474868326344  0.12514748791329564  0.017892750476967503  1.0000
  H   H12       1.0  0.9646545215431959  0.8742257245123071  0.9819430183222055  1.0000
  H   H13       1.0  0.7531930823366582  0.6324895690052655  0.6239239559433472  1.0000
  H   H14       1.0  0.010002709557880955  0.36734403252601316  0.3760643831286785  1.0000
  H   H15       1.0  0.1269560828812714  0.13284188981032938  0.8762050161649385  1.0000
  H   H16       1.0  0.1363210126152268  0.8670493654801631  0.12375844783645111  1.0000
  H   H17       1.0  0.4513622017400323  0.30116320786626005  0.5218458114907919  1.0000
  H   H18       1.0  0.2741196106949175  0.6990046283061843  0.47806756279407386  1.0000
  H   H19       1.0  0.7227044882575416  0.8012894875863594  0.9781475365103419  1.0000
  H   H20       1.0  0.5017594970207426  0.19894226910392376  0.022018833745079312  1.0000
  H   H21       1.0  0.29210943331214845  0.45984744036009306  0.5454666358941652  1.0000
  H   H22       1.0  0.2969880581771136  0.5403653515020608  0.45447413237642553  1.0000
  H   H23       1.0  0.5872844261047943  0.9599959747634871  0.954527659206093  1.0000
  H   H24       1.0  0.5015169473613951  0.040187639083058  0.04557065140151909  1.0000
  H   H25       1.0  0.4501805739229781  0.4601548293980925  0.683445779881204  1.0000
  H   H26       1.0  0.5932044374797765  0.5399884618623075  0.31639435564233764  1.0000
  H   H27       1.0  0.8834367163645639  0.9601746865169999  0.8165391708923551  1.0000
  H   H28       1.0  0.6600647488235866  0.03980744075857249  0.1835137915668525  1.0000
  H   H29       1.0  0.6184907697656781  0.3002721482815147  0.6662655451072226  1.0000
  H   H30       1.0  0.5847622878362698  0.6997706077889916  0.333600055806933  1.0000
  H   H31       1.0  0.03430038599417895  0.800199017455334  0.833675053976279  1.0000
  H   H32       1.0  0.6684507231788713  0.19969375415651314  0.16633780268249146  1.0000
  H   H33       1.0  0.47898729689526215  0.13058954966228947  0.680784490161699  1.0000
  H   H34       1.0  0.2904397913123446  0.8693659125756527  0.3192063386678186  1.0000
  H   H35       1.0  0.9090522270481359  0.6306750900716549  0.8192975196236675  1.0000
  H   H36       1.0  0.3586561314522996  0.36949921727767077  0.18086134233418255  1.0000
  H   H37       1.0  0.45438268249833424  0.11947888946647112  0.7817286851212728  1.0000
  H   H38       1.0  0.3558910831283412  0.8803046719543773  0.21826645845376194  1.0000
  H   H39       1.0  0.9852471237748548  0.6196355283586285  0.7183517669947647  1.0000
  H   H40       1.0  0.323167429058273  0.38065649690796005  0.2818019588554463  1.0000
  H   H41       1.0  0.8640888675848898  0.11720831259841448  0.7746445814896532  1.0000
  H   H42       1.0  0.7558401483096728  0.8832144259222898  0.22542112466877737  1.0000
  H   H43       1.0  0.38807946654598896  0.6169946506593503  0.7253122256269648  1.0000
  H   H44       1.0  0.7306118716240135  0.3829517598274207  0.27455655287590025  1.0000
  H   H45       1.0  0.9133149394481985  0.11613796201768882  0.6733343038400719  1.0000
  H   H46       1.0  0.7024219912600029  0.8844857411140623  0.32671410078944524  1.0000
  H   H47       1.0  0.3361627497992926  0.6158406567264691  0.8266090294495784  1.0000
  H   H48       1.0  0.7785028421661622  0.38407196436241975  0.1732496295163202  1.0000
  H   H49       1.0  0.7452669450424447  0.9190819029449028  0.6471722224808972  1.0000
  H   H50       1.0  0.31079172883726597  0.08129811752210972  0.3530582151623989  1.0000
  H   H51       1.0  0.14253877215799815  0.4189473653138405  0.8528678629268427  1.0000
  H   H52       1.0  0.4139882150845293  0.5812798801935203  0.1470019570537033  1.0000
  H   H53       1.0  0.9084599430939021  0.7689387174849144  0.6752099857637078  1.0000
  H   H54       1.0  0.3523790438413385  0.23126725167121254  0.3249653537764702  1.0000
  H   H55       1.0  0.3341738460232617  0.26898946705766485  0.8248110916084671  1.0000
  H   H56       1.0  0.4275697592743981  0.7312894204866964  0.17495245515579683  1.0000
  H   H57       1.0  0.26339659809580257  0.830302312556256  0.5969432147886451  1.0000
  H   H58       1.0  0.6907165270997806  0.1693393040583331  0.4031044917554212  1.0000
  H   H59       1.0  0.6102825222850825  0.3307993155749003  0.9031244357053937  1.0000
  H   H60       1.0  0.844110102624036  0.6691089687640427  0.09685673475486571  1.0000
  H   H61       1.0  0.11549742368023859  0.9824640065555598  0.5634362837169462  1.0000
  H   H62       1.0  0.66096987059062  0.0173451794359636  0.43665579071053173  1.0000
  H   H63       1.0  0.42845362306290025  0.4827847913540778  0.9366726286088466  1.0000
  H   H64       1.0  0.8478388920300546  0.5170862047110276  0.06341069492814462  1.0000
  H   H65       1.0  0.899439800117456  0.8700641628404497  0.5146623681503755  1.0000
  H   H66       1.0  0.2829671162352838  0.12987771998535183  0.4854966897510097  1.0000
  H   H67       1.0  0.1633005195267216  0.37020693259260173  0.985397429884337  1.0000
  H   H68       1.0  0.5192547314058938  0.6297148305721338  0.014564991810416886  1.0000
  H   H69       1.0  0.03760915111622878  0.7769033723415644  0.4338014399475085  1.0000
  H   H70       1.0  0.2480860590920316  0.2231240503940199  0.5662227919702261  1.0000
  H   H71       1.0  0.22137320553360226  0.2768600257911871  0.0661143537606321  1.0000
  H   H72       1.0  0.5646921290503073  0.7229479092606681  0.9337871795468901  1.0000
  H   H73       1.0  0.08961021693639984  0.008752286564430299  0.34987789491297866  1.0000
  H   H74       1.0  0.44851027260104104  0.9912510344935298  0.6500360385952035  1.0000
  H   H75       1.0  0.18981179167993642  0.5085537909139857  0.15007102662909233  1.0000
  H   H76       1.0  0.8486818470131964  0.49107931963053625  0.8498830656615866  1.0000
  H   H77       1.0  0.9569908414719775  0.1124660381256817  0.4278803184660092  1.0000
  H   H78       1.0  0.4972437718823811  0.8875262937489837  0.5720704309778313  1.0000
  H   H79       1.0  0.1349406294429301  0.612403292396415  0.0721425539177645  1.0000
  H   H80       1.0  0.8194237667887162  0.3873098508421293  0.9278225749268929  1.0000
  C   C1        1.0  0.8994968574563629  0.6245180843468956  0.5488396922898744  1.0000
  C   C2        1.0  0.0730050013630503  0.3754571900107422  0.4511628070627581  1.0000
  C   C3        1.0  0.1984998043041911  0.12447875008405868  0.9512258249426111  1.0000
  C   C4        1.0  0.27478235745442003  0.8753416145501516  0.0487799175510943  1.0000
  C   C5        1.0  0.9188640812095485  0.6194367694321058  0.4927665785413851  1.0000
  C   C6        1.0  0.03109297624901325  0.38064819618377044  0.5072243481899363  1.0000
  C   C7        1.0  0.1620289162149362  0.11906847675891898  0.007293570330993798  1.0000
  C   C8        1.0  0.28927157903969936  0.8805656852254699  0.9927028483161281  1.0000
  C   C9        1.0  0.807370935861016  0.619570603171752  0.468652708102873  1.0000
  C   C10       1.0  0.8955822060366498  0.3805506274315746  0.5313290397157076  1.0000
  C   C11       1.0  0.026512181965706823  0.11902857234478857  0.0314507162461339  1.0000
  C   C12       1.0  0.17810071429549607  0.8803918423685885  0.9684847252964773  1.0000
  C   C13       1.0  0.6755396292560576  0.626619334950405  0.5003200015560908  1.0000
  C   C14       1.0  0.8025659678266661  0.3734326851452251  0.4996538169711543  1.0000
  C   C15       1.0  0.9261880942743304  0.1262519121107175  0.9998313103147468  1.0000
  C   C16       1.0  0.05329966492522697  0.873181933956701  5.7067076070899445e-05  1.0000
  C   C17       1.0  0.6544591956223867  0.632835578178877  0.5563795438109836  1.0000
  C   C18       1.0  0.8438367832022351  0.3671534244102547  0.4435936923366341  1.0000
  C   C19       1.0  0.9609452367908914  0.13273530399030878  0.9437768106046108  1.0000
  C   C20       1.0  0.038184187984924595  0.8668626601443491  0.056122822446923196  1.0000
  C   C21       1.0  0.7675215029986333  0.630444514457416  0.5803582593959362  1.0000
  C   C22       1.0  0.9785439986281119  0.3695123195623395  0.41962742293013383  1.0000
  C   C23       1.0  0.0979072214024652  0.13051867965654648  0.9197664760571416  1.0000
  C   C24       1.0  0.14871802742698764  0.8692423087769752  0.0801968177340981  1.0000
  C   C25       1.0  0.019659490980487217  0.6219270909645755  0.5751223941207257  1.0000
  C   C26       1.0  0.21689501397528235  0.37810673904129993  0.4249189256677469  1.0000
  C   C27       1.0  0.3449079301425114  0.12200547049472017  0.9249061406365229  1.0000
  C   C28       1.0  0.3921431671050188  0.8780123403109881  0.07517502280866492  1.0000
  C   C29       1.0  0.5126573546597655  0.6394027158966509  0.5902996413708551  1.0000
  C   C30       1.0  0.7424984998955043  0.3605876171439276  0.4096967009502706  1.0000
  C   C31       1.0  0.8529965161766316  0.1394717882808294  0.9098733598468413  1.0000
  C   C32       1.0  0.9027724134696911  0.8603733590662443  0.08995297143515303  1.0000
  C   C33       1.0  0.6529052499401401  0.19324956717626654  0.578169353621668  1.0000
  C   C34       1.0  0.42411386364893355  0.8067771103134264  0.4217865755708844  1.0000
  C   C35       1.0  0.9805671033238994  0.6932429774443134  0.9218343338669542  1.0000
  C   C36       1.0  0.59555107117248  0.3067753985554518  0.07822142327769653  1.0000
  C   C37       1.0  0.7239108890190166  0.12224787237889247  0.6099204556041258  1.0000
  C   C38       1.0  0.4557635002371473  0.877878230879581  0.3900962301623068  1.0000
  C   C39       1.0  0.08328601312599186  0.6221846776850055  0.8901052903581999  1.0000
  C   C40       1.0  0.5952646090189403  0.3779192801313371  0.1099186809854658  1.0000
  C   C41       1.0  0.8263822243575804  0.0464147661408276  0.5788592392593515  1.0000
  C   C42       1.0  0.450992895830474  0.9536936860828288  0.42123087547958  1.0000
  C   C43       1.0  0.1547675410426661  0.5464353621087668  0.9212009016233084  1.0000
  C   C44       1.0  0.6221515077484484  0.45362313328197956  0.0787983612303123  1.0000
  C   C45       1.0  0.8314904368538051  0.060765122437466304  0.5239316799928276  1.0000
  C   C46       1.0  0.41540773086423144  0.939247226847655  0.47614159701605985  1.0000
  C   C47       1.0  0.10492796117055984  0.5608368038792976  0.9761215949065872  1.0000
  C   C48       1.0  0.6418679944831284  0.43910542477249237  0.023882576491622804  1.0000
  C   C49       1.0  0.5490084083246956  0.28458007123705187  0.5928404158562302  1.0000
  C   C50       1.0  0.42618267099263824  0.7155075619077139  0.4070581598075762  1.0000
  C   C51       1.0  0.8913731567363571  0.7845814845986891  0.9071393135218386  1.0000
  C   C52       1.0  0.5830689386764477  0.2154443534230522  0.0929428076858585  1.0000
  C   C53       1.0  0.45438376346060483  0.3316957972529337  0.5589202730264518  1.0000
  C   C54       1.0  0.3447078945367681  0.6684370826693921  0.4409884563248241  1.0000
  C   C55       1.0  0.7628712312006202  0.8317667740767263  0.9410636814497337  1.0000
  C   C56       1.0  0.5354939905955973  0.16835014462628098  0.05905340277670491  1.0000
  C   C57       1.0  0.3641260495180274  0.4214053590337983  0.5718285677678666  1.0000
  C   C58       1.0  0.356964999615947  0.5787613498177464  0.4280922211683844  1.0000
  C   C59       1.0  0.685631179874278  0.9215119009594019  0.9281660771409292  1.0000
  C   C60       1.0  0.5351256672682538  0.07860757387344107  0.071924442972005  1.0000
  C   C61       1.0  0.4517428957695555  0.421251547585122  0.648804639100682  1.0000
  C   C62       1.0  0.52137220396893  0.5788792705401347  0.3510772942050693  1.0000
  C   C63       1.0  0.8502847879242662  0.921279772651033  0.851181169978517  1.0000
  C   C64       1.0  0.6227530278005561  0.07872323394285978  0.1488630001586557  1.0000
  C   C65       1.0  0.5456670575270975  0.33164496528115706  0.6390551568377987  1.0000
  C   C66       1.0  0.5160568441139262  0.6684465274001142  0.360827012317678  1.0000
  C   C67       1.0  0.9343010046169546  0.831617171135612  0.8609100342638315  1.0000
  C   C68       1.0  0.6269575243352962  0.16835347843311874  0.13913260941846062  1.0000
  C   C69       1.0  0.6995903988646786  0.12265169959520959  0.6690944038254473  1.0000
  C   C70       1.0  0.4911775172970255  0.8775758328261247  0.3309281941812117  1.0000
  C   C71       1.0  0.11808074249490375  0.6225150128953344  0.8309347948815926  1.0000
  C   C72       1.0  0.5712603756065209  0.3775896896389383  0.16908404813720782  1.0000
  C   C73       1.0  0.567877310778023  0.1253785661691751  0.7000916726774875  1.0000
  C   C74       1.0  0.39338637465509424  0.8746619698234638  0.29990009188302486  1.0000
  C   C75       1.0  0.01728133416745683  0.6253650396100525  0.799963699527666  1.0000
  C   C76       1.0  0.44233480677777964  0.3748221390717531  0.20012921648849163  1.0000
  C   C77       1.0  0.5528110285653726  0.12110604249802039  0.7557062247949133  1.0000
  C   C78       1.0  0.4298046987974403  0.8788491819365305  0.24428953489597663  1.0000
  C   C79       1.0  0.05775149834486375  0.6211290271239489  0.7443468015873479  1.0000
  C   C80       1.0  0.42314191452383904  0.3790679923890464  0.2557452193082881  1.0000
  C   C81       1.0  0.7840195276473308  0.11746378694600419  0.7516918029673861  1.0000
  C   C82       1.0  0.6531058235217629  0.8828566716416476  0.24835364117594594  1.0000
  C   C83       1.0  0.2850662040928639  0.6172744657409481  0.7482993741634942  1.0000
  C   C84       1.0  0.6507298248792637  0.3827391219085429  0.2516399031889307  1.0000
  C   C85       1.0  0.8094824324314371  0.11793328203552278  0.695860254966462  1.0000
  C   C86       1.0  0.6230548026038673  0.8824694021993551  0.30418909437087654  1.0000
  C   C87       1.0  0.25475390331107667  0.6177046472594724  0.8041303665402992  1.0000
  C   C88       1.0  0.6764882254208544  0.38231962961224036  0.19581439135329504  1.0000
  C   C89       1.0  0.9175246092618748  0.9621837477822338  0.6016670677999798  1.0000
  C   C90       1.0  0.48075282919717915  0.037961920600110895  0.3985136867013069  1.0000
  C   C91       1.0  0.2689138932857918  0.46222505756925597  0.8984450506952085  1.0000
  C   C92       1.0  0.6293614281193736  0.537825493928402  0.10153279673559011  1.0000
  C   C93       1.0  0.8597341451340342  0.9024635048161681  0.6354165840213285  1.0000
  C   C94       1.0  0.3970285518148344  0.09777048542701999  0.36478964321153035  1.0000
  C   C95       1.0  0.245186472878366  0.40245257560379605  0.8646527168695783  1.0000
  C   C96       1.0  0.5119777727843696  0.5977119793684268  0.13525050823879783  1.0000
  C   C97       1.0  0.9502731745104712  0.8192852437747219  0.6515945286344902  1.0000
  C   C98       1.0  0.42082756460958143  0.18084885303548504  0.3485840315563991  1.0000
  C   C99       1.0  0.35210304173847384  0.31936582694205373  0.8484678954049727  1.0000
  C   C100      1.0  0.5196312270851069  0.6808036929631384  0.1513893204332675  1.0000
  C   C101      1.0  0.14794483396197924  0.8535221815541973  0.6073449004857708  1.0000
  C   C102      1.0  0.6086303580068345  0.1463423632014766  0.3927627183172434  1.0000
  C   C103      1.0  0.5052272752815696  0.35382387892832406  0.8927537776840141  1.0000
  C   C104      1.0  0.7516527524866775  0.6461441289811488  0.107218883084343  1.0000
  C   C105      1.0  0.0655274100204368  0.937423859748662  0.5886449804622131  1.0000
  C   C106      1.0  0.5911819800267751  0.0625084613267504  0.4114851932547694  1.0000
  C   C107      1.0  0.4038823527101271  0.4376559694911322  0.9114598343275447  1.0000
  C   C108      1.0  0.7528550010837307  0.5622944053339651  0.08855284730861261  1.0000
  C   C109      1.0  0.9162810424669987  0.0003107483482693999  0.4785085945753806  1.0000
  C   C110      1.0  0.3943752912796302  0.9996637608842887  0.5215592126670359  1.0000
  C   C111      1.0  0.1443829222139499  0.5003645032524914  0.02152999946407161  1.0000
  C   C112      1.0  0.666417087645016  0.49947389443471474  0.978446800429616  1.0000
  C   C113      1.0  0.9411818732955272  0.9039984539183549  0.4793421974727679  1.0000
  C   C114      1.0  0.323649713070125  0.09597670676956228  0.5207607981766742  1.0000
  C   C115      1.0  0.16995868729367208  0.40406685170472645  0.0206930220883876  1.0000
  C   C116      1.0  0.5950405987989951  0.5958048421200103  0.9792711930038891  1.0000
  C   C117      1.0  0.018275413552167916  0.8517328306384185  0.4336214118165529  1.0000
  C   C118      1.0  0.3032398222369751  0.14827161529426994  0.5664169067685734  1.0000
  C   C119      1.0  0.2017139758214839  0.351697106532697  0.06634264209501592  1.0000
  C   C120      1.0  0.6201075141048232  0.6481031328652878  0.933593350552826  1.0000
  C   C121      1.0  0.04655744910065339  0.9799149243403348  0.38730489622795267  1.0000
  C   C122      1.0  0.4137687351601684  0.020077067146310395  0.6126568894160513  1.0000
  C   C123      1.0  0.18397342955402954  0.4797944765012402  0.11266354297307402  1.0000
  C   C124      1.0  0.7766641816452657  0.519900929822036  0.8872948599396366  1.0000
  C   C125      1.0  0.9714432730394902  0.03830891652864919  0.430715821650523  1.0000
  C   C126      1.0  0.4401393080814486  0.9616692911675101  0.5692858133772846  1.0000
  C   C127      1.0  0.15199030855167459  0.5382756928412674  0.06930887186987181  1.0000
  C   C128      1.0  0.759709185943834  0.461472640234568  0.930671011740138  1.0000
  S   S1        1.0  0.7128449073373561  0.16618357664038544  0.5111091255065433  1.0000
  S   S2        1.0  0.38967765706004076  0.8337360093199637  0.48887527448556517  1.0000
  S   S3        1.0  0.9735001350174101  0.6662891228390676  0.9889063796544023  1.0000
  S   S4        1.0  0.6287860919816809  0.33362281989445114  0.01113914827318751  1.0000
  N   N1        1.0  0.3622390796120879  0.46597359701510743  0.6159879927979475  1.0000
  N   N2        1.0  0.44371476143851396  0.5342012392549691  0.38390465958117664  1.0000
  N   N3        1.0  0.7279852562375242  0.9660756851509972  0.884008127450663  1.0000
  N   N4        1.0  0.5779454548439773  0.034013700138281394  0.11605961393661351  1.0000
  N   N5        1.0  0.6582833494722563  0.11800760666788077  0.7810556859592737  1.0000
  N   N6        1.0  0.557523316087476  0.8820364695995193  0.218957455367395  1.0000
  N   N7        1.0  0.18861954996617666  0.6179224981966269  0.7189624797992097  1.0000
  N   N8        1.0  0.5255782448917473  0.3822050270766581  0.2810538077622837  1.0000
  N   N9        1.0  0.09220299919542176  0.7940396925809877  0.637132731030917  1.0000
  N   N10       1.0  0.523252818882426  0.20592356858026756  0.36299409739777394  1.0000
  N   N11       1.0  0.4795614631111745  0.2942622875965171  0.8629278604476911  1.0000
  N   N12       1.0  0.6365258794104065  0.7058301244783891  0.1369466530375263  1.0000
  N   N13       1.0  0.07140342996878259  0.8878404834771628  0.38793087836249646  1.0000
  N   N14       1.0  0.3471992752742851  0.11216302887006437  0.6120398644274374  1.0000
  N   N15       1.0  0.2094142005917162  0.3877256713241266  0.11200409153356358  1.0000
  N   N16       1.0  0.7095265961556549  0.6119909797642363  0.8879365119247212  1.0000
  O   O1        1.0  0.0028947266099804874  0.6157430871143034  0.6263104215828365  1.0000
  O   O2        1.0  0.24523650873226915  0.3843442222595356  0.37373599686554837  1.0000
  O   O3        1.0  0.37926951696966427  0.1159574574107154  0.8737132546243203  1.0000
  O   O4        1.0  0.36905335105013404  0.8841569119537168  0.12635600117840085  1.0000
  O   O5        1.0  0.13433212707273862  0.626460796489695  0.5455721048589268  1.0000
  O   O6        1.0  0.306548311943402  0.37347053823818743  0.45447390397322357  1.0000
  O   O7        1.0  0.43000936316032284  0.12663427003899128  0.9544320755131325  1.0000
  O   O8        1.0  0.5114070222003236  0.8735262021644772  0.04567617517558633  1.0000
  O   O9        1.0  0.5012880516265952  0.62221197755791  0.6399511218302862  1.0000
  O   O10       1.0  0.7634190108318962  0.3778965446540496  0.36005471241208653  1.0000
  O   O11       1.0  0.8913265049099333  0.12223072205645019  0.8602244276947957  1.0000
  O   O12       1.0  0.8741215077453146  0.8774152155173952  0.139628396652661  1.0000
  O   O13       1.0  0.4075406079823407  0.6621882935756248  0.5653061585044982  1.0000
  O   O14       1.0  0.6351874449994172  0.3377883380609248  0.4347254574934141  1.0000
  O   O15       1.0  0.7228724830286666  0.16232035987485455  0.934865909061628  1.0000
  O   O16       1.0  0.820310140792792  0.837872247785107  0.06490067831391855  1.0000
