data_image0
_chemical_formula_structural       Zn2H28C40N2O10
_chemical_formula_sum              "Zn2 H28 C40 N2 O10"
_cell_length_a       9.578877840646614
_cell_length_b       10.999160865773312
_cell_length_c       16.07354351712018
_cell_angle_alpha    89.69609190229072
_cell_angle_beta     90.23965174360336
_cell_angle_gamma    89.01941966858969

_space_group_name_H-M_alt    "P 1"
_space_group_IT_number       1

loop_
  _space_group_symop_operation_xyz
  'x, y, z'

loop_
  _atom_site_type_symbol
  _atom_site_label
  _atom_site_symmetry_multiplicity
  _atom_site_fract_x
  _atom_site_fract_y
  _atom_site_fract_z
  _atom_site_occupancy
  Zn  Zn1       1.0  0.3561878377584904  0.4988233048431282  0.5013337192731273  1.0000
  Zn  Zn2       1.0  0.640464489680241  0.49395512981077877  0.5005925055576911  1.0000
  H   H1        1.0  0.34878928139212917  0.6674978236551041  0.07470066564859222  1.0000
  H   H2        1.0  0.6068982934715734  0.3429273806723572  0.06721116474098923  1.0000
  H   H3        1.0  0.7233072430566095  0.8794123422030822  0.5336386339471348  1.0000
  H   H4        1.0  0.2818617548101585  0.884610838702436  0.48709929593921  1.0000
  H   H5        1.0  0.7243844251314259  0.10804873031807459  0.5261211050719865  1.0000
  H   H6        1.0  0.2820962564386775  0.1133328016922235  0.4820159520929793  1.0000
  H   H7        1.0  0.8670517919694304  0.4043508324052427  0.3885719832205155  1.0000
  H   H8        1.0  0.13528534420473187  0.4094897584665416  0.3883642735975317  1.0000
  H   H9        1.0  0.4526604990383163  0.8112972956568428  0.022478948271192706  1.0000
  H   H10       1.0  0.4455657464435702  0.014641590237985698  0.9580276726038908  1.0000
  H   H11       1.0  0.3579605081134146  0.0440662125817113  0.8142569762713381  1.0000
  H   H12       1.0  0.6096297092366001  0.6833955995969561  0.05878082328757023  1.0000
  H   H13       1.0  0.2680442863608761  0.8656318084138803  0.7352176602019471  1.0000
  H   H14       1.0  0.2723028274347286  0.6610304781296961  0.8002065990776048  1.0000
  H   H15       1.0  0.5766509557426716  0.7226592823176219  0.8229315603512009  1.0000
  H   H16       1.0  0.7273356442384299  0.8761285087106  0.7616627493233923  1.0000
  H   H17       1.0  0.9718145304651601  0.901601727653471  0.8138269245804397  1.0000
  H   H18       1.0  0.060661661611931095  0.7686492500691171  0.9286694951791719  1.0000
  H   H19       1.0  0.909092028147846  0.6123509161825851  0.9901038128856503  1.0000
  H   H20       1.0  0.3097671969261881  0.3452384994570465  0.8639298668600123  1.0000
  H   H21       1.0  0.6942117306860638  0.3053546862615519  0.9269392988158391  1.0000
  H   H22       1.0  0.1291780274125855  0.5893746957469972  0.6144527481542497  1.0000
  H   H23       1.0  0.8609558621405355  0.5871011008220961  0.6137697706488013  1.0000
  H   H24       1.0  0.7162604446755337  0.47675672326599267  0.9528293379832038  1.0000
  H   H25       1.0  0.2835740560956879  0.5448853378769128  0.9218383998599082  1.0000
  H   H26       1.0  0.7187777594158362  0.5581274876966162  0.08485992840417113  1.0000
  H   H27       1.0  0.2731298538706993  0.5235708981866123  0.062339992432448824  1.0000
  H   H28       1.0  0.42356449050323863  0.32924484840525275  0.07991867461405631  1.0000
  C   C1        1.0  0.502328915985011  0.7332108451962114  0.5104689831242697  1.0000
  C   C2        1.0  0.378123053760973  0.061106702477410096  0.49307168503607823  1.0000
  C   C3        1.0  0.5034981637503931  0.12341746252490539  0.5029515003977068  1.0000
  C   C4        1.0  0.5025219890751629  0.8692329036316407  0.5104446091184515  1.0000
  C   C5        1.0  0.9271685946663126  0.4453986628355582  0.43848493654450493  1.0000
  C   C6        1.0  0.07235518022247328  0.4476963717184645  0.4384803128924234  1.0000
  C   C7        1.0  0.49748928133124076  0.48737700154509156  0.6643206142783811  1.0000
  C   C8        1.0  0.0689549107030416  0.5492591759590084  0.5642321746534054  1.0000
  C   C9        1.0  0.923719923887383  0.547653988239503  0.5639837472233397  1.0000
  C   C10       1.0  0.5041233512425194  0.259228972839999  0.4977114628015117  1.0000
  C   C11       1.0  0.4922725677430931  0.5084837440196494  0.3376408324572254  1.0000
  C   C12       1.0  0.5048198986995657  0.3836963414230893  0.050338185503278524  1.0000
  C   C13       1.0  0.3734224807812653  0.5912486635733032  0.9496392278378141  1.0000
  C   C14       1.0  0.6471198938966012  0.5575432430704977  0.9556297265865938  1.0000
  C   C15       1.0  0.6254114593252564  0.5854070660881661  0.04910887349053891  1.0000
  C   C16       1.0  0.3636522143835421  0.5783619082159177  0.04549523043706221  1.0000
  C   C17       1.0  0.49321770213206406  0.5135178567205331  0.24777072121054294  1.0000
  C   C18       1.0  0.5046581587622185  0.5146903985358264  0.9186378265704251  1.0000
  C   C19       1.0  0.4970797004068075  0.5165963602677621  0.08187910761787263  1.0000
  C   C20       1.0  0.3649835602126785  0.7198953392120302  0.9155999656612226  1.0000
  C   C21       1.0  0.41130056230630885  0.8213991785709852  0.9594935345826205  1.0000
  C   C22       1.0  0.4077890856649232  0.9369781472858847  0.9233031755701833  1.0000
  C   C23       1.0  0.48063993277653344  0.3812982654104786  0.9554513985291212  1.0000
  C   C24       1.0  0.3577615326719794  0.9536692357628453  0.8423161327967181  1.0000
  C   C25       1.0  0.3084255772007864  0.853860236964742  0.7983635072324946  1.0000
  C   C26       1.0  0.3110287179908228  0.7384957055831264  0.8350024945549992  1.0000
  C   C27       1.0  0.7302110714867568  0.6559739589596562  0.9120711871929859  1.0000
  C   C28       1.0  0.6820768387822511  0.7310443476917924  0.8471062763216611  1.0000
  C   C29       1.0  0.7685278177916645  0.8184284718198214  0.8117759658835626  1.0000
  C   C30       1.0  0.9045327613127653  0.8329793158667581  0.8408814597961938  1.0000
  C   C31       1.0  0.9543334631817542  0.7584311043732442  0.9055615458219041  1.0000
  C   C32       1.0  0.8682336148163401  0.6708387686231774  0.9401604714627684  1.0000
  C   C33       1.0  0.33329531455381556  0.33977846384041027  0.931740405598575  1.0000
  C   C34       1.0  0.49402658650902953  0.5160732028639361  0.17216787626136926  1.0000
  C   C35       1.0  0.5808517009037287  0.2891554681270279  0.9160033289381604  1.0000
  C   C36       1.0  0.5060635226620603  0.5047308097818899  0.8288642252816348  1.0000
  C   C37       1.0  0.5015374494106126  0.4911054572748411  0.7539859126133168  1.0000
  C   C38       1.0  0.6275029615866997  0.9317002872279047  0.5220431561217254  1.0000
  C   C39       1.0  0.37776699654243356  0.9347726770219039  0.49631242338591636  1.0000
  C   C40       1.0  0.6281449028510478  0.0580267558606735  0.5178416859898436  1.0000
  N   N1        1.0  0.14141776162939831  0.49935562672396816  0.5014725637949058  1.0000
  N   N2        1.0  0.8548078580973879  0.49540459771893813  0.5011636882497827  1.0000
  O   O1        1.0  0.3846731813343425  0.6821368427042458  0.5013993482454071  1.0000
  O   O2        1.0  0.5433613296336118  0.20029977701364024  0.8773761355055716  1.0000
  O   O3        1.0  0.6196327747533631  0.6777502672776166  0.5183684299514584  1.0000
  O   O4        1.0  0.37771326852877957  0.5009250113283912  0.630348378443799  1.0000
  O   O5        1.0  0.6140523813179826  0.47251968603644906  0.6278067485610423  1.0000
  O   O6        1.0  0.3863466820687407  0.3146648124987408  0.5026293111886917  1.0000
  O   O7        1.0  0.621891232877239  0.309889274339838  0.4889232323010973  1.0000
  O   O8        1.0  0.37384184896670547  0.4977693300248802  0.3724647060719307  1.0000
  O   O9        1.0  0.6103882876120538  0.5152054994724794  0.3741361242754665  1.0000
  O   O10       1.0  0.24841462377570883  0.3019005606456915  0.981300951147212  1.0000
