data_image0
_chemical_formula_structural       CuH20C22N4O6
_chemical_formula_sum              "Cu1 H20 C22 N4 O6"
_cell_length_a       5.00571869406274
_cell_length_b       8.805005149745199
_cell_length_c       12.766211412508705
_cell_angle_alpha    102.23426676661046
_cell_angle_beta     100.63533125166136
_cell_angle_gamma    105.39328489185662

_space_group_name_H-M_alt    "P 1"
_space_group_IT_number       1

loop_
  _space_group_symop_operation_xyz
  'x, y, z'

loop_
  _atom_site_type_symbol
  _atom_site_label
  _atom_site_symmetry_multiplicity
  _atom_site_fract_x
  _atom_site_fract_y
  _atom_site_fract_z
  _atom_site_occupancy
  Cu  Cu1       1.0  0.9999984586696301  0.4999996019948442  0.9999976404460612  1.0000
  H   H1        1.0  0.31011656861208775  0.8371973710439987  0.13470763072368191  1.0000
  H   H2        1.0  0.6898763951304473  0.16280592967042645  0.8652934301591344  1.0000
  H   H3        1.0  0.30482950838220546  0.02352155359244529  0.31447632304624323  1.0000
  H   H4        1.0  0.6951545831577304  0.9764805189073511  0.6855200188287185  1.0000
  H   H5        1.0  0.9251849284714238  0.9304299764848876  0.4079475439202156  1.0000
  H   H6        1.0  0.0748101047805037  0.0695733288382598  0.5920560128999668  1.0000
  H   H7        1.0  0.5826207028301126  0.48289007347200646  0.1409486543445695  1.0000
  H   H8        1.0  0.41738103959725226  0.5171107640664017  0.8590518793068752  1.0000
  H   H9        1.0  0.3617496114834608  0.5175125251279765  0.2775362110843673  1.0000
  H   H10       1.0  0.6382528012153585  0.4824895355222054  0.7224637651057577  1.0000
  H   H11       1.0  0.2033465845300452  0.8018113642591228  0.5760199738495261  1.0000
  H   H12       1.0  0.7966550897483414  0.19818578633264386  0.42397688265610606  1.0000
  H   H13       1.0  0.1815378767397888  0.35391381666750016  0.35393293306559315  1.0000
  H   H14       1.0  0.8184624316268835  0.646080883256715  0.646063469269258  1.0000
  H   H15       1.0  0.675185942529879  0.0096796555405874  0.08313071900717972  1.0000
  H   H16       1.0  0.32481987549425645  0.990321180105248  0.9168708837854282  1.0000
  H   H17       1.0  0.5013669460387574  0.14087094263262404  0.14802857572728104  1.0000
  H   H18       1.0  0.498641624450613  0.8591311229557022  0.8519757500880801  1.0000
  H   H19       1.0  0.8156575296292985  0.11467363180628348  0.22639490422042036  1.0000
  H   H20       1.0  0.18435369185012007  0.885329645948502  0.7736058682439975  1.0000
  C   C1        1.0  0.14640049956093984  0.8034031847318841  0.1783297246220243  1.0000
  C   C2        1.0  0.853593795270548  0.19659521053285536  0.8216707125136651  1.0000
  C   C3        1.0  0.14060683635361218  0.9048776698922864  0.2766621523448407  1.0000
  C   C4        1.0  0.8593834082499043  0.09512073170904498  0.7233387847431061  1.0000
  C   C5        1.0  0.9286944454089507  0.8538330517901326  0.32999777085806414  1.0000
  C   C6        1.0  0.07130527824662639  0.1461677900275689  0.6700034050428627  1.0000
  C   C7        1.0  0.7216110917142798  0.6988366324068236  0.2816627008747403  1.0000
  C   C8        1.0  0.2783845690289226  0.3011642135254675  0.7183381904317373  1.0000
  C   C9        1.0  0.7387769211440797  0.6038162490076784  0.1810505159786402  1.0000
  C   C10       1.0  0.26121602518707476  0.39618337364812817  0.8189500059452187  1.0000
  C   C11       1.0  0.45679668519434086  0.6951277638626008  0.4271802624947298  1.0000
  C   C12       1.0  0.5432071140580063  0.30487307606252034  0.5728219825473602  1.0000
  C   C13       1.0  0.2179249881249062  0.5899488556385675  0.4608555934864143  1.0000
  C   C14       1.0  0.7820773643823526  0.4100458444503585  0.5391417356923753  1.0000
  C   C15       1.0  0.11415555226896139  0.6690010324671574  0.5440708238607925  1.0000
  C   C16       1.0  0.8858535648783175  0.3309948845616617  0.45592637474834424  1.0000
  C   C17       1.0  0.10176975514203677  0.4193293620794945  0.417154122527819  1.0000
  C   C18       1.0  0.8982380135049084  0.5806677823403986  0.5828431608694872  1.0000
  C   C19       1.0  0.8953064023459731  0.26568081383165076  0.11519977328038072  1.0000
  C   C20       1.0  0.10469595961524185  0.7343212379305086  0.8847970647228962  1.0000
  C   C21       1.0  0.7106074355795683  0.12462760994728941  0.14618739348652102  1.0000
  C   C22       1.0  0.28940722132094965  0.87537812308377  0.8538163290860511  1.0000
  N   N1        1.0  0.948034425071036  0.654259295983337  0.13195399565861976  1.0000
  N   N2        1.0  0.0519565151727335  0.3457403331737723  0.8680479530614349  1.0000
  N   N3        1.0  0.5028763911068664  0.6286382486052275  0.32714304821602985  1.0000
  N   N4        1.0  0.49711992722339454  0.3713638182168281  0.6728565010824213  1.0000
  O   O1        1.0  0.6019220692562895  0.8334126109611332  0.4881174458607306  1.0000
  O   O2        1.0  0.3980722715858178  0.16658211735500564  0.5118863750495564  1.0000
  O   O3        1.0  0.762814461140465  0.31047663068621734  0.0359516918910217  1.0000
  O   O4        1.0  0.23718454150605342  0.6895229791316949  0.9640469032843839  1.0000
  O   O5        1.0  0.15695717134359197  0.3316577923748767  0.1636142733227359  1.0000
  O   O6        1.0  0.8430431163812597  0.6683405789419439  0.8363803143309314  1.0000
