data_image0
_chemical_formula_structural       Mn4H24C8O24
_chemical_formula_sum              "Mn4 H24 C8 O24"
_cell_length_a       7.091930616568432
_cell_length_b       8.805031413608265
_cell_length_c       9.574538373345185
_cell_angle_alpha    97.84102808161722
_cell_angle_beta     89.99720549055483
_cell_angle_gamma    90.00280068771451

_space_group_name_H-M_alt    "P 1"
_space_group_IT_number       1

loop_
  _space_group_symop_operation_xyz
  'x, y, z'

loop_
  _atom_site_type_symbol
  _atom_site_label
  _atom_site_symmetry_multiplicity
  _atom_site_fract_x
  _atom_site_fract_y
  _atom_site_fract_z
  _atom_site_occupancy
  Mn  Mn1       1.0  1.6860928084999972e-06  0.9999966865054687  0.9999984941583903  1.0000
  Mn  Mn2       1.0  0.4999962032223236  3.980644386600021e-06  0.5000034552906527  1.0000
  Mn  Mn3       1.0  0.500004553310333  0.4999974837201933  8.121880198992629e-07  1.0000
  Mn  Mn4       1.0  6.483167020100002e-06  0.49999891785254397  0.5000024521861447  1.0000
  H   H1        1.0  0.7549842576234836  0.0887600933349617  0.7528861267917434  1.0000
  H   H2        1.0  0.25502143849828934  0.9111921736960795  0.7471636082270476  1.0000
  H   H3        1.0  0.24500042121763949  0.9112345546108568  0.24711569804337322  1.0000
  H   H4        1.0  0.7449674711833864  0.08881622766333658  0.2528305374318903  1.0000
  H   H5        1.0  0.36949342578787275  0.7617886204192245  0.9546034379787894  1.0000
  H   H6        1.0  0.8694626224245282  0.23819514762137567  0.5454295658660511  1.0000
  H   H7        1.0  0.6305081738954214  0.23820143823520817  0.04538841241922849  1.0000
  H   H8        1.0  0.13054179729400767  0.7618086734169226  0.4545765396764167  1.0000
  H   H9        1.0  0.04430792197597809  0.3325123334931845  0.8750523322695896  1.0000
  H   H10       1.0  0.5442948932988825  0.6673259114053777  0.6248598733367956  1.0000
  H   H11       1.0  0.9556880374347755  0.6674891936750881  0.12495139753628585  1.0000
  H   H12       1.0  0.45569824613072996  0.3326790545840694  0.37514324234672347  1.0000
  H   H13       1.0  0.5888597634111576  0.7973919768817124  0.9826272779682624  1.0000
  H   H14       1.0  0.0888203466450221  0.20257971421747095  0.5174285488443713  1.0000
  H   H15       1.0  0.41114183629606055  0.2026003750668366  0.017365903803828093  1.0000
  H   H16       1.0  0.9111840730137712  0.797421813955026  0.48257726981447024  1.0000
  H   H17       1.0  0.39716497151308516  0.29342206870420273  0.7676531713541903  1.0000
  H   H18       1.0  0.8969439060468857  0.7065603029413551  0.7322189046100644  1.0000
  H   H19       1.0  0.6028380380206569  0.706572579561346  0.23234865320375053  1.0000
  H   H20       1.0  0.1030520534772421  0.2934400760807208  0.26778050379222407  1.0000
  H   H21       1.0  0.34687912072158156  0.4590796175111507  0.7241315556674977  1.0000
  H   H22       1.0  0.8467803799000605  0.54093427686675  0.7758151353614264  1.0000
  H   H23       1.0  0.6531323491258901  0.5409161777631937  0.27587145669477303  1.0000
  H   H24       1.0  0.15321980975998167  0.45906380893498516  0.22418294160282665  1.0000
  C   C1        1.0  0.809617003900918  0.9752131344450629  0.7081448192805125  1.0000
  C   C2        1.0  0.30963116300376464  0.0247719643262272  0.7918402894368481  1.0000
  C   C3        1.0  0.19037754567751364  0.024794124006447798  0.2918575387748773  1.0000
  C   C4        1.0  0.6903619767422027  0.9752341446695069  0.20815461376494673  1.0000
  C   C5        1.0  0.9026197827915395  0.33191196010794505  0.9231923667345183  1.0000
  C   C6        1.0  0.4026003101078359  0.6680947416869569  0.5768319156298174  1.0000
  C   C7        1.0  0.09739309775411437  0.6680975889591281  0.07680401098466656  1.0000
  C   C8        1.0  0.59740410961664  0.3319079324901182  0.42317300198038754  1.0000
  O   O1        1.0  0.9147274607420286  0.904564559470863  0.7851467518887743  1.0000
  O   O2        1.0  0.41480194952752203  0.09534624970036282  0.7148254231480349  1.0000
  O   O3        1.0  0.0852642683595519  0.09543123545915219  0.2148562607719952  1.0000
  O   O4        1.0  0.5851954201871833  0.9046552744942246  0.2851709952034226  1.0000
  O   O5        1.0  0.49977655464784465  0.7255300821127262  0.9270064788430827  1.0000
  O   O6        1.0  0.9997404194752874  0.2744719836810248  0.5730138614890236  1.0000
  O   O7        1.0  0.5002264549454906  0.2744599782796088  0.07298954949538229  1.0000
  O   O8        1.0  0.00026400011783069997  0.725528398486908  0.42699285821844046  1.0000
  O   O9        1.0  0.7612379540789291  0.9225331758005312  0.5828687080232411  1.0000
  O   O10       1.0  0.26116493792944334  0.07755453943460108  0.9170828717245668  1.0000
  O   O11       1.0  0.23876082566513188  0.07746605512453189  0.4171263789328207  1.0000
  O   O12       1.0  0.7388366620645711  0.9224515705653575  0.0829141203301873  1.0000
  O   O13       1.0  0.37119377847997725  0.40187844631677183  0.8056342731952666  1.0000
  O   O14       1.0  0.8708404213692089  0.5981202199330155  0.6942564091677281  1.0000
  O   O15       1.0  0.6288176915346637  0.5981196405383784  0.19436589257930584  1.0000
  O   O16       1.0  0.1291625883914378  0.40187901277914045  0.3057428556861409  1.0000
  O   O17       1.0  0.7924406610797731  0.4420280720881706  0.908322066501128  1.0000
  O   O18       1.0  0.2922344099083888  0.5580837123867893  0.5917640907591488  1.0000
  O   O19       1.0  0.20755388856418475  0.5579734516288966  0.09167330740252308  1.0000
  O   O20       1.0  0.7077671897214161  0.44191666801864216  0.4082384510291844  1.0000
  O   O21       1.0  0.8592747229296264  0.22004647830525667  0.9893152456318003  1.0000
  O   O22       1.0  0.35934694936246797  0.7799839246662827  0.5106894786164772  1.0000
  O   O23       1.0  0.1407184161773856  0.7799447300611106  0.010685104259493986  1.0000
  O   O24       1.0  0.6406476002220598  0.2200290676630131  0.489317774609759  1.0000
