data_image0
_chemical_formula_structural       Cu2H32C48N6O10
_chemical_formula_sum              "Cu2 H32 C48 N6 O10"
_cell_length_a       9.477993874562628
_cell_length_b       9.477945561880182
_cell_length_c       11.877438772632292
_cell_angle_alpha    81.58029018474271
_cell_angle_beta     81.58035287754917
_cell_angle_gamma    82.59170100543658

_space_group_name_H-M_alt    "P 1"
_space_group_IT_number       1

loop_
  _space_group_symop_operation_xyz
  'x, y, z'

loop_
  _atom_site_type_symbol
  _atom_site_label
  _atom_site_symmetry_multiplicity
  _atom_site_fract_x
  _atom_site_fract_y
  _atom_site_fract_z
  _atom_site_occupancy
  Cu  Cu1       1.0  0.8883999291806293  0.11159863040815308  0.750001077656876  1.0000
  Cu  Cu2       1.0  0.11159454143714244  0.8884048899260079  0.2500009855264409  1.0000
  H   H1        1.0  0.7501152827366796  0.0584237847572098  0.9350735179913559  1.0000
  H   H2        1.0  0.9415768960173384  0.24988279739184086  0.5649284331778119  1.0000
  H   H3        1.0  0.24988142596138377  0.9415786368888418  0.06492504322216773  1.0000
  H   H4        1.0  0.0584220602195131  0.7501185350229774  0.435073359305463  1.0000
  H   H5        1.0  0.3618026670096128  0.907773339983663  0.8685481037368562  1.0000
  H   H6        1.0  0.09222933016244639  0.638197071818439  0.6314507358473735  1.0000
  H   H7        1.0  0.6381919051670836  0.09222910142055701  0.13144986492670094  1.0000
  H   H8        1.0  0.9077708023967332  0.36180317828897307  0.36855188749331086  1.0000
  H   H9        1.0  0.8392788822892713  0.9961044731464239  0.5351006034372718  1.0000
  H   H10       1.0  0.003895350800533499  0.16071787907358012  0.964901497101657  1.0000
  H   H11       1.0  0.1607187901547604  0.003899014595212701  0.46490024443365746  1.0000
  H   H12       1.0  0.9961017925087534  0.8392802552233576  0.035100885751411647  1.0000
  H   H13       1.0  0.41932929585583173  0.7298115191768773  0.6277574702980645  1.0000
  H   H14       1.0  0.2701899638953762  0.5806692186117458  0.8722433669334893  1.0000
  H   H15       1.0  0.5806721145846083  0.2701865696931662  0.3722418893802556  1.0000
  H   H16       1.0  0.7298139031132821  0.41932562907774695  0.12775524324975154  1.0000
  H   H17       1.0  0.3483194969528114  0.6077584717863687  0.47756556669899913  1.0000
  H   H18       1.0  0.3922444207579758  0.6516810620014014  0.02243424507504699  1.0000
  H   H19       1.0  0.6516778577505207  0.3922375129254618  0.5224345186991357  1.0000
  H   H20       1.0  0.6077629622707053  0.3483212525790337  0.97756138730378  1.0000
  H   H21       1.0  0.47822418257769783  0.6377992738529983  0.2783468146581072  1.0000
  H   H22       1.0  0.36220034617365837  0.5217764471732238  0.22165422884234692  1.0000
  H   H23       1.0  0.5217753039177496  0.362196686372215  0.721650496670229  1.0000
  H   H24       1.0  0.6378024508593185  0.4782291354386032  0.7783466104112264  1.0000
  H   H25       1.0  0.6809158715617585  0.7865243203239203  0.2314860223534013  1.0000
  H   H26       1.0  0.21347491937705604  0.31908469964212577  0.26851507965406546  1.0000
  H   H27       1.0  0.31908116073009296  0.21347488344607507  0.7685137217799038  1.0000
  H   H28       1.0  0.7865255238289495  0.6809230464024268  0.7314832562297654  1.0000
  H   H29       1.0  0.7581652729795538  0.9023704550864123  0.3830834721054261  1.0000
  H   H30       1.0  0.0976297012083975  0.24183369851650846  0.11691854745123462  1.0000
  H   H31       1.0  0.24183816296481814  0.09762868349852029  0.6169138414030969  1.0000
  H   H32       1.0  0.9023718237964076  0.7581633244268104  0.8830859759116763  1.0000
  C   C1        1.0  0.639894320812772  0.033871114412519894  0.963298645022846  1.0000
  C   C2        1.0  0.9661275781708555  0.36010343802611544  0.5367018835702383  1.0000
  C   C3        1.0  0.3601002572754838  0.9661313329022576  0.036703531915421236  1.0000
  C   C4        1.0  0.0338692403623213  0.63989791296477  0.4632984747081182  1.0000
  C   C5        1.0  0.4225376048091648  0.9476881451002153  0.9260772961677547  1.0000
  C   C6        1.0  0.05231189556145919  0.5774599387274435  0.5739246402656734  1.0000
  C   C7        1.0  0.5774560107154444  0.052313237301085294  0.07392343576805158  1.0000
  C   C8        1.0  0.9476858831707491  0.4225424748126869  0.4260754797052543  1.0000
  C   C9        1.0  0.5634775955896814  0.9821101141271315  0.8875926908394477  1.0000
  C   C10       1.0  0.0178900181731692  0.43652163847276887  0.6124073651887728  1.0000
  C   C11       1.0  0.43651922176118774  0.017891235681645395  0.11240682578396391  1.0000
  C   C12       1.0  0.9821100033685825  0.5634796811076939  0.3875926194321338  1.0000
  C   C13       1.0  0.6267799576824516  0.965192017204025  0.7715804420685544  1.0000
  C   C14       1.0  0.03480586215269451  0.37321935894996733  0.7284198797700014  1.0000
  C   C15       1.0  0.37321920640151524  0.034807162079360396  0.22841652799495193  1.0000
  C   C16       1.0  0.9651912823388997  0.6267787765290792  0.2715833447380049  1.0000
  C   C17       1.0  0.754202504876659  0.9690578472572465  0.6033760422763026  1.0000
  C   C18       1.0  0.030943228169618902  0.2457941313226897  0.8966276021203117  1.0000
  C   C19       1.0  0.24579655764837582  0.030942410956072315  0.3966250223069708  1.0000
  C   C20       1.0  0.96905925585191  0.7542039529877657  0.10337584128023293  1.0000
  C   C21       1.0  0.6407409080227212  0.8936710744678463  0.6016466951220423  1.0000
  C   C22       1.0  0.10632822981413173  0.3592563989747575  0.8983553902444615  1.0000
  C   C23       1.0  0.35925751435013353  0.10632489977384553  0.39835326572360696  1.0000
  C   C24       1.0  0.8936754246181594  0.640740597117734  0.10164467573877548  1.0000
  C   C25       1.0  0.5952894013246562  0.8219287288578059  0.5158159573000277  1.0000
  C   C26       1.0  0.17807280793301317  0.40470714470134067  0.9841842741460525  1.0000
  C   C27       1.0  0.4047103060233327  0.17806509123919056  0.48418578981291205  1.0000
  C   C28       1.0  0.8219341522490993  0.5952887422328954  0.015812165314912453  1.0000
  C   C29       1.0  0.4791157531903566  0.7390479530341949  0.5419707379176729  1.0000
  C   C30       1.0  0.26095356830280275  0.5208827078284415  0.9580301074739667  1.0000
  C   C31       1.0  0.5208834168051695  0.26095123215974064  0.45803044042055063  1.0000
  C   C32       1.0  0.7390478374083925  0.47911537631316053  0.041965885584580975  1.0000
  C   C33       1.0  0.4378596853803528  0.6726202536655778  0.45670765857151724  1.0000
  C   C34       1.0  0.32738066009121525  0.5621429099839546  0.04329299145744872  1.0000
  C   C35       1.0  0.5621448217804854  0.32737887799554943  0.5432920553493474  1.0000
  C   C36       1.0  0.6726220294128  0.4378530188308433  0.9567039462134448  1.0000
  C   C37       1.0  0.5108067874765325  0.6887439390253149  0.3453309067267725  1.0000
  C   C38       1.0  0.3112575848547792  0.4891955807076231  0.15466886341468475  1.0000
  C   C39       1.0  0.4891972838907678  0.31125947880281063  0.6546641438996164  1.0000
  C   C40       1.0  0.6887437216621067  0.5108035847281442  0.8453329074735124  1.0000
  C   C41       1.0  0.6257309053782194  0.7717093344469461  0.3189412338255196  1.0000
  C   C42       1.0  0.22829410546568601  0.37426698026795435  0.1810580007802898  1.0000
  C   C43       1.0  0.37427359823568207  0.22828979366784816  0.6810559551305246  1.0000
  C   C44       1.0  0.7717094438607434  0.6257310912081451  0.8189436347578862  1.0000
  C   C45       1.0  0.6687060421675923  0.8374183367616438  0.4035408829171203  1.0000
  C   C46       1.0  0.1625809861994583  0.33129223617561376  0.0964604714582151  1.0000
  C   C47       1.0  0.3312933439512308  0.16257870357562607  0.5964613645859275  1.0000
  C   C48       1.0  0.8374245886309029  0.668706885015375  0.9035391179101709  1.0000
  N   N1        1.0  0.7442496654159356  0.013322185234493104  0.7109288972620931  1.0000
  N   N2        1.0  0.9866784965286471  0.25574838428818936  0.7890739042537265  1.0000
  N   N3        1.0  0.2557501411848264  0.9866812803847508  0.28907085984893405  1.0000
  N   N4        1.0  0.013318971556742575  0.7442465333148008  0.21093050317405476  1.0000
  N   N5        1.0  0.11099612344195015  0.8890038928642384  0.7500008080535566  1.0000
  N   N6        1.0  0.8889993061925383  0.11100068883706628  0.25000017516739353  1.0000
  O   O1        1.0  0.560051167432043  0.8915494694489681  0.7086808384558837  1.0000
  O   O2        1.0  0.10845187831638015  0.43994850115179673  0.7913190341635925  1.0000
  O   O3        1.0  0.43994757380535543  0.10844328218821893  0.29131693868977493  1.0000
  O   O4        1.0  0.8915569030694929  0.5600505921751022  0.20868270651217102  1.0000
  O   O5        1.0  0.047709534842496695  0.9313831619290269  0.8441117992153908  1.0000
  O   O6        1.0  0.06861565362832782  0.9522900406808431  0.6558891550352116  1.0000
  O   O7        1.0  0.9522830201064567  0.06861823803507862  0.15589410720254898  1.0000
  O   O8        1.0  0.9313833959497373  0.047720931345679694  0.34410643917144074  1.0000
  O   O9        1.0  0.2107741428697878  0.7892298607873941  0.7499995089310758  1.0000
  O   O10       1.0  0.7892244897732753  0.21077468950348785  0.2500011006324315  1.0000
