data_image0
_chemical_formula_structural       Dy2H26C42N12O40
_chemical_formula_sum              "Dy2 H26 C42 N12 O40"
_cell_length_a       9.22419936716148
_cell_length_b       11.52573384792955
_cell_length_c       13.7207
_cell_angle_alpha    107.54155764244615
_cell_angle_beta     90.49191048774782
_cell_angle_gamma    93.590360005137

_space_group_name_H-M_alt    "P 1"
_space_group_IT_number       1

loop_
  _space_group_symop_operation_xyz
  'x, y, z'

loop_
  _atom_site_type_symbol
  _atom_site_label
  _atom_site_symmetry_multiplicity
  _atom_site_fract_x
  _atom_site_fract_y
  _atom_site_fract_z
  _atom_site_occupancy
  Dy  Dy1       1.0  0.2678522121937448  0.9882627182644939  0.00660649486111  1.0000
  Dy  Dy2       1.0  0.7321483578465262  0.011739288021871602  0.9933940163835758  1.0000
  H   H1        1.0  0.7679402198023908  0.23605262945019231  0.22153035103397664  1.0000
  H   H2        1.0  0.2320591917710644  0.7639484647634518  0.7784691937785767  1.0000
  H   H3        1.0  0.2588997661379153  0.30803340877474744  0.05337175373585273  1.0000
  H   H4        1.0  0.7411006552585063  0.6919667733661754  0.9466275659852744  1.0000
  H   H5        1.0  0.22681828075606353  0.3427514569879975  0.2612207602878982  1.0000
  H   H6        1.0  0.7731809078516179  0.6572469010074826  0.7387795481295856  1.0000
  H   H7        1.0  0.9186033291292334  0.5853171977554297  0.43354767895012003  1.0000
  H   H8        1.0  0.0813959338003798  0.4146820723127719  0.5664528608162486  1.0000
  H   H9        1.0  0.7075890085789496  0.44185910324959116  0.11773146992650403  1.0000
  H   H10       1.0  0.2924103286725881  0.5581410788913318  0.8822685723629535  1.0000
  H   H11       1.0  0.3712799213201947  0.6966174321823928  0.17150154258856534  1.0000
  H   H12       1.0  0.6287194159313358  0.30338274995853  0.8284984997008921  1.0000
  H   H13       1.0  0.7118392503781408  0.8750863502456598  0.6914254576348143  1.0000
  H   H14       1.0  0.28816247812893886  0.1249165681134343  0.308576020041997  1.0000
  H   H15       1.0  0.2657569954738078  0.951268136533841  0.6537521431613202  1.0000
  H   H16       1.0  0.7342442871017241  0.0487293093889107  0.34624648877061764  1.0000
  H   H17       1.0  0.5197017834634251  0.7989857384298631  0.38859205245434947  1.0000
  H   H18       1.0  0.4802986379329964  0.2010144437110597  0.6114072672667774  1.0000
  H   H19       1.0  0.22593949077077718  0.1407674799720411  0.8711410276983999  1.0000
  H   H20       1.0  0.7740609306256444  0.8592327021688817  0.12885902084851614  1.0000
  H   H21       1.0  0.0657356396985804  0.1246320014237554  0.9082551046320192  1.0000
  H   H22       1.0  0.93426369755295  0.8753681807171676  0.09174566648323437  1.0000
  H   H23       1.0  0.1655044707135573  0.9096712358413015  0.18329292935040806  1.0000
  H   H24       1.0  0.834496025004789  0.0903298583723426  0.8167066217196111  1.0000
  H   H25       1.0  0.13808163384967287  0.78812842473144  0.09586806067685678  1.0000
  H   H26       1.0  0.8619177034018576  0.2118717574094831  0.9041327104383896  1.0000
  C   C1        1.0  0.0329305233026886  0.16450599674193714  0.14829806351541922  1.0000
  C   C2        1.0  0.9670677298039649  0.8354941853989857  0.8517005148650086  1.0000
  C   C3        1.0  0.8570105235164007  0.3019526199283646  0.25768586137855465  1.0000
  C   C4        1.0  0.1429887394132123  0.6980466501398368  0.7423146783878141  1.0000
  C   C5        1.0  0.535709072451013  0.23327536800768206  0.04872074168188332  1.0000
  C   C6        1.0  0.46429134894540874  0.766724814133241  0.9512793068650326  1.0000
  C   C7        1.0  0.0007412748483161964  0.277662299160859  0.2318430907669509  1.0000
  C   C8        1.0  0.9992580624032142  0.7223378829800637  0.7681562226967175  1.0000
  C   C9        1.0  0.48799879400055346  0.3613942234526917  0.08411575936849403  1.0000
  C   C10       1.0  0.5120027115407524  0.6386059586882312  0.9158835666100915  1.0000
  C   C11       1.0  0.3408534739480586  0.3836424133926783  0.08171307463548062  1.0000
  C   C12       1.0  0.65914803159324  0.6163577687482444  0.9182869801688939  1.0000
  C   C13       1.0  0.8301705991415247  0.41082674091128984  0.33153226330708213  1.0000
  C   C14       1.0  0.1698286637880884  0.5891725291569118  0.6684675476334976  1.0000
  C   C15       1.0  0.08166704155062379  0.4717860334472235  0.3493918327223399  1.0000
  C   C16       1.0  0.9183321470570647  0.5282123245482495  0.6506077468693549  1.0000
  C   C17       1.0  0.1145686585779231  0.3618903910141782  0.27943163593143083  1.0000
  C   C18       1.0  0.8854295202068059  0.6381088790540163  0.7205681687516903  1.0000
  C   C19       1.0  0.9403892451927475  0.498704947803347  0.37812698755948304  1.0000
  C   C20       1.0  0.0596100177368655  0.5012943222648546  0.6218728233810966  1.0000
  C   C21       1.0  0.592826862798489  0.4587826126308272  0.11753548759415375  1.0000
  C   C22       1.0  0.4071735585979326  0.5412175695100956  0.8824638321269733  1.0000
  C   C23       1.0  0.5486593764237355  0.577373044335296  0.14852187224276042  1.0000
  C   C24       1.0  0.4513421291175703  0.4226271378056268  0.8514789113874031  1.0000
  C   C25       1.0  0.30213464893144953  0.5041190114889815  0.11258457531879171  1.0000
  C   C26       1.0  0.6978667822879318  0.49588025857922  0.8874152481366978  1.0000
  C   C27       1.0  0.4034542565478176  0.6033014477138892  0.1472851684787528  1.0000
  C   C28       1.0  0.5965462391705287  0.396699646499755  0.8527151114170552  1.0000
  C   C29       1.0  0.481897307900482  0.9647959991661496  0.8001564996610855  1.0000
  C   C30       1.0  0.5181021779949049  0.0352060071202231  0.1998425476745638  1.0000
  C   C31       1.0  0.488177664350502  0.9189606965283305  0.6851954151983365  1.0000
  C   C32       1.0  0.5118205887561443  0.0810394856125924  0.3148038920078805  1.0000
  C   C33       1.0  0.6186761869008137  0.875521408934688  0.6422678677257425  1.0000
  C   C34       1.0  0.3813242344956079  0.12447877320623493  0.35773290964696264  1.0000
  C   C35       1.0  0.36838320493841076  0.9183523440218765  0.6217955745206256  1.0000
  C   C36       1.0  0.6316179289932718  0.0816432777554255  0.3782018658877534  1.0000
  C   C37       1.0  0.383170171455859  0.8765666442756129  0.5159580248509246  1.0000
  C   C38       1.0  0.6168298783309395  0.1234289775016961  0.4840401381257849  1.0000
  C   C39       1.0  0.626991529753937  0.8315759209795958  0.5364321227826991  1.0000
  C   C40       1.0  0.37300780749759344  0.1684242611613271  0.4635686483325544  1.0000
  C   C41       1.0  0.5108889723614496  0.8316242608339337  0.4710836649389735  1.0000
  C   C42       1.0  0.4891123102140824  0.168373185088825  0.5289142381671753  1.0000
  N   N1        1.0  0.6788628514533173  0.4341876595737304  0.3617617177468447  1.0000
  N   N2        1.0  0.32113648579821324  0.5658125225671924  0.6382375957168237  1.0000
  N   N3        1.0  0.20051293916194615  0.5643960736278757  0.39387812141170303  1.0000
  N   N4        1.0  0.7994874079125509  0.4356031964403257  0.6061216957863352  1.0000
  N   N5        1.0  0.1476434052761419  0.5280864585124334  0.10671855824476495  1.0000
  N   N6        1.0  0.8523581002651638  0.47191372362848943  0.8932814965596096  1.0000
  N   N7        1.0  0.6612948077462164  0.6787581361870282  0.17652002154890312  1.0000
  N   N8        1.0  0.3387066977950894  0.3212420459538947  0.8234807620812605  1.0000
  N   N9        1.0  0.2607431774574351  0.8832995651191738  0.44814833884944966  1.0000
  N   N10       1.0  0.7392550013272938  0.1166997049490277  0.5518529234852494  1.0000
  N   N11       1.0  0.764319393068618  0.7848276335457386  0.49178279311205136  1.0000
  N   N12       1.0  0.23568009282676172  0.21517437274063417  0.5082184407009649  1.0000
  O   O1        1.0  0.9301009757976147  0.1106946181386732  0.08636304560417331  1.0000
  O   O2        1.0  0.06989937127688252  0.8893046519295285  0.9136360427680759  1.0000
  O   O3        1.0  0.1622035405550051  0.1315455126665341  0.14284706601099376  1.0000
  O   O4        1.0  0.8377946382297239  0.8684537574016675  0.8571520098463382  1.0000
  O   O5        1.0  0.31869871452966686  0.5533253349121949  0.35095914898669633  1.0000
  O   O6        1.0  0.6813027166897143  0.44667393515600656  0.6490414032945824  1.0000
  O   O7        1.0  0.5812413095752119  0.3600981681128559  0.31269388457368313  1.0000
  O   O8        1.0  0.41875817632017487  0.6399038381735168  0.6873058915877551  1.0000
  O   O9        1.0  0.1743265429916505  0.6485876825722627  0.47128694931789994  1.0000
  O   O10       1.0  0.8256738040828466  0.35141158749593876  0.528712139054349  1.0000
  O   O11       1.0  0.1698703227649645  0.1326728345525581  0.9294427409174446  1.0000
  O   O12       1.0  0.830130172953382  0.8673282596610862  0.07055753897836332  1.0000
  O   O13       1.0  0.6704226378289562  0.2195304320672165  0.036413850765221405  1.0000
  O   O14       1.0  0.3295778578893903  0.7804706621464277  0.9635857003047904  1.0000
  O   O15       1.0  0.4392994068880114  0.146078479439943  0.03338538149854741  1.0000
  O   O16       1.0  0.5607010888303279  0.8539226147737011  0.9666141695714646  1.0000
  O   O17       1.0  0.1221718662833666  0.8754867501711985  0.11446315913135416  1.0000
  O   O18       1.0  0.8778297135798567  0.12451434404244573  0.8855363981961164  1.0000
  O   O19       1.0  0.6585941350249414  0.5258482320493982  0.43413687579572996  1.0000
  O   O20       1.0  0.3414085289831732  0.4741528621642459  0.5658634166149811  1.0000
  O   O21       1.0  0.36099335856540904  0.9514368699876529  0.8402293785888093  1.0000
  O   O22       1.0  0.6390059043641969  0.0485624000805487  0.1597697035259813  1.0000
  O   O23       1.0  0.0577715969634056  0.43948497795078373  0.08093973985133124  1.0000
  O   O24       1.0  0.942226656143248  0.5605152041901391  0.9190610250064638  1.0000
  O   O25       1.0  0.7894020859723979  0.6538567266948974  0.1752804354529118  1.0000
  O   O26       1.0  0.2105983354240237  0.3461434554460325  0.8247196130940041  1.0000
  O   O27       1.0  0.6204329801213717  0.7844710131109167  0.1957786800277574  1.0000
  O   O28       1.0  0.3795673669531254  0.2155282569572847  0.8042225948218589  1.0000
  O   O29       1.0  0.11644965932826068  0.6361369778261974  0.12884632760297887  1.0000
  O   O30       1.0  0.8835496036013523  0.36386229224200417  0.8711534833375939  1.0000
  O   O31       1.0  0.1525675659132801  0.9333158091206927  0.48867112760265047  1.0000
  O   O32       1.0  0.8474329298050661  0.0666852850929516  0.5113335252478849  1.0000
  O   O33       1.0  0.8595173624541131  0.7708747450243578  0.550852599456917  1.0000
  O   O34       1.0  0.1404831332642331  0.2291263491892863  0.4491476804388839  1.0000
  O   O35       1.0  0.2754465993280277  0.8408079210850588  0.35422279480053487  1.0000
  O   O36       1.0  0.7245486243097403  0.1591949972740352  0.6457779165057503  1.0000
  O   O37       1.0  0.7761446293381837  0.7611246876120463  0.3981393596408722  1.0000
  O   O38       1.0  0.2238548565572032  0.2388773186743194  0.6018618741721513  1.0000
  O   O39       1.0  0.6003677194450247  0.0118642419849735  0.8473794518463293  1.0000
  O   O40       1.0  0.39963161780650586  0.9881359401559493  0.1526213192689241  1.0000
