data_image0
_chemical_formula_structural       Zn2H24C16N4O16
_chemical_formula_sum              "Zn2 H24 C16 N4 O16"
_cell_length_a       6.794015393030415
_cell_length_b       10.951430397021191
_cell_length_c       10.951440306653879
_cell_angle_alpha    108.2887015124895
_cell_angle_beta     89.99992763359361
_cell_angle_gamma    90.00034429250003

_space_group_name_H-M_alt    "P 1"
_space_group_IT_number       1

loop_
  _space_group_symop_operation_xyz
  'x, y, z'

loop_
  _atom_site_type_symbol
  _atom_site_label
  _atom_site_symmetry_multiplicity
  _atom_site_fract_x
  _atom_site_fract_y
  _atom_site_fract_z
  _atom_site_occupancy
  Zn  Zn1       1.0  0.8911092255093038  0.9999984556087259  0.4999991528334678  1.0000
  Zn  Zn2       1.0  0.10889138795948843  0.49999870546695746  0.9999992822926136  1.0000
  H   H1        1.0  0.6341590826948008  0.9789100778040308  0.8690496816901219  1.0000
  H   H2        1.0  0.6341566150871785  0.0210866109121497  0.13094676962167992  1.0000
  H   H3        1.0  0.3658443534166053  0.8690466960989554  0.9789097527410748  1.0000
  H   H4        1.0  0.3658461250981517  0.13095089101712887  0.02108718981417471  1.0000
  H   H5        1.0  0.4017678779542281  0.980008006937695  0.7899316006069275  1.0000
  H   H6        1.0  0.4017667121383256  0.019988760709679802  0.21006779729167854  1.0000
  H   H7        1.0  0.5982308396196033  0.7899252368407517  0.9800078586273178  1.0000
  H   H8        1.0  0.5982319152914712  0.21007516476250737  0.019991606166556215  1.0000
  H   H9        1.0  0.3997554492632105  0.2551697379401859  0.55539142468173  1.0000
  H   H10       1.0  0.39975942667599174  0.7448327955599866  0.4446116009033433  1.0000
  H   H11       1.0  0.6002439597438283  0.5553933928951055  0.25517276828723123  1.0000
  H   H12       1.0  0.6002458687667698  0.4446079797669711  0.7448279111723937  1.0000
  H   H13       1.0  0.26298692698096465  0.3590349268908142  0.6862960676675416  1.0000
  H   H14       1.0  0.26299162432793827  0.6409651624011162  0.3137072155121176  1.0000
  H   H15       1.0  0.7370119215156309  0.6862998068146099  0.35903722521572234  1.0000
  H   H16       1.0  0.737009815971831  0.3137030450130496  0.640961069158074  1.0000
  H   H17       1.0  0.6171680753577605  0.7390290320132138  0.7517596459545788  1.0000
  H   H18       1.0  0.6171677170800508  0.26096952019953795  0.24824013978180667  1.0000
  H   H19       1.0  0.38284133366200024  0.7517579013272879  0.7390257482018259  1.0000
  H   H20       1.0  0.3828393533812147  0.24823879401599672  0.2609736419964222  1.0000
  H   H21       1.0  0.5562013711576412  0.16766201425892288  0.7149676627894977  1.0000
  H   H22       1.0  0.5562021099775337  0.8323401535176843  0.2850342125978572  1.0000
  H   H23       1.0  0.4437983176138545  0.7149690612291693  0.16766388617772077  1.0000
  H   H24       1.0  0.44379996193701743  0.285033640517625  0.8323391573255707  1.0000
  C   C1        1.0  0.5399760214181059  0.9270578754511974  0.788042809848058  1.0000
  C   C2        1.0  0.5399753695495947  0.072939416840299  0.21195481699260207  1.0000
  C   C3        1.0  0.4600254270573885  0.7880396315153034  0.9270571638486232  1.0000
  C   C4        1.0  0.4600249426259282  0.21195928208550896  0.07294285815754621  1.0000
  C   C5        1.0  0.6480123300843487  0.9114573426187036  0.6620169906246931  1.0000
  C   C6        1.0  0.6480101050622409  0.08854420918365952  0.3379818809809124  1.0000
  C   C7        1.0  0.35198709673530704  0.662014556633693  0.9114467227151622  1.0000
  C   C8        1.0  0.3519863412681515  0.33798682433779004  0.08855141501285155  1.0000
  C   C9        1.0  0.33632163421353306  0.2651760755273713  0.6501378038483027  1.0000
  C   C10       1.0  0.33632128895975916  0.7348252522700632  0.3498639820815016  1.0000
  C   C11       1.0  0.6636767095645126  0.650141899310519  0.2651792518543702  1.0000
  C   C12       1.0  0.6636821279553755  0.3498625991123632  0.7348214403778713  1.0000
  C   C13       1.0  0.18974211350280967  0.1568252757840796  0.6385954292063263  1.0000
  C   C14       1.0  0.18974133254619832  0.8431706885602565  0.3614075370055404  1.0000
  C   C15       1.0  0.8102587086172052  0.6385980377343615  0.15682765465647472  1.0000
  C   C16       1.0  0.8102581341099651  0.36140412720941845  0.843167628383718  1.0000
  N   N1        1.0  0.5000034303810352  0.7963361600082238  0.7963373751447663  1.0000
  N   N2        1.0  0.5000011296438203  0.20366002121379276  0.20366176251764762  1.0000
  N   N3        1.0  0.5000008713170205  0.2610776435478996  0.7389233795699897  1.0000
  N   N4        1.0  0.4999992730921576  0.738926231260166  0.2610781597136552  1.0000
  O   O1        1.0  0.6960105215221475  0.018203870363748795  0.6442192836992933  1.0000
  O   O2        1.0  0.6960125792326226  0.9817940196780767  0.3557793202678142  1.0000
  O   O3        1.0  0.30398389673887743  0.6442147912003121  0.018206730788115504  1.0000
  O   O4        1.0  0.3039844599498381  0.3557796861705498  0.9817956814973813  1.0000
  O   O5        1.0  0.682462767071229  0.8003124941466736  0.5902584767720216  1.0000
  O   O6        1.0  0.6824629561666882  0.1996863025012986  0.4097385945980393  1.0000
  O   O7        1.0  0.31753594976214566  0.5902654753279821  0.8003132327213652  1.0000
  O   O8        1.0  0.31753272825390877  0.4097367440663008  0.19968975941151268  1.0000
  O   O9        1.0  0.050733085867214804  0.1560917737853629  0.5580865427807568  1.0000
  O   O10       1.0  0.05072920616422749  0.843904617879879  0.44191483979032153  1.0000
  O   O11       1.0  0.949267420864203  0.5580870768279311  0.15609406052269045  1.0000
  O   O12       1.0  0.9492720477597629  0.44191369909844264  0.8439025059558249  1.0000
  O   O13       1.0  0.21325943229518882  0.080149054576836  0.7010399092498291  1.0000
  O   O14       1.0  0.21325658311241824  0.9198527664645515  0.2989630404585742  1.0000
  O   O15       1.0  0.7867428064768092  0.7010453480483677  0.08015007602889314  1.0000
  O   O16       1.0  0.7867488263547955  0.29896057553805383  0.9198473119001209  1.0000
