data_image0
_chemical_formula_structural       Hg2H28C30N4Cl4O8
_chemical_formula_sum              "Hg2 H28 C30 N4 Cl4 O8"
_cell_length_a       7.7956190122792774
_cell_length_b       7.836416436639596
_cell_length_c       15.087703995185883
_cell_angle_alpha    77.36572212432972
_cell_angle_beta     80.39407472535174
_cell_angle_gamma    77.07511680031507

_space_group_name_H-M_alt    "P 1"
_space_group_IT_number       1

loop_
  _space_group_symop_operation_xyz
  'x, y, z'

loop_
  _atom_site_type_symbol
  _atom_site_label
  _atom_site_symmetry_multiplicity
  _atom_site_fract_x
  _atom_site_fract_y
  _atom_site_fract_z
  _atom_site_occupancy
  Hg  Hg1       1.0  0.026089587673020328  0.902907076554783  0.2728169727658668  1.0000
  Hg  Hg2       1.0  0.9739144254854398  0.0970921698389091  0.727183311846922  1.0000
  H   H1        1.0  0.9457165403120271  0.4998562472567657  0.3478516193552041  1.0000
  H   H2        1.0  0.05427705743605324  0.5001430381508527  0.652149589969149  1.0000
  H   H3        1.0  0.7865867003082201  0.3081181503222723  0.475913463020497  1.0000
  H   H4        1.0  0.2134084471201234  0.6918797861844226  0.5240871046883839  1.0000
  H   H5        1.0  0.6034004720503604  0.7669527049793246  0.6053158770993647  1.0000
  H   H6        1.0  0.3965991230887981  0.2330492115610454  0.39468382319804374  1.0000
  H   H7        1.0  0.7727734359392002  0.9399811932378342  0.47286177296720694  1.0000
  H   H8        1.0  0.22722691361684613  0.060016712917935394  0.5271376713407963  1.0000
  H   H9        1.0  0.4981181325231887  0.3007233434305762  0.8024482246856125  1.0000
  H   H10       1.0  0.5018793598488075  0.6992759056588869  0.1975513157817232  1.0000
  H   H11       1.0  0.316343210495056  0.3211404399337994  0.740456662547551  1.0000
  H   H12       1.0  0.6836519313558044  0.6788574857289261  0.25954324411623736  1.0000
  H   H13       1.0  0.3649196761614633  0.6110651740854963  0.8363541929880755  1.0000
  H   H14       1.0  0.635075730175835  0.38893144008495273  0.16364717078445784  1.0000
  H   H15       1.0  0.17502816433359666  0.6113101040040123  0.786049418062227  1.0000
  H   H16       1.0  0.8249659400774051  0.3886865150431761  0.2139520612992527  1.0000
  H   H17       1.0  0.11055589474932505  0.5290777452492748  0.9503736161560499  1.0000
  H   H18       1.0  0.889438462993134  0.4709175406176982  0.04962799822398976  1.0000
  H   H19       1.0  0.12639842619435637  0.3330401286850346  0.905468726856917  1.0000
  H   H20       1.0  0.873600349567397  0.6669524870352603  0.09453347183850273  1.0000
  H   H21       1.0  0.6565160512822814  0.17847120363342847  0.9766484378192717  1.0000
  H   H22       1.0  0.3434840690563377  0.8215346750389402  0.02334875869822642  1.0000
  H   H23       1.0  0.9115809228999795  0.0446957619598365  0.06720008958457412  1.0000
  H   H24       1.0  0.08842484307282213  0.9553007047570219  0.9327937390254777  1.0000
  H   H25       1.0  0.5792268805227537  0.0048642694135879  0.31232502513427113  1.0000
  H   H26       1.0  0.4207875368911119  0.9951349162782465  0.6876730126767613  1.0000
  H   H27       1.0  0.3087912904971121  0.13894747671960062  0.23324982381107165  1.0000
  H   H28       1.0  0.6912197909572201  0.8610557724861753  0.766751345347622  1.0000
  C   C1        1.0  0.8669240216451827  0.5541838914271865  0.4059117718949779  1.0000
  C   C2        1.0  0.13307243328694804  0.4458140510467317  0.594089341270049  1.0000
  C   C3        1.0  0.77863216456835  0.44809703265352857  0.47686812492993624  1.0000
  C   C4        1.0  0.22136272395105283  0.5519022261894122  0.5231316467152853  1.0000
  C   C5        1.0  0.6799211802520163  0.5244892151200915  0.5496274720138248  1.0000
  C   C6        1.0  0.3200781615556849  0.4755140346004936  0.45037209326501687  1.0000
  C   C7        1.0  0.6756972834658442  0.7039694833680273  0.5490767306016338  1.0000
  C   C8        1.0  0.3242996910882567  0.29603241039392714  0.4509212177383902  1.0000
  C   C9        1.0  0.7687248631714497  0.8005640822721177  0.475506639850373  1.0000
  C   C10       1.0  0.2312796399174601  0.1994324652292434  0.5244919316642653  1.0000
  C   C11       1.0  0.5852327977888552  0.408837115022152  0.6251422369873156  1.0000
  C   C12       1.0  0.41475612303097614  0.5911661628683903  0.37485759195799784  1.0000
  C   C13       1.0  0.3956804982555156  0.39589467124929456  0.7654304978840187  1.0000
  C   C14       1.0  0.6043133472465315  0.6041032701341466  0.23457018541380859  1.0000
  C   C15       1.0  0.28257406164527055  0.5249619200960255  0.8230469548965405  1.0000
  C   C16       1.0  0.717420595852623  0.4750387153029933  0.17695532591048396  1.0000
  C   C17       1.0  0.20044671586875754  0.4316560316634296  0.9133978159380832  1.0000
  C   C18       1.0  0.799548696046024  0.568340593350982  0.08660420887954248  1.0000
  C   C19       1.0  0.3014358868415101  0.2449273559819218  0.05004779567445181  1.0000
  C   C20       1.0  0.6985665822141699  0.7550732501566559  0.949953791598894  1.0000
  C   C21       1.0  0.46164457520452373  0.1663128674714258  0.09851109883001641  1.0000
  C   C22       1.0  0.538359214313992  0.8336943622828342  0.9014875990373528  1.0000
  C   C23       1.0  0.6330305745640032  0.14024970644567963  0.050892384145491604  1.0000
  C   C24       1.0  0.36697475905729254  0.8597561635636949  0.9491050110613133  1.0000
  C   C25       1.0  0.7754599842698298  0.06594976755147292  0.1008057818960282  1.0000
  C   C26       1.0  0.22454894421995425  0.9340507166077074  0.899189278026775  1.0000
  C   C27       1.0  0.59046535936956  0.0461175309360868  0.23810432237493734  1.0000
  C   C28       1.0  0.4095444090034944  0.9538857014585034  0.7618956402825179  1.0000
  C   C29       1.0  0.4399678047268694  0.118190440876127  0.19394181329351315  1.0000
  C   C30       1.0  0.5600404083884314  0.8818141295754174  0.8060581299343214  1.0000
  N   N1        1.0  0.8608873101591072  0.7272340352436972  0.4050899312691811  1.0000
  N   N2        1.0  0.13911121965275441  0.2727665204613032  0.5949080365004564  1.0000
  N   N3        1.0  0.7545943072452133  0.01993751878337951  0.19260051472412  1.0000
  N   N4        1.0  0.24541331931826696  0.9800629702525328  0.8073946607876297  1.0000
  Cl  Cl1       1.0  0.15520664779418067  0.6789023215022212  0.1828951351098667  1.0000
  Cl  Cl2       1.0  0.8447957989515446  0.32109824126048647  0.8171038079831163  1.0000
  Cl  Cl3       1.0  0.0224887875511399  0.13963877897774074  0.34965325186142593  1.0000
  Cl  Cl4       1.0  0.9775136647720688  0.8603617946289362  0.6503463522766496  1.0000
  O   O1        1.0  0.5978089966351163  0.24857899328153377  0.6289348145850512  1.0000
  O   O2        1.0  0.40219271242618504  0.7514256123976818  0.3710663676326079  1.0000
  O   O3        1.0  0.4855216818256451  0.5008264459536421  0.6872655763441603  1.0000
  O   O4        1.0  0.5144729645172745  0.4991741677574454  0.3127353823726864  1.0000
  O   O5        1.0  0.3451488042106662  0.341524619355937  0.9674154100945673  1.0000
  O   O6        1.0  0.654848198230873  0.6584773286258496  0.03258584347091192  1.0000
  O   O7        1.0  0.1507302818395218  0.2237187653296644  0.08214854727707183  1.0000
  O   O8        1.0  0.8492677970842949  0.7762845651754234  0.9178557609063563  1.0000
