data_image0
_chemical_formula_structural       Gd2H22C32S2O24
_chemical_formula_sum              "Gd2 H22 C32 S2 O24"
_cell_length_a       5.676363429433959
_cell_length_b       13.161815579683475
_cell_length_c       13.98467150050752
_cell_angle_alpha    110.1553931179144
_cell_angle_beta     96.01291532192843
_cell_angle_gamma    95.67060655823882

_space_group_name_H-M_alt    "P 1"
_space_group_IT_number       1

loop_
  _space_group_symop_operation_xyz
  'x, y, z'

loop_
  _atom_site_type_symbol
  _atom_site_label
  _atom_site_symmetry_multiplicity
  _atom_site_fract_x
  _atom_site_fract_y
  _atom_site_fract_z
  _atom_site_occupancy
  Gd  Gd1       1.0  0.6226820061649005  0.6418214544009259  0.1405366872645644  1.0000
  Gd  Gd2       1.0  0.3773069538308604  0.3581872367323129  0.8594621860069154  1.0000
  H   H1        1.0  0.4230844688247259  0.9634582311114386  0.412904099371069  1.0000
  H   H2        1.0  0.5769226987218444  0.03654497050478509  0.5871008539320357  1.0000
  H   H3        1.0  0.5242335029831436  0.31674534711792285  0.2090356635097663  1.0000
  H   H4        1.0  0.47575853561009024  0.68325441417754  0.7909647172232893  1.0000
  H   H5        1.0  0.8147195520456874  0.014105978580985798  0.1071818390901811  1.0000
  H   H6        1.0  0.18526982889810034  0.98589049070214  0.8928159366920597  1.0000
  H   H7        1.0  0.06229878146497469  0.08797538687421987  0.9988274583360237  1.0000
  H   H8        1.0  0.9376925752591487  0.9120219210636832  0.001169952575452355  1.0000
  H   H9        1.0  0.7544334490915502  0.3466369334200364  0.6015976461026398  1.0000
  H   H10       1.0  0.24556926162746606  0.6533702911797333  0.3983991443896073  1.0000
  H   H11       1.0  0.4973763413598532  0.28697545203388586  0.43153309116151206  1.0000
  H   H12       1.0  0.5026357284341715  0.7130269932902777  0.5684610821181053  1.0000
  H   H13       1.0  0.9202377048562054  0.02922801471181199  0.3106105601525684  1.0000
  H   H14       1.0  0.07978119415775349  0.9707728812987921  0.6893905281236385  1.0000
  H   H15       1.0  0.20948070871535399  0.4771632858854033  0.08871538416771334  1.0000
  H   H16       1.0  0.7905220092156069  0.5228366024321928  0.9112861718774427  1.0000
  H   H17       1.0  0.15292471361793503  0.5469294510350836  0.1956263662647545  1.0000
  H   H18       1.0  0.8470712765359775  0.45307198756992756  0.8043732847267792  1.0000
  H   H19       1.0  0.41459582839742376  0.856063062412538  0.19769473140667065  1.0000
  H   H20       1.0  0.585397745888578  0.1439359021051132  0.8023040202807152  1.0000
  H   H21       1.0  0.2404503120782237  0.7754843420927954  0.23189639901620754  1.0000
  H   H22       1.0  0.7595545727271469  0.2245245386693567  0.7680995851335268  1.0000
  C   C1        1.0  0.7393484375097257  0.4170609610139451  0.10151318750540383  1.0000
  C   C2        1.0  0.26064784053344425  0.5829347752111289  0.8984846204464247  1.0000
  C   C3        1.0  0.7765739606432404  0.30594967533104267  0.1013205089459319  1.0000
  C   C4        1.0  0.22342049645008893  0.6940460393294926  0.8986750752864836  1.0000
  C   C5        1.0  0.6426215028712291  0.26659045988843394  0.16291609729805154  1.0000
  C   C6        1.0  0.3573660716145638  0.7334059879692845  0.8370801704709195  1.0000
  C   C7        1.0  0.658886174757697  0.16160812151443338  0.1628158831093955  1.0000
  C   C8        1.0  0.34109778681209946  0.8383882834924491  0.8371773686330286  1.0000
  C   C9        1.0  0.8066662072110447  0.09516926894431779  0.10395425092932702  1.0000
  C   C10       1.0  0.19332143973394975  0.9048271796090076  0.8960455953703318  1.0000
  C   C11       1.0  0.9405660250626366  0.13566488075894506  0.044074801911733595  1.0000
  C   C12       1.0  0.059417612354323426  0.8643298899283349  0.9559229113048956  1.0000
  C   C13       1.0  0.9276075702275716  0.24021228494105878  0.041421608901892205  1.0000
  C   C14       1.0  0.07238397031073156  0.7597858403653317  0.9585746448316996  1.0000
  C   C15       1.0  0.08114066096259619  0.27869182270802634  0.9763829921842557  1.0000
  C   C16       1.0  0.9188522604379727  0.7213046887303134  0.0236142210938368  1.0000
  C   C17       1.0  0.13414311090027553  0.2681342693986651  0.657119573348453  1.0000
  C   C18       1.0  0.8658610531402144  0.7318713420286753  0.3428817552189826  1.0000
  C   C19       1.0  0.9882307552801705  0.22471495788593632  0.5515872472201053  1.0000
  C   C20       1.0  0.011773822496394406  0.7752857679734646  0.4484082183051825  1.0000
  C   C21       1.0  0.7954528843470712  0.27919857897182954  0.5372727793532874  1.0000
  C   C22       1.0  0.20454991332299235  0.7208086464626786  0.4627283053757907  1.0000
  C   C23       1.0  0.6500756284452435  0.2459594702487918  0.4423320502111777  1.0000
  C   C24       1.0  0.34992988747382725  0.7540445270322563  0.5576688064884792  1.0000
  C   C25       1.0  0.696090996516716  0.15576999321805823  0.36151075992643905  1.0000
  C   C26       1.0  0.30391546017705906  0.8442307547623641  0.6384897921428135  1.0000
  C   C27       1.0  0.8873552517328419  0.1003188494378904  0.3734268025709895  1.0000
  C   C28       1.0  0.11265588449843011  0.8996795089047251  0.6265724408919553  1.0000
  C   C29       1.0  0.035636561618645105  0.13488682123929152  0.46889265410322173  1.0000
  C   C30       1.0  0.9643735079911121  0.8651139695919523  0.5311109139925776  1.0000
  C   C31       1.0  0.23476784832394054  0.07337007897650949  0.48314078388503384  1.0000
  C   C32       1.0  0.7652368453873564  0.9266306479958643  0.5168604072893643  1.0000
  S   S1        1.0  0.4974169099860929  0.11086178920539419  0.2427302143228829  1.0000
  S   S2        1.0  0.5025907029124282  0.8891300063988506  0.7572646115455653  1.0000
  O   O1        1.0  0.602453989169085  0.4246920661512589  0.02698399291718803  1.0000
  O   O2        1.0  0.3975331887046562  0.5753027466912356  0.9730131577952861  1.0000
  O   O3        1.0  0.8253091589357735  0.5010699168653757  0.18020708655746634  1.0000
  O   O4        1.0  0.1746873174134222  0.49892663686730293  0.8197902799226142  1.0000
  O   O5        1.0  0.08525416284304298  0.3778707408332238  0.9787842059644873  1.0000
  O   O6        1.0  0.9147510460472217  0.6221251015450661  0.021216132110730278  1.0000
  O   O7        1.0  0.20814280952468775  0.2151870071019601  0.9210091995370887  1.0000
  O   O8        1.0  0.791847710499816  0.7848070303881441  0.0789878301429852  1.0000
  O   O9        1.0  0.03233559544457167  0.2578600067003477  0.7322358417254407  1.0000
  O   O10       1.0  0.9676523440373965  0.7421445966166114  0.26776380749252837  1.0000
  O   O11       1.0  0.3418244719521723  0.3198589026061071  0.6722344870822639  1.0000
  O   O12       1.0  0.6581828504249001  0.6801451161003553  0.3277678776306701  1.0000
  O   O13       1.0  0.34809038120040725  0.09035599175791016  0.5696366625558937  1.0000
  O   O14       1.0  0.6519242684515375  0.9096481136240583  0.4303767441530937  1.0000
  O   O15       1.0  0.27800133176762637  0.9994705148331844  0.3973614831347874  1.0000
  O   O16       1.0  0.722008807669148  0.0005367974159539974  0.6026513592964875  1.0000
  O   O17       1.0  0.2884559604687595  0.16562328261190373  0.2610380018828309  1.0000
  O   O18       1.0  0.7115536229457219  0.8343823930916726  0.7389678507244213  1.0000
  O   O19       1.0  0.4720357637627614  0.992218294608115  0.19734361323883579  1.0000
  O   O20       1.0  0.5279618635268051  0.007782348192947102  0.8026594186499949  1.0000
  O   O21       1.0  0.28778373089713927  0.5319440702225009  0.15684059469531766  1.0000
  O   O22       1.0  0.7122056500466413  0.4680523990606246  0.843157181086923  1.0000
  O   O23       1.0  0.3783079457529864  0.7800780766187285  0.19438708375241728  1.0000
  O   O24       1.0  0.6216893528039831  0.21992174742262444  0.8056099482529221  1.0000
