data_image0
_chemical_formula_structural       AlH12C24S3N3O15
_chemical_formula_sum              "Al1 H12 C24 S3 N3 O15"
_cell_length_a       4.274346570854799
_cell_length_b       15.685841395030305
_cell_length_c       15.661243959828179
_cell_angle_alpha    60.04207374749475
_cell_angle_beta     86.89433619856972
_cell_angle_gamma    86.3260623478689

_space_group_name_H-M_alt    "P 1"
_space_group_IT_number       1

loop_
  _space_group_symop_operation_xyz
  'x, y, z'

loop_
  _atom_site_type_symbol
  _atom_site_label
  _atom_site_symmetry_multiplicity
  _atom_site_fract_x
  _atom_site_fract_y
  _atom_site_fract_z
  _atom_site_occupancy
  Al  Al1       1.0  0.9835656371648798  0.5001399399012528  0.4989322006267828  1.0000
  H   H1        1.0  0.5333061759113991  0.9582261661834796  0.12602445184510452  1.0000
  H   H2        1.0  0.5162911692127635  0.41182049456198655  0.9592422017003273  1.0000
  H   H3        1.0  0.5914675644293298  0.1252099011526511  0.4127481244131276  1.0000
  H   H4        1.0  0.6098592844637382  0.49023854738108247  0.24694018311690513  1.0000
  H   H5        1.0  0.674972810474671  0.4056269152379528  0.14767719997814052  1.0000
  H   H6        1.0  0.5543818803522668  0.24712476076008738  0.7572215139868136  1.0000
  H   H7        1.0  0.6271999363355506  0.14782186935217112  0.9390590562117325  1.0000
  H   H8        1.0  0.53716196087818  0.7588196219889769  0.4921754434063672  1.0000
  H   H9        1.0  0.6148783342153835  0.9396438322011496  0.4075283014121993  1.0000
  H   H10       1.0  0.9753323139421823  0.6946437797655278  0.21161194594511556  1.0000
  H   H11       1.0  0.013922518176301003  0.21484460451647894  0.5929533657180175  1.0000
  H   H12       1.0  0.931578332904593  0.593008654932035  0.694778571789499  1.0000
  C   C1        1.0  0.4697507058778926  0.6467730192691052  0.4109691922682188  1.0000
  C   C2        1.0  0.5183936088597819  0.41081043503766085  0.44081884705916247  1.0000
  C   C3        1.0  0.47211404576550103  0.4416368593594981  0.6459002906215263  1.0000
  C   C4        1.0  0.5009825849499735  0.7562205172861811  0.35677199900687384  1.0000
  C   C5        1.0  0.5035855768111474  0.3854699472096427  0.7555849553919388  1.0000
  C   C6        1.0  0.5703601121423459  0.35542256106294456  0.38580639613305584  1.0000
  C   C7        1.0  0.502912702689315  0.8132225700438412  0.2533710031689581  1.0000
  C   C8        1.0  0.5438071771845188  0.9141403318834878  0.2059240803176293  1.0000
  C   C9        1.0  0.49347849609924316  0.43131339955065334  0.8132567035509056  1.0000
  C   C10       1.0  0.5358559577668273  0.37630891290013574  0.9145329993914832  1.0000
  C   C11       1.0  0.5718425930432005  0.2521511584324827  0.4320634491673374  1.0000
  C   C12       1.0  0.6070741296418306  0.20474660267407782  0.3768398892908281  1.0000
  C   C13       1.0  0.6126532827340155  0.4100569915446287  0.2831069149311888  1.0000
  C   C14       1.0  0.6494563437090121  0.3629448823708473  0.22765661704762152  1.0000
  C   C15       1.0  0.5519681937204979  0.28295709488343596  0.8016926734803321  1.0000
  C   C16       1.0  0.5937838819293901  0.22762144688397978  0.9029247259896211  1.0000
  C   C17       1.0  0.5415595990592977  0.8026420384277559  0.41186593073348376  1.0000
  C   C18       1.0  0.5856050610401838  0.9034143216281055  0.3647458049679386  1.0000
  C   C19       1.0  0.5866734115080164  0.9598988471837944  0.26142576517714383  1.0000
  C   C20       1.0  0.6134786163587407  0.0679180237519645  0.21026439023212626  1.0000
  C   C21       1.0  0.5876911677284653  0.2739844700186397  0.9599666395271527  1.0000
  C   C22       1.0  0.6137397979717393  0.2157074678766975  0.06830612973442382  1.0000
  C   C23       1.0  0.6429634719600729  0.25990976037456903  0.2740880068808594  1.0000
  C   C24       1.0  0.6439674355336676  0.20917966452339706  0.21592715095950146  1.0000
  S   S1        1.0  0.41987227736633065  0.7645434981909391  0.175827148600682  1.0000
  S   S2        1.0  0.47701565447798794  0.17556781505103208  0.5601464602659619  1.0000
  S   S3        1.0  0.37681317178424933  0.5582238883749399  0.76555562801088  1.0000
  N   N1        1.0  0.6012741191933699  0.11739631072253331  0.11125341680076421  1.0000
  N   N2        1.0  0.6365958316209372  0.2651340197996745  0.11728159656069442  1.0000
  N   N3        1.0  0.6369411620827563  0.11029772447025012  0.2658142243129333  1.0000
  O   O1        1.0  0.2379721753563047  0.4236493380155012  0.6119128715511835  1.0000
  O   O2        1.0  0.22090276650752114  0.6140530822476366  0.46246252316056774  1.0000
  O   O3        1.0  0.26655952859490384  0.4638196302033536  0.42235879944871624  1.0000
  O   O4        1.0  0.6921438281469037  0.4993919287629609  0.5974303895084959  1.0000
  O   O5        1.0  0.7352163577371441  0.4018708141111134  0.4977436563307266  1.0000
  O   O6        1.0  0.7046652739162271  0.59728011288383  0.40197046715409374  1.0000
  O   O7        1.0  0.7018145966277133  0.7158427882064233  0.1594558522106979  1.0000
  O   O8        1.0  0.2705849197001697  0.8416008176379821  0.08959822972579441  1.0000
  O   O9        1.0  0.1998868088188459  0.6806949820687863  0.24275447952246762  1.0000
  O   O10       1.0  0.7439786818428685  0.16057135728036093  0.6213033931429806  1.0000
  O   O11       1.0  0.3426711730424543  0.08869254117531972  0.5721928944216189  1.0000
  O   O12       1.0  0.23980340576542156  0.2429312521343974  0.579999005149773  1.0000
  O   O13       1.0  0.6425824376890859  0.6215979273079598  0.7192741651144771  1.0000
  O   O14       1.0  0.20923491637955752  0.5671220605739579  0.842752696901691  1.0000
  O   O15       1.0  0.16670223106195448  0.578379730763956  0.6794460959819802  1.0000
