data_image0
_chemical_formula_structural       La2H20C12N18O14
_chemical_formula_sum              "La2 H20 C12 N18 O14"
_cell_length_a       8.867790131121852
_cell_length_b       8.761943088846074
_cell_length_c       11.689474256497585
_cell_angle_alpha    65.93638830287586
_cell_angle_beta     84.96122131682638
_cell_angle_gamma    72.41463394562177

_space_group_name_H-M_alt    "P 1"
_space_group_IT_number       1

loop_
  _space_group_symop_operation_xyz
  'x, y, z'

loop_
  _atom_site_type_symbol
  _atom_site_label
  _atom_site_symmetry_multiplicity
  _atom_site_fract_x
  _atom_site_fract_y
  _atom_site_fract_z
  _atom_site_occupancy
  La  La1       1.0  0.6266524224224099  0.27550146803407227  0.6615357103502574  1.0000
  La  La2       1.0  0.37334647186668957  0.7244995811397812  0.3384639759688284  1.0000
  H   H1        1.0  0.8111979840749585  0.5890278126988735  0.6068139848292802  1.0000
  H   H2        1.0  0.1888076304052291  0.41096961360895534  0.3931837333004963  1.0000
  H   H3        1.0  0.7380259359958716  0.625278506998619  0.47705805014405916  1.0000
  H   H4        1.0  0.2619856356981956  0.374717889412615  0.5229378392944213  1.0000
  H   H5        1.0  0.5492446550590061  0.5397154215953819  0.7888155639587922  1.0000
  H   H6        1.0  0.45075364615988184  0.4602801522406068  0.21119263577911335  1.0000
  H   H7        1.0  0.7059560617810944  0.3909893851595713  0.8554274031339657  1.0000
  H   H8        1.0  0.2940498965812068  0.609010701045378  0.14456950034509214  1.0000
  H   H9        1.0  0.7550158729490307  0.3889187751855445  0.2060940616450964  1.0000
  H   H10       1.0  0.24498189462939016  0.6110861342780254  0.7939071246930139  1.0000
  H   H11       1.0  0.8311340305250993  0.5359943941975587  0.23569006232263937  1.0000
  H   H12       1.0  0.16886866644298956  0.46400539400955415  0.7643140061759723  1.0000
  H   H13       1.0  0.6781339657517834  0.004839319496838395  0.9967971027430521  1.0000
  H   H14       1.0  0.32186369911801177  0.9951696532848118  0.0031986058626430076  1.0000
  H   H15       1.0  0.6779246539329763  0.1284254532233717  0.08595766136720329  1.0000
  H   H16       1.0  0.32207387662265335  0.871576863270775  0.9140433854728939  1.0000
  H   H17       1.0  0.6070326821995382  0.010083877587646808  0.5597922238886638  1.0000
  H   H18       1.0  0.3929685640271004  0.9899131837946554  0.440213613409398  1.0000
  H   H19       1.0  0.491130021629438  0.19288409423673164  0.46447375521619694  1.0000
  H   H20       1.0  0.5088849298263797  0.8071124057428066  0.5355235743494545  1.0000
  C   C1        1.0  0.7502210752891331  0.3595537127102801  0.40016591595452417  1.0000
  C   C2        1.0  0.24978046747261837  0.6404460863409583  0.5998356646341207  1.0000
  C   C3        1.0  0.604593581179131  0.8963970651458055  0.1843067737503147  1.0000
  C   C4        1.0  0.39540301653404  0.10360398627334182  0.8156887972635188  1.0000
  C   C5        1.0  0.8261073675321814  0.4005906451362621  0.27268410189625303  1.0000
  C   C6        1.0  0.17389268096325589  0.599410393193473  0.7273180723327924  1.0000
  C   C7        1.0  0.7067297701609973  0.9956213508802704  0.08938292844242574  1.0000
  C   C8        1.0  0.2932683138038854  0.004382369034828995  0.9106134553159817  1.0000
  C   C9        1.0  0.022659901819352495  0.13061642170143983  0.26236841288727664  1.0000
  C   C10       1.0  0.9773375772385582  0.8693818423187452  0.7376356237752759  1.0000
  C   C11       1.0  0.9695609313395651  0.9511976557902174  0.18384645679918066  1.0000
  C   C12       1.0  0.03043610112759859  0.04880201165092762  0.8161529167816751  1.0000
  N   N1        1.0  0.9823026617223221  0.2820118389897886  0.28194550532123946  1.0000
  N   N2        1.0  0.017695181069058197  0.7179851577101104  0.7180571708203018  1.0000
  N   N3        1.0  0.9549180701446787  0.7734175617784798  0.0950156723202654  1.0000
  N   N4        1.0  0.045080334028817476  0.22658885691964772  0.9049781757580674  1.0000
  N   N5        1.0  0.09652568030958969  0.7259059302128891  0.1417279932804121  1.0000
  N   N6        1.0  0.9034738543967366  0.2741005165270138  0.8582666216785383  1.0000
  N   N7        1.0  0.22475424458102114  0.1544642527332627  0.3385762715593684  1.0000
  N   N8        1.0  0.7752440764892158  0.8455273938853197  0.6614313823082512  1.0000
  N   N9        1.0  0.11261695828880394  0.8294105841554966  0.19799807183576226  1.0000
  N   N10       1.0  0.8873807936307047  0.17059045641953216  0.8019999870880383  1.0000
  N   N11       1.0  0.8734401993026566  0.913959382190228  0.1193936626972913  1.0000
  N   N12       1.0  0.12655868314968902  0.08604168642658291  0.8806051631071196  1.0000
  N   N13       1.0  0.10987434989383615  0.2917360449425247  0.33086212499446077  1.0000
  N   N14       1.0  0.8901216547491161  0.7082595311387577  0.6691419594382069  1.0000
  N   N15       1.0  0.9183303460384523  0.08703650885029648  0.2157160553887323  1.0000
  N   N16       1.0  0.08166560324288949  0.9129630527772504  0.7842859933702045  1.0000
  N   N17       1.0  0.1779793303787116  0.05202865797463829  0.2975614106897737  1.0000
  N   N18       1.0  0.8220170735079794  0.9479655924574999  0.702443894765892  1.0000
  O   O1        1.0  0.6669204638236721  0.7583768285007721  0.2791741114557098  1.0000
  O   O2        1.0  0.3330775964677032  0.24162693030023522  0.7208205512733484  1.0000
  O   O3        1.0  0.735028783950071  0.5595177611082819  0.5675997725738567  1.0000
  O   O4        1.0  0.26497943165575316  0.44047849284874024  0.43239639776679434  1.0000
  O   O5        1.0  0.6020573435721062  0.43711952289030626  0.4041031188786803  1.0000
  O   O6        1.0  0.3979423411898607  0.5628827827597077  0.5959004158713769  1.0000
  O   O7        1.0  0.45554505130148476  0.958647544872754  0.16028312499580724  1.0000
  O   O8        1.0  0.5444511788560578  0.04135088553518071  0.8397115396394028  1.0000
  O   O9        1.0  0.5936971926697512  0.41348172163616675  0.8293720105148594  1.0000
  O   O10       1.0  0.4063055241496869  0.5865141393535396  0.17063151211345234  1.0000
  O   O11       1.0  0.8340777671053914  0.25342048833088177  0.497278352798851  1.0000
  O   O12       1.0  0.16592194552252687  0.746573982327277  0.5027232296959523  1.0000
  O   O13       1.0  0.5248727831517499  0.12003220932198391  0.5519213214099139  1.0000
  O   O14       1.0  0.47512987448392596  0.8799637488824886  0.44807789864503894  1.0000
