data_image0
_chemical_formula_structural       Ca2H12C28S4O16
_chemical_formula_sum              "Ca2 H12 C28 S4 O16"
_cell_length_a       5.362377888121658
_cell_length_b       9.56218282094061
_cell_length_c       14.81404784557263
_cell_angle_alpha    101.86911709133757
_cell_angle_beta     90.0000672105407
_cell_angle_gamma    90.00068196129043

_space_group_name_H-M_alt    "P 1"
_space_group_IT_number       1

loop_
  _space_group_symop_operation_xyz
  'x, y, z'

loop_
  _atom_site_type_symbol
  _atom_site_label
  _atom_site_symmetry_multiplicity
  _atom_site_fract_x
  _atom_site_fract_y
  _atom_site_fract_z
  _atom_site_occupancy
  Ca  Ca1       1.0  0.5000011383793179  0.4999984687157164  0.9999983459802166  1.0000
  Ca  Ca2       1.0  0.9999981073810318  1.10063458439766e-06  0.9999992198338036  1.0000
  H   H1        1.0  0.3578709255253756  0.7490924721343218  0.7858851730670223  1.0000
  H   H2        1.0  0.8578434092870352  0.7509006467685139  0.21411548119335314  1.0000
  H   H3        1.0  0.6421299081763792  0.25091893232345086  0.2141144081604693  1.0000
  H   H4        1.0  0.1421350460818687  0.2490911907002129  0.7858878611293748  1.0000
  H   H5        1.0  0.46091832711354647  0.7258132479291601  0.61818051607721  1.0000
  H   H6        1.0  0.9608706304957267  0.7741902636739795  0.3818218108494023  1.0000
  H   H7        1.0  0.539110479219467  0.2741948841067198  0.3818199154170614  1.0000
  H   H8        1.0  0.0390966359044924  0.2258111865491585  0.6181830017002383  1.0000
  H   H9        1.0  0.7261375606130329  0.46878191313580686  0.7101820960513835  1.0000
  H   H10       1.0  0.22612189497498042  0.031214028959539085  0.2898153705865241  1.0000
  H   H11       1.0  0.27388565103501605  0.5312112315084291  0.2898167185599618  1.0000
  H   H12       1.0  0.7738696144332309  0.9687901036297574  0.7101790461576273  1.0000
  C   C1        1.0  0.0395778669814106  0.6076730444822046  0.7570715104181573  1.0000
  C   C2        1.0  0.5395513425704552  0.8923285850233851  0.24292546100338086  1.0000
  C   C3        1.0  0.9604360205670516  0.3923320197559689  0.24292575034495198  1.0000
  C   C4        1.0  0.460430842547467  0.1076689342129526  0.757071996528829  1.0000
  C   C5        1.0  0.24595349710416772  0.6820087968642525  0.7325478984582361  1.0000
  C   C6        1.0  0.7459273025229578  0.8179906443651246  0.26745971088119797  1.0000
  C   C7        1.0  0.7540585256362675  0.3180001642790415  0.2674573874944315  1.0000
  C   C8        1.0  0.2540548825880293  0.18200649942927066  0.7325451184033297  1.0000
  C   C9        1.0  0.3021262516444878  0.6696874523871512  0.639741805920778  1.0000
  C   C10       1.0  0.8021039594541436  0.830308278206523  0.36026257970388537  1.0000
  C   C11       1.0  0.6978857709891101  0.3303108961330351  0.36026050611562255  1.0000
  C   C12       1.0  0.19787822565936614  0.16968900211222146  0.6397395689434333  1.0000
  C   C13       1.0  0.1542171570617086  0.5852465295167731  0.5716949479399531  1.0000
  C   C14       1.0  0.6541816089111592  0.9147504907082223  0.4283041125328211  1.0000
  C   C15       1.0  0.8458191085068378  0.4147476491343125  0.4283047002032845  1.0000
  C   C16       1.0  0.34579498170494105  0.08525016451035579  0.5716951753917883  1.0000
  C   C17       1.0  0.9456955029798237  0.5127179784681103  0.5971619661275085  1.0000
  C   C18       1.0  0.44565919509959434  0.9872791459476598  0.4028366701075398  1.0000
  C   C19       1.0  0.0543426274228622  0.4872751662325852  0.4028368484984952  1.0000
  C   C20       1.0  0.5543080713380916  0.012725781589729502  0.597163271246977  1.0000
  C   C21       1.0  0.8888476655792842  0.5241644107849054  0.6906825208271954  1.0000
  C   C22       1.0  0.3888186627786182  0.9758343171532288  0.30931834092852745  1.0000
  C   C23       1.0  0.11118114064499451  0.47583300623461594  0.3093169472287088  1.0000
  C   C24       1.0  0.6111653872440783  0.024169371703735003  0.6906847878792276  1.0000
  C   C25       1.0  0.218069371048955  0.5756824906115483  0.4731707019553539  1.0000
  C   C26       1.0  0.7180675017764669  0.9243082290739794  0.5268348755890528  1.0000
  C   C27       1.0  0.7819463811385392  0.4243027678117457  0.5268350110419249  1.0000
  C   C28       1.0  0.28193519661197536  0.07568788084061137  0.4731691201965589  1.0000
  S   S1        1.0  0.9739358014345997  0.6185781031307513  0.8757951976983804  1.0000
  S   S2        1.0  0.47392181497249203  0.881416133251868  0.1242009934826172  1.0000
  S   S3        1.0  0.0260724915808694  0.38142696108624813  0.12420206305923637  1.0000
  S   S4        1.0  0.5260640997991289  0.11857804520866469  0.8757986546111595  1.0000
  O   O1        1.0  0.1507850625570413  0.5225127214617941  0.9083705201058905  1.0000
  O   O2        1.0  0.6507771841016138  0.9774842728899169  0.09162853365133114  1.0000
  O   O3        1.0  0.8492288250117781  0.47749441069126414  0.0916284076953602  1.0000
  O   O4        1.0  0.3492161899621138  0.022501429152789906  0.9083684672530338  1.0000
  O   O5        1.0  0.011116315820153499  0.7683676855057084  0.9205327782989912  1.0000
  O   O6        1.0  0.5111015744843073  0.7316357282678038  0.07946714457495566  1.0000
  O   O7        1.0  0.9888677342177703  0.23163731035737808  0.07946582275341292  1.0000
  O   O8        1.0  0.4888619621630213  0.26835934754113566  0.9205360176531202  1.0000
  O   O9        1.0  0.7146193847886337  0.5707936285076016  0.8796331168140199  1.0000
  O   O10       1.0  0.21461383440101406  0.929203985548014  0.12036338171795788  1.0000
  O   O11       1.0  0.28538331357430735  0.4291996525833354  0.1203630171399723  1.0000
  O   O12       1.0  0.7853776750225165  0.0708019419074901  0.8796380633387457  1.0000
  O   O13       1.0  0.40197350705177115  0.6383032002596919  0.45011334387969976  1.0000
  O   O14       1.0  0.9019162623887526  0.8617065467257204  0.5498844861180174  1.0000
  O   O15       1.0  0.5980870015273823  0.3616942851419793  0.5498847838887428  1.0000
  O   O16       1.0  0.09804540960431751  0.13830702789197594  0.4501147516312329  1.0000
