data_image0
_chemical_formula_structural       Cd2P4H36C40N4O12
_chemical_formula_sum              "Cd2 P4 H36 C40 N4 O12"
_cell_length_a       7.640517294619433
_cell_length_b       12.247038993512076
_cell_length_c       12.375293780332278
_cell_angle_alpha    119.65747288002451
_cell_angle_beta     98.08672863903355
_cell_angle_gamma    89.9997677034956

_space_group_name_H-M_alt    "P 1"
_space_group_IT_number       1

loop_
  _space_group_symop_operation_xyz
  'x, y, z'

loop_
  _atom_site_type_symbol
  _atom_site_label
  _atom_site_symmetry_multiplicity
  _atom_site_fract_x
  _atom_site_fract_y
  _atom_site_fract_z
  _atom_site_occupancy
  Cd  Cd1       1.0  0.7499988489959792  0.15665492520724913  4.773900954800933e-07  1.0000
  Cd  Cd2       1.0  0.25000147024201885  0.8433457366699741  0.9999993972284356  1.0000
  P   P1        1.0  0.56961334494369  0.8346268154848105  0.81759787678223  1.0000
  P   P2        1.0  0.9303865393879392  0.017029028657439903  0.18240198963338367  1.0000
  P   P3        1.0  0.43038687154206917  0.16537290210773392  0.18240233320894816  1.0000
  P   P4        1.0  0.06961092309295938  0.9829697462337279  0.8175959051276391  1.0000
  H   H1        1.0  0.8743921876473237  0.8467311897257731  0.8623160739658359  1.0000
  H   H2        1.0  0.6256084177215585  0.9844143873792036  0.13768481893009013  1.0000
  H   H3        1.0  0.1256080265095818  0.1532685294499032  0.1376833285392891  1.0000
  H   H4        1.0  0.3743905793834088  0.0155862729149732  0.8623149416161269  1.0000
  H   H5        1.0  0.49035148014846197  0.10042450940574099  0.73550611491855  1.0000
  H   H6        1.0  0.009651381701168301  0.36491586002356513  0.26449446409486643  1.0000
  H   H7        1.0  0.5096513806033657  0.8995752113528824  0.26449432321726346  1.0000
  H   H8        1.0  0.9903489375368296  0.635084801853651  0.7355054105236647  1.0000
  H   H9        1.0  0.3871526348501249  0.21275180675594643  0.618230906802296  1.0000
  H   H10       1.0  0.11284719675244051  0.5945180440471136  0.3817683846398197  1.0000
  H   H11       1.0  0.6128502235728491  0.7872479155858088  0.3817687238474504  1.0000
  H   H12       1.0  0.8871544469474415  0.40548261783001743  0.6182324115370859  1.0000
  H   H13       1.0  0.4828889085361184  0.4437899939732476  0.7168579090083327  1.0000
  H   H14       1.0  0.01711024985118571  0.7269292962077005  0.283141843228826  1.0000
  H   H15       1.0  0.5171139498868556  0.5562097283685077  0.28314172164141377  1.0000
  H   H16       1.0  0.9828901814544581  0.2730723036216816  0.716860925961292  1.0000
  H   H17       1.0  0.6499862422185102  0.6377046973664734  0.8978771418663597  1.0000
  H   H18       1.0  0.8500125418517257  0.7398263148062655  0.1021220409329047  1.0000
  H   H19       1.0  0.35001651112337134  0.36229408227373483  0.10212201666998764  1.0000
  H   H20       1.0  0.14998788013851078  0.2601752913556298  0.8978774983129795  1.0000
  H   H21       1.0  0.405841580160356  0.8139488431142327  0.629968487607421  1.0000
  H   H22       1.0  0.0941593527465585  0.18398054071151654  0.37002861985091323  1.0000
  H   H23       1.0  0.5941598533773418  0.18604993335980421  0.37003136434266537  1.0000
  H   H24       1.0  0.9058421835433776  0.8160191800471922  0.629970896726519  1.0000
  H   H25       1.0  0.635213638435566  0.8172430027199199  0.6255567127661406  1.0000
  H   H26       1.0  0.8647864553891438  0.19168620086105656  0.37444016628558063  1.0000
  H   H27       1.0  0.36478647296910083  0.1827557721710775  0.3744430251116312  1.0000
  H   H28       1.0  0.13521497581970016  0.8083125771961123  0.6255588781784454  1.0000
  H   H29       1.0  0.25824690268466094  0.6131369167832262  0.615418588835837  1.0000
  H   H30       1.0  0.24175693437594256  0.9977201966208541  0.3845830420189884  1.0000
  H   H31       1.0  0.741755955738313  0.386862805558529  0.38458104181391656  1.0000
  H   H32       1.0  0.7582432797809633  0.002279522554815101  0.6154163604861296  1.0000
  H   H33       1.0  0.7685874156648254  0.6200296088782481  0.5086896207744046  1.0000
  H   H34       1.0  0.7314138159028545  0.11134034285060318  0.49130955375527907  1.0000
  H   H35       1.0  0.2314153400059098  0.3799691691788282  0.49131034524799577  1.0000
  H   H36       1.0  0.2685876176348502  0.8886584336234338  0.5086902981948073  1.0000
  C   C1        1.0  0.5326757335407422  0.1995177364600167  0.7736494262257735  1.0000
  C   C2        1.0  0.9673259809993838  0.42586672534901043  0.2263512720027379  1.0000
  C   C3        1.0  0.4673259101591398  0.8004829254171145  0.22635136995113214  1.0000
  C   C4        1.0  0.0326731235155222  0.5741348760635887  0.7736497681429455  1.0000
  C   C5        1.0  0.47485598794046513  0.2633630720379685  0.708609851441075  1.0000
  C   C6        1.0  0.025143732264361108  0.5547511968392415  0.2913908777100431  1.0000
  C   C7        1.0  0.5251456511017097  0.736637593005419  0.2913893297637172  1.0000
  C   C8        1.0  0.9748553745793985  0.4452504029902258  0.7086109699217005  1.0000
  C   C9        1.0  0.526550839340878  0.3901789636008886  0.7632396995723238  1.0000
  C   C10       1.0  0.9734465499502036  0.6269377956829489  0.2367606401019983  1.0000
  C   C11       1.0  0.473450804359004  0.6098216982762424  0.23676109660458178  1.0000
  C   C12       1.0  0.026551234760518103  0.3730638025634789  0.7632410934574236  1.0000
  C   C13       1.0  0.6374456889340508  0.45230827054407285  0.8817753571207446  1.0000
  C   C14       1.0  0.8625557493497027  0.5705326226983302  0.11822367195883736  1.0000
  C   C15       1.0  0.3625560621757772  0.5476933324514803  0.11822671865563447  1.0000
  C   C16       1.0  0.1374420353610191  0.42946897554809743  0.8817780616005919  1.0000
  C   C17       1.0  0.6918059675195495  0.3795799646226357  0.9396335038547007  1.0000
  C   C18       1.0  0.8081936068547582  0.43994548656815635  0.06036515926170697  1.0000
  C   C19       1.0  0.3081916070289878  0.620419748220698  0.06036728547790916  1.0000
  C   C20       1.0  0.1918056027412405  0.5600570575459898  0.9396363529973895  1.0000
  C   C21       1.0  0.6952378147119092  0.5834130318234401  0.943158175429886  1.0000
  C   C22       1.0  0.8047625244867334  0.6402515611021116  0.056837864352772285  1.0000
  C   C23       1.0  0.3047625045260888  0.4165876300537762  0.056841699188645116  1.0000
  C   C24       1.0  0.19523504540410394  0.3597481549074787  0.9431613100077171  1.0000
  C   C25       1.0  0.5288697448966887  0.7743164522704479  0.6470640717960947  1.0000
  C   C26       1.0  0.9711305039178059  0.1272535449100332  0.352934996416522  1.0000
  C   C27       1.0  0.4711316886410089  0.22568232420358922  0.3529357801539845  1.0000
  C   C28       1.0  0.028869605158007478  0.8727452315640959  0.6470639339751826  1.0000
  C   C29       1.0  0.51361626495148  0.6334989411863676  0.5694328518679512  1.0000
  C   C30       1.0  0.9863817504577526  0.06406686713281569  0.4305668538578188  1.0000
  C   C31       1.0  0.48638252432014895  0.3664998321215905  0.4305667719374994  1.0000
  C   C32       1.0  0.013615817104231128  0.9359328504599066  0.5694315130166104  1.0000
  C   C33       1.0  0.3630532166788143  0.5635109092548305  0.5627961053932891  1.0000
  C   C34       1.0  0.13694853913109029  0.000715220584226  0.4372035164821638  1.0000
  C   C35       1.0  0.6369482191877369  0.43648786563608166  0.43720455404285724  1.0000
  C   C36       1.0  0.8630516726969618  0.9992845001745752  0.5627950785369008  1.0000
  C   C37       1.0  0.6504389465756619  0.5677754932517943  0.5057914676545964  1.0000
  C   C38       1.0  0.8495615685951349  0.06198673862866142  0.49420948000539505  1.0000
  C   C39       1.0  0.34956248929088934  0.4322232816391178  0.49420919178154316  1.0000
  C   C40       1.0  0.1504374308386858  0.9380139200823834  0.5057910880268821  1.0000
  N   N1        1.0  0.6373063963902226  0.25586029290987267  0.8851255932731873  1.0000
  N   N2        1.0  0.8626933577520649  0.3707327717096761  0.11487474460599154  1.0000
  N   N3        1.0  0.3626927104535369  0.7441413069195946  0.11487625435855611  1.0000
  N   N4        1.0  0.1373044246298107  0.6292688281198764  0.8851261814673775  1.0000
  O   O1        1.0  0.7583447136987119  0.7955207480740684  0.848301618650794  1.0000
  O   O2        1.0  0.7416565994439354  0.947220250552199  0.15169855207291494  1.0000
  O   O3        1.0  0.24165550045819373  0.20447897110160074  0.15169778385433116  1.0000
  O   O4        1.0  0.25834239533217845  0.052780411325109404  0.8483004009872417  1.0000
  O   O5        1.0  0.4334964575093707  0.7695408905126156  0.8485111792012743  1.0000
  O   O6        1.0  0.0665042213500939  0.9210294155933881  0.15148864509555446  1.0000
  O   O7        1.0  0.5665037589763884  0.2304588270799286  0.1514890307899036  1.0000
  O   O8        1.0  0.9334917088355824  0.07896747231164622  0.8485081913663278  1.0000
  O   O9        1.0  0.5630605703024258  0.9781670571402686  0.8767808544144698  1.0000
  O   O10       1.0  0.9369390718085384  0.1013857961035569  0.12321854967977688  1.0000
  O   O11       1.0  0.4369383217214492  0.021832660452361104  0.1232184340183338  1.0000
  O   O12       1.0  0.06306114234836709  0.8986139230721193  0.8767808528253479  1.0000
