data_image0
_chemical_formula_structural       Al2H14C26O10F2
_chemical_formula_sum              "Al2 H14 C26 O10 F2"
_cell_length_a       6.621347639379992
_cell_length_b       11.172577804513155
_cell_length_c       15.232970266632435
_cell_angle_alpha    79.53987569552466
_cell_angle_beta     78.4480869207624
_cell_angle_gamma    71.63278318330207

_space_group_name_H-M_alt    "P 1"
_space_group_IT_number       1

loop_
  _space_group_symop_operation_xyz
  'x, y, z'

loop_
  _atom_site_type_symbol
  _atom_site_label
  _atom_site_symmetry_multiplicity
  _atom_site_fract_x
  _atom_site_fract_y
  _atom_site_fract_z
  _atom_site_occupancy
  Al  Al1       1.0  0.4969892900877967  0.49531386431979735  0.5006091551540734  1.0000
  Al  Al2       1.0  0.9975702306358796  0.4933043846754471  0.5020630419123862  1.0000
  H   H1        1.0  0.24161405995165816  0.4166885826644489  0.6105765716080853  1.0000
  H   H2        1.0  0.6954009229671455  0.6504650012986063  0.4511174389441024  1.0000
  H   H3        1.0  0.8190053112317202  0.6135690245890828  0.7661274731363434  1.0000
  H   H4        1.0  0.7163167544007932  0.625195647970628  0.9304076787633518  1.0000
  H   H5        1.0  0.07939957789923104  0.4503945197090574  0.23058064532107636  1.0000
  H   H6        1.0  0.1642849941857065  0.45198121460207114  0.0644650579225043  1.0000
  H   H7        1.0  0.6576716138751876  0.5469462266007808  0.2305998598337382  1.0000
  H   H8        1.0  0.7490640406124456  0.5457527007984382  0.06476616486852284  1.0000
  H   H9        1.0  0.4180523700095194  0.3711550781684991  0.7827018229736851  1.0000
  H   H10       1.0  0.334756466340906  0.3689398973549203  0.9484467765094209  1.0000
  H   H11       1.0  0.25245291020282673  0.2447980379834007  0.393017833564599  1.0000
  H   H12       1.0  0.46139368526994673  0.7784752023950576  0.3765463121711646  1.0000
  H   H13       1.0  0.7505147063642497  0.874114328708508  0.5501310892714315  1.0000
  H   H14       1.0  0.632622165928403  0.11113321375844269  0.5459933541904789  1.0000
  C   C1        1.0  0.8615272816691331  0.2707686563469238  0.49063273014936465  1.0000
  C   C2        1.0  0.6802220561118729  0.4886043885635302  0.6647086142082016  1.0000
  C   C3        1.0  0.13609423208134078  0.7248908258042377  0.4941012305312  1.0000
  C   C4        1.0  0.3117285235432307  0.4992141880845721  0.3399152372923026  1.0000
  C   C5        1.0  0.6241005790737547  0.49218154422010935  0.7639527395071823  1.0000
  C   C6        1.0  0.3631119867896118  0.49896607684885197  0.24053712704698432  1.0000
  C   C7        1.0  0.7106884133755428  0.5615615927529235  0.8066603997380852  1.0000
  C   C8        1.0  0.6546930878373091  0.5661476507472328  0.8992399880998151  1.0000
  C   C9        1.0  0.2253262116435907  0.47154713498223794  0.1932557767128174  1.0000
  C   C10       1.0  0.27505042570938804  0.471778561478331  0.10018066857442422  1.0000
  C   C11       1.0  0.5512027673122334  0.5263007179739817  0.19311453192516836  1.0000
  C   C12       1.0  0.6003720558047759  0.5261528001503634  0.10012406023697913  1.0000
  C   C13       1.0  0.4839774187023736  0.4257701341134421  0.8158931578835009  1.0000
  C   C14       1.0  0.43531790465149117  0.4264224009442685  0.9088765495737332  1.0000
  C   C15       1.0  0.5177911517266196  0.49754268562742954  0.9526458553716209  1.0000
  C   C16       1.0  0.46368996505440657  0.4988558416607135  0.05149346757046659  1.0000
  C   C17       1.0  0.9392392254017566  0.13221159018690537  0.48116299917713684  1.0000
  C   C18       1.0  0.1508217079996044  0.07240272561234208  0.43771208711970633  1.0000
  C   C19       1.0  0.7958481919736188  0.061932770149652996  0.5169869714410921  1.0000
  C   C20       1.0  0.2950188920428474  0.1427352740406107  0.39205614241277686  1.0000
  C   C21       1.0  0.48932433311035334  0.08222867362407979  0.34539145172507085  1.0000
  C   C22       1.0  0.06828931402596793  0.8667184511018534  0.48142289551636713  1.0000
  C   C23       1.0  0.8609924122065065  0.9294446202376178  0.5182548649657618  1.0000
  C   C24       1.0  0.21424824588393673  0.9370844817265651  0.43579705187985956  1.0000
  C   C25       1.0  0.4150092552764377  0.8788257008779539  0.3846412411096836  1.0000
  C   C26       1.0  0.5485396324153912  0.9502053642781686  0.34082334503644063  1.0000
  O   O1        1.0  0.6665519587179105  0.3274501772966474  0.4809840135341971  1.0000
  O   O2        1.0  0.8601688109887392  0.5065757349794706  0.6263840339356576  1.0000
  O   O3        1.0  0.9985430731673545  0.6701236257710405  0.4873830689193994  1.0000
  O   O4        1.0  0.4449985664861489  0.5237254622362784  0.3787532458227858  1.0000
  O   O5        1.0  0.3257894440264977  0.6691395299526519  0.5124188376434873  1.0000
  O   O6        1.0  0.13733255586688387  0.4758201315957962  0.3802846716837535  1.0000
  O   O7        1.0  0.9909603716320203  0.32142585416664105  0.5107981523973635  1.0000
  O   O8        1.0  0.544776981765743  0.4668457977577702  0.6252276902990276  1.0000
  O   O9        1.0  0.25843345139556106  0.43581415255048495  0.5452617884252574  1.0000
  O   O10       1.0  0.7328196134744616  0.5583198314119927  0.46190464957028604  1.0000
  F   F1        1.0  0.6277614388308592  0.14808107239828414  0.3007808741116165  1.0000
  F   F2        1.0  0.7390914960059547  0.8956143521136254  0.2909480690345063  1.0000
