data_image0
_chemical_formula_structural       Al3H36C81O18F9
_chemical_formula_sum              "Al3 H36 C81 O18 F9"
_cell_length_a       4.016178508088183
_cell_length_b       27.77741598408506
_cell_length_c       27.851578183419598
_cell_angle_alpha    59.997159942113356
_cell_angle_beta     90.3191279457016
_cell_angle_gamma    89.65772216040975

_space_group_name_H-M_alt    "P 1"
_space_group_IT_number       1

loop_
  _space_group_symop_operation_xyz
  'x, y, z'

loop_
  _atom_site_type_symbol
  _atom_site_label
  _atom_site_symmetry_multiplicity
  _atom_site_fract_x
  _atom_site_fract_y
  _atom_site_fract_z
  _atom_site_occupancy
  Al  Al1       1.0  0.0017067631876698925  0.49964552858472905  0.4999425454097802  1.0000
  Al  Al2       1.0  0.948455890746295  0.8327588566548061  0.8325989919840209  1.0000
  Al  Al3       1.0  0.051019802847335385  0.16607601610721193  0.16699430620076328  1.0000
  H   H1        1.0  0.513433389335681  0.07661467671123753  0.922595524416593  1.0000
  H   H2        1.0  0.5112169713409997  0.2552821752785094  0.8341334109521482  1.0000
  H   H3        1.0  0.5027921345052703  0.16658822574702034  0.7443974385138715  1.0000
  H   H4        1.0  0.7512265153629086  0.9270491547452766  0.9077778687077468  1.0000
  H   H5        1.0  0.7785254131542061  0.015588210047909255  0.9084316666014514  1.0000
  H   H6        1.0  0.19099029150956423  0.09545116240220623  0.7572073174167002  1.0000
  H   H7        1.0  0.2559194375517748  0.08928788364678303  0.9841404737577406  1.0000
  H   H8        1.0  0.8291802104917277  0.24186934789766928  0.9945335343999558  1.0000
  H   H9        1.0  0.8229905601356577  0.24120397853270265  0.906100924807454  1.0000
  H   H10       1.0  0.7997293059956759  0.3144341980211467  0.7620211041194266  1.0000
  H   H11       1.0  0.21424952751225124  0.3319984971691883  0.5968608051691148  1.0000
  H   H12       1.0  0.21250397375513327  0.24143230431706533  0.6845669841981419  1.0000
  H   H13       1.0  0.5031686556071405  0.4995546827614988  0.07792626835610152  1.0000
  H   H14       1.0  0.5151637575686507  0.5894555377063782  0.1664082711394173  1.0000
  H   H15       1.0  0.5143065285446792  0.4107646053460813  0.2561763094506091  1.0000
  H   H16       1.0  0.2493584221138078  0.3369572596661  0.09180735124242291  1.0000
  H   H17       1.0  0.229650093559016  0.42583051403614297  0.09197220820107796  1.0000
  H   H18       1.0  0.817470123528217  0.350879089478589  0.2432189557566318  1.0000
  H   H19       1.0  0.7731370040059174  0.5738951443855812  0.016686732014186002  1.0000
  H   H20       1.0  0.17973825133816487  0.7366363258598271  0.005588874922018796  1.0000
  H   H21       1.0  0.19366446210043617  0.6476014645094281  0.09433208490493432  1.0000
  H   H22       1.0  0.21841802776386027  0.576134711163661  0.23862828684976725  1.0000
  H   H23       1.0  0.8109886114954816  0.4281600790166635  0.4036187493507412  1.0000
  H   H24       1.0  0.817258688138757  0.42572240003502065  0.3157770969899473  1.0000
  H   H25       1.0  0.4958081320755879  0.9224806256812814  0.5002292027747757  1.0000
  H   H26       1.0  0.4798859342900101  0.8340642847561031  0.4103143814948352  1.0000
  H   H27       1.0  0.4770442909296121  0.7438131210219724  0.588509217795611  1.0000
  H   H28       1.0  0.7386815653157014  0.9074464160744358  0.6636964307521892  1.0000
  H   H29       1.0  0.75686970009518  0.9079926220253969  0.5747689756931036  1.0000
  H   H30       1.0  0.181593784690925  0.7569162615674259  0.6474598084188798  1.0000
  H   H31       1.0  0.23739462869242078  0.9857288508663514  0.42486414711675735  1.0000
  H   H32       1.0  0.8263891427777991  0.992726229188307  0.2650726709199631  1.0000
  H   H33       1.0  0.8060742934323101  0.9040333987263551  0.35407221945442285  1.0000
  H   H34       1.0  0.7723773112696931  0.761545565811126  0.42378166806918227  1.0000
  H   H35       1.0  0.1956725726575782  0.5964536011902911  0.5701430201106773  1.0000
  H   H36       1.0  0.18513778969658287  0.6842372709509805  0.5730784144824097  1.0000
  C   C1        1.0  0.4962677097333667  0.5744547461838253  0.4979768371133417  1.0000
  C   C2        1.0  0.50647561321437  0.4266400876549597  0.5748853916465818  1.0000
  C   C3        1.0  0.5030064673264574  0.5000336289200362  0.425976093261717  1.0000
  C   C4        1.0  0.447607640193489  0.9075892869056689  0.8313876036825362  1.0000
  C   C5        1.0  0.45609088310209245  0.7596614131785203  0.9072709281807507  1.0000
  C   C6        1.0  0.447081516128783  0.8312710560279016  0.759882769329124  1.0000
  C   C7        1.0  0.5493337635205222  0.1663311870787254  0.09290862786758679  1.0000
  C   C8        1.0  0.5486954821879662  0.2399348891655678  0.1671379742968426  1.0000
  C   C9        1.0  0.5539062087826635  0.09265429419021141  0.24064611006490821  1.0000
  C   C10       1.0  0.5235681589176763  0.16595588368270622  0.8844995931998694  1.0000
  C   C11       1.0  0.512129017788446  0.11599549157412549  0.8835686661700776  1.0000
  C   C12       1.0  0.49786420022719796  0.11551648548189064  0.8335286869752494  1.0000
  C   C13       1.0  0.4985972269318992  0.16642109491700552  0.7836114069994834  1.0000
  C   C14       1.0  0.5079039684157322  0.21709251603916638  0.7831268292751473  1.0000
  C   C15       1.0  0.5181675421945398  0.2161555177214042  0.8339230877082499  1.0000
  C   C16       1.0  0.6257508910842161  0.9640457690514526  0.8752738703753096  1.0000
  C   C17       1.0  0.6380962873127558  0.01388254838525444  0.875734626415415  1.0000
  C   C18       1.0  0.4859628069924255  0.062441345307540655  0.8333311354867516  1.0000
  C   C19       1.0  0.3221885026055276  0.05958591894046377  0.7901736433338937  1.0000
  C   C20       1.0  0.31507846197755635  0.009662689246340615  0.7902985821750618  1.0000
  C   C21       1.0  0.46154348862017247  0.9610713178944511  0.8323524329302641  1.0000
  C   C22       1.0  0.3899760088696809  0.12266422101875951  0.9852930090892115  1.0000
  C   C23       1.0  0.4024489965189345  0.12341865204138712  0.03462084432801758  1.0000
  C   C24       1.0  0.5511530388903054  0.1662293424897427  0.03909258388301139  1.0000
  C   C25       1.0  0.700954139027715  0.20888216695268397  0.9917042148228177  1.0000
  C   C26       1.0  0.6942398077413258  0.2086251120468747  0.9418423368109429  1.0000
  C   C27       1.0  0.5359029120078913  0.16586597837152817  0.9376052706574426  1.0000
  C   C28       1.0  0.6649969626244567  0.3169773363309931  0.7267666994551972  1.0000
  C   C29       1.0  0.6649302453571052  0.3670467880497414  0.677117729725502  1.0000
  C   C30       1.0  0.5070381730019449  0.37376653861110054  0.6290867637085568  1.0000
  C   C31       1.0  0.34529021396512866  0.32702409089222356  0.6334430234872456  1.0000
  C   C32       1.0  0.3475938341963669  0.27630507090143663  0.6825064998781086  1.0000
  C   C33       1.0  0.507308256521469  0.2704382928357277  0.7302757733998603  1.0000
  C   C34       1.0  0.4990378740380236  0.5506619108541173  0.11606036380251075  1.0000
  C   C35       1.0  0.5066949400882735  0.4997386284551695  0.11697779135214857  1.0000
  C   C36       1.0  0.5181182105525862  0.44903230137955324  0.1670297208451359  1.0000
  C   C37       1.0  0.5204341091311873  0.4498751477880631  0.21694659981456252  1.0000
  C   C38       1.0  0.5156042206744189  0.5001025287044386  0.21741057589422746  1.0000
  C   C39       1.0  0.5064267505054403  0.5501304665884775  0.16662143884908429  1.0000
  C   C40       1.0  0.376657356084891  0.3406366401614918  0.12447234842081663  1.0000
  C   C41       1.0  0.36853734061618576  0.39071861949364023  0.12447244262113347  1.0000
  C   C42       1.0  0.5235565978578478  0.39578800744341436  0.16709592134633763  1.0000
  C   C43       1.0  0.6845730334818682  0.34887561000313383  0.21008148573116606  1.0000
  C   C44       1.0  0.68779024804288  0.299259930022906  0.20951756748792144  1.0000
  C   C45       1.0  0.5391525322128814  0.293902799577566  0.16710878865857373  1.0000
  C   C46       1.0  0.6346018372399199  0.6083927956893689  0.015322613869507484  1.0000
  C   C47       1.0  0.6184948635224641  0.6584904721706908  0.9658059211041063  1.0000
  C   C48       1.0  0.46257739043304014  0.7056429404169084  0.9611409546335562  1.0000
  C   C49       1.0  0.31225626970630316  0.70086127844084  0.008575608317784174  1.0000
  C   C50       1.0  0.32326735382594046  0.6507921832133476  0.058593864342661464  1.0000
  C   C51       1.0  0.4861989525405048  0.6038089118381791  0.06292859518261903  1.0000
  C   C52       1.0  0.3544943205499179  0.5433307451427184  0.2738710368561356  1.0000
  C   C53       1.0  0.3509799461318721  0.5434504117957533  0.323591146906722  1.0000
  C   C54       1.0  0.5100914406502284  0.5018987934854736  0.37163678945616135  1.0000
  C   C55       1.0  0.6781940422727998  0.4598324232846097  0.36709316880705245  1.0000
  C   C56       1.0  0.678905251180417  0.4584374652891938  0.3179539362314187  1.0000
  C   C57       1.0  0.5165755702277293  0.5004218177858419  0.27028062732630076  1.0000
  C   C58       1.0  0.4989337345207616  0.8843086038822181  0.44922184764561723  1.0000
  C   C59       1.0  0.4900817561129072  0.883371229845814  0.49998924300968645  1.0000
  C   C60       1.0  0.47552038079995623  0.8331976533960488  0.5504729044764359  1.0000
  C   C61       1.0  0.4721682306478883  0.7832025393674372  0.5495163245886231  1.0000
  C   C62       1.0  0.4781315511480031  0.782778849633637  0.4994171116117981  1.0000
  C   C63       1.0  0.4887093111572014  0.8337158646721294  0.4496167405439805  1.0000
  C   C64       1.0  0.6145540267242566  0.8748968072446817  0.659567675766901  1.0000
  C   C65       1.0  0.6213255037555071  0.8753173890733023  0.609398961492566  1.0000
  C   C66       1.0  0.46968194769218025  0.8329577876966142  0.6036629635961503  1.0000
  C   C67       1.0  0.31263337422358006  0.7897885686111722  0.6500018216021246  1.0000
  C   C68       1.0  0.311369917820464  0.7898510331995398  0.6997102268741742  1.0000
  C   C69       1.0  0.45707892029268044  0.8319496755713943  0.70575691494939  1.0000
  C   C70       1.0  0.3752862871620478  0.9861513631682186  0.39110482303739497  1.0000
  C   C71       1.0  0.39561726781527534  0.035585146897681004  0.34113678783395324  1.0000
  C   C72       1.0  0.550284971486519  0.039090732130787904  0.2948209025332885  1.0000
  C   C73       1.0  0.6958074439781682  0.9906593492522902  0.3002515386156688  1.0000
  C   C74       1.0  0.6807387047838844  0.940700958415853  0.350259180894163  1.0000
  C   C75       1.0  0.5178203051801373  0.9374788721042223  0.3963221245953503  1.0000
  C   C76       1.0  0.6390316416556628  0.7263289051481935  0.45614353033474947  1.0000
  C   C77       1.0  0.6446593871537016  0.6766679983803173  0.455663957575659  1.0000
  C   C78       1.0  0.4895959021497944  0.6286297796047792  0.49670950562708066  1.0000
  C   C79       1.0  0.32452104011406385  0.6330193425461629  0.5387681782451637  1.0000
  C   C80       1.0  0.3216181716571782  0.6821378961225832  0.5404582139774374  1.0000
  C   C81       1.0  0.47891881677701764  0.7298815382355742  0.4988870186134022  1.0000
  O   O1        1.0  0.7369138486429064  0.4728830896458761  0.4605969283906361  1.0000
  O   O2        1.0  0.7328477931108068  0.565140902185121  0.47339094073569044  1.0000
  O   O3        1.0  0.7422161259549964  0.46051487487311266  0.565600551086625  1.0000
  O   O4        1.0  0.2624173163963306  0.5244771487140981  0.43482550556974786  1.0000
  O   O5        1.0  0.27086117253149666  0.43363990098842475  0.5409298482836461  1.0000
  O   O6        1.0  0.2649868934949636  0.540228109341257  0.5248930315956456  1.0000
  O   O7        1.0  0.6818804488809248  0.8059566800858847  0.7943373107965711  1.0000
  O   O8        1.0  0.6785578416494857  0.8984312809640331  0.8059375361525623  1.0000
  O   O9        1.0  0.6894544890974357  0.7937579417158674  0.8990807392729536  1.0000
  O   O10       1.0  0.20604647379616384  0.8569493732745813  0.7670024676486094  1.0000
  O   O11       1.0  0.21654878064398272  0.7677860664465899  0.8741301759465826  1.0000
  O   O12       1.0  0.2084963952491634  0.8750364623330145  0.8568262231086264  1.0000
  O   O13       1.0  0.7908416198449331  0.12586995754114846  0.23220007451035227  1.0000
  O   O14       1.0  0.7870650871208651  0.14105750684360885  0.1266561491404588  1.0000
  O   O15       1.0  0.7860469528948143  0.23255737252790004  0.1412746900418114  1.0000
  O   O16       1.0  0.3181919510003794  0.10048333652842702  0.20660387843184938  1.0000
  O   O17       1.0  0.316038970229762  0.20596443124279773  0.19211436800879508  1.0000
  O   O18       1.0  0.31096658668670324  0.1921805531265548  0.1004258603935924  1.0000
  F   F1        1.0  0.15514203729149756  0.00797881233017993  0.7479092051837525  1.0000
  F   F2        1.0  0.2589236947419876  0.08103381994685324  0.0802926642982555  1.0000
  F   F3        1.0  0.8224545703041668  0.4101950098326057  0.6769740188564484  1.0000
  F   F4        1.0  0.8456647730513253  0.25439976924916863  0.25160083082780454  1.0000
  F   F5        1.0  0.7646855728307782  0.6618060724012481  0.9203308825174615  1.0000
  F   F6        1.0  0.18804116867837445  0.5861787690751542  0.3238476350230997  1.0000
  F   F7        1.0  0.15787122949679128  0.7475394305079491  0.7440634975922078  1.0000
  F   F8        1.0  0.25427398382071686  0.08214800051558771  0.33701919749100273  1.0000
  F   F9        1.0  0.8051313632502896  0.6764767675659867  0.41307512646097416  1.0000
