data_image0
_chemical_formula_structural       Zn6H24C36N36O24
_chemical_formula_sum              "Zn6 H24 C36 N36 O24"
_cell_length_a       15.018444829878481
_cell_length_b       15.018449953083675
_cell_length_c       15.018433070340096
_cell_angle_alpha    109.47126603726333
_cell_angle_beta     109.47114552873208
_cell_angle_gamma    109.47123373800474

_space_group_name_H-M_alt    "P 1"
_space_group_IT_number       1

loop_
  _space_group_symop_operation_xyz
  'x, y, z'

loop_
  _atom_site_type_symbol
  _atom_site_label
  _atom_site_symmetry_multiplicity
  _atom_site_fract_x
  _atom_site_fract_y
  _atom_site_fract_z
  _atom_site_occupancy
  Zn  Zn1       1.0  0.7500036772983874  0.2500052447824857  0.5000058567476415  1.0000
  Zn  Zn2       1.0  0.2500078449346858  0.7500027304705625  0.5000092592015835  1.0000
  Zn  Zn3       1.0  0.49999036805726854  0.7499970930595481  0.24998973647777956  1.0000
  Zn  Zn4       1.0  0.4999934450807685  0.24999214351241514  0.7499979181443379  1.0000
  Zn  Zn5       1.0  0.7500025171672106  0.49999994299560774  0.2499941825052616  1.0000
  Zn  Zn6       1.0  0.24999908656593556  0.5000030067029257  0.7499979241603398  1.0000
  H   H1        1.0  0.8755203154742401  0.11324770384944559  0.4720186976215928  1.0000
  H   H2        1.0  0.124472669197324  0.5964967692197689  0.23772593841083295  1.0000
  H   H3        1.0  0.35877386038484343  0.8867468751515518  0.7622748333848933  1.0000
  H   H4        1.0  0.6412255419500212  0.4034955757919861  0.5279745643427489  1.0000
  H   H5        1.0  0.23772566618926302  0.596500435514386  0.12447695335896483  1.0000
  H   H6        1.0  0.47202379987709236  0.1132520817667878  0.8755279270615047  1.0000
  H   H7        1.0  0.5279747367230668  0.40349817873205046  0.6412270736592234  1.0000
  H   H8        1.0  0.7622662127484784  0.8867448579495727  0.3587654089273897  1.0000
  H   H9        1.0  0.2377348736370521  0.12449096214110263  0.5965134738744382  1.0000
  H   H10       1.0  0.47201877096837536  0.8755200277701362  0.11324854708244911  1.0000
  H   H11       1.0  0.7622670135080796  0.35876785822928536  0.8867419421070437  1.0000
  H   H12       1.0  0.5279747387378249  0.6412273955922742  0.4034977042963562  1.0000
  H   H13       1.0  0.886749914236425  0.35877533311084864  0.7622751941633013  1.0000
  H   H14       1.0  0.11325180718343823  0.8755224616810366  0.4720260504226277  1.0000
  H   H15       1.0  0.4034983291361911  0.6412288583245386  0.5279749915702966  1.0000
  H   H16       1.0  0.5964986309563968  0.12447716682308409  0.23772656787443938  1.0000
  H   H17       1.0  0.8867495757374042  0.7622678109116378  0.35877480925990574  1.0000
  H   H18       1.0  0.4034991754668197  0.5279765035612626  0.6412285692375832  1.0000
  H   H19       1.0  0.5964990128506642  0.2377299343208677  0.12447734188125287  1.0000
  H   H20       1.0  0.11325251383745887  0.47202545907587984  0.8755285944315291  1.0000
  H   H21       1.0  0.12448835125143626  0.23773718562534898  0.5965120154707293  1.0000
  H   H22       1.0  0.8755182319595035  0.472018439511224  0.11324782082472495  1.0000
  H   H23       1.0  0.6412288124882792  0.5279773065606719  0.40349747440994593  1.0000
  H   H24       1.0  0.3587677475387493  0.7622696415112102  0.8867442758650271  1.0000
  C   C1        1.0  0.6176706585183637  5.171707826547201e-07  0.3616578674860235  1.0000
  C   C2        1.0  0.3823249536301248  0.7439908131503047  0.3823251144767641  1.0000
  C   C3        1.0  0.3616636747741068  0.999998125313148  0.6176746553983536  1.0000
  C   C4        1.0  0.6383383975923066  0.2560084743398576  0.6383360732732584  1.0000
  C   C5        1.0  0.3823388599171408  0.3823385316212437  0.744001671983014  1.0000
  C   C6        1.0  0.3616615192071036  0.617670901452861  0.9999982842160691  1.0000
  C   C7        1.0  0.6176691503733804  0.36165945920234316  0.9999975571183555  1.0000
  C   C8        1.0  0.6383355467595064  0.6383364002516174  0.25600676108864934  1.0000
  C   C9        1.0  4.607603184889767e-08  0.3616645574717479  0.6176758997362626  1.0000
  C   C10       1.0  1.0369739555849102e-06  0.6176691425737886  0.3616621714941176  1.0000
  C   C11       1.0  0.25601240808617826  0.638342290901754  0.6383410425507066  1.0000
  C   C12       1.0  0.7439912853599608  0.3823281854304669  0.38232663586494203  1.0000
  C   C13       1.0  0.788528277019054  0.05687661842656414  0.42817211249303  1.0000
  C   C14       1.0  0.2114644558542976  0.6396451809150391  0.2683499497303502  1.0000
  C   C15       1.0  0.371296751004671  0.9431196392257348  0.7316540819357089  1.0000
  C   C16       1.0  0.6287003346758906  0.3603518874268445  0.5718240438036517  1.0000
  C   C17       1.0  0.2683458289589638  0.6396441924599969  0.2114694084064014  1.0000
  C   C18       1.0  0.4281762540275196  0.05687931413731916  0.7885344176056818  1.0000
  C   C19       1.0  0.5718221596657428  0.360352812002283  0.6287054459953438  1.0000
  C   C20       1.0  0.7316515458415863  0.9431221618432845  0.3712957719127063  1.0000
  C   C21       1.0  0.2683550147314617  0.21147151577071088  0.6396551433435674  1.0000
  C   C22       1.0  0.42817061651879823  0.7885273413486401  0.05687358685771946  1.0000
  C   C23       1.0  0.7316499192100209  0.371296945941495  0.9431189813371931  1.0000
  C   C24       1.0  0.5718219044261729  0.6286994508082273  0.3603509023774196  1.0000
  C   C25       1.0  0.9431216199602234  0.3712979150944663  0.7316537191352666  1.0000
  C   C26       1.0  0.056881391424795334  0.78853106061257  0.42818009082748193  1.0000
  C   C27       1.0  0.36035680405732506  0.6287058975378201  0.57182811638684  1.0000
  C   C28       1.0  0.63964473333926  0.2114691055140981  0.2683488343962209  1.0000
  C   C29       1.0  0.9431220678797485  0.731649976351342  0.3712989843010493  1.0000
  C   C30       1.0  0.3603562531843566  0.5718279820646971  0.6287046211937196  1.0000
  C   C31       1.0  0.6396441644425295  0.26834916318940577  0.2114693096128661  1.0000
  C   C32       1.0  0.05688167243194188  0.42818054377544723  0.7885345498580066  1.0000
  C   C33       1.0  0.21146822016152803  0.26835749525406527  0.639654081564224  1.0000
  C   C34       1.0  0.7885246665430897  0.42816853538906946  0.05687158570611221  1.0000
  C   C35       1.0  0.6286998143372814  0.5718241585123567  0.36035215919152835  1.0000
  C   C36       1.0  0.37129565227534295  0.7316506420276666  0.943118319093557  1.0000
  N   N1        1.0  0.7154242381664346  0.09233598000205498  0.4213975446433977  1.0000
  N   N2        1.0  0.2845709965650726  0.7059750373389662  0.3769106071630832  1.0000
  N   N3        1.0  0.3290673971850919  0.9076636998207376  0.6230943441986483  1.0000
  N   N4        1.0  0.6709328523007869  0.29402508998938975  0.5785995279374632  1.0000
  N   N5        1.0  0.3769054173933454  0.7059742954437596  0.2845726788116707  1.0000
  N   N6        1.0  0.42140015853626517  0.09233430904299678  0.7154281001896763  1.0000
  N   N7        1.0  0.5785980876044406  0.2940230415354536  0.6709365954173664  1.0000
  N   N8        1.0  0.6230879979317976  0.9076635228821176  0.32906112526141146  1.0000
  N   N9        1.0  0.3769143353373465  0.28458380499999686  0.7059844812221172  1.0000
  N   N10       1.0  0.42139838909350397  0.7154245336165702  0.09233126045091232  1.0000
  N   N11       1.0  0.623086746784473  0.32906275233946053  0.907659518130572  1.0000
  N   N12       1.0  0.5785974650709703  0.6709342457272102  0.2940217800762  1.0000
  N   N13       1.0  0.907666183687837  0.32906891356093854  0.6230951091545834  1.0000
  N   N14       1.0  0.09233641544805947  0.7154259451572145  0.4214027166568854  1.0000
  N   N15       1.0  0.29402598293209076  0.6709376702665111  0.5786006092303639  1.0000
  N   N16       1.0  0.7059748696319444  0.2845744301588909  0.3769104424021776  1.0000
  N   N17       1.0  0.9076673639966871  0.623088702958633  0.32906596314087017  1.0000
  N   N18       1.0  0.2940263451540376  0.5786022231022018  0.6709377501678306  1.0000
  N   N19       1.0  0.705974099663365  0.37691028507016  0.284573301465251  1.0000
  N   N20       1.0  0.09233795742299124  0.42140398507962834  0.7154293135148749  1.0000
  N   N21       1.0  0.2845842090344276  0.37691894235146606  0.7059856586760772  1.0000
  N   N22       1.0  0.7154231160220519  0.42139682587716015  0.09233161997578795  1.0000
  N   N23       1.0  0.6709322077301038  0.5785980162782566  0.2940230709886294  1.0000
  N   N24       1.0  0.3290637600970995  0.6230873073597464  0.9076605710808465  1.0000
  N   N25       1.0  0.517458578378708  3.605423160767119e-07  0.33584921628393977  1.0000
  N   N26       1.0  0.4825412704381336  0.818392736519357  0.48253088802288613  1.0000
  N   N27       1.0  0.3358555992773019  0.9999921918104279  0.5174595813089058  1.0000
  N   N28       1.0  0.6641499451643967  0.18160322446903632  0.6641397525269994  1.0000
  N   N29       1.0  0.48255263167034435  0.4825458122895724  0.8184006218648818  1.0000
  N   N30       1.0  0.3358597488103995  0.5174619093611241  6.645124592895331e-06  1.0000
  N   N31       1.0  0.5174589204642358  0.33585491064029344  6.096770377441092e-06  1.0000
  N   N32       1.0  0.6641501855906283  0.6641460810153248  0.1816043402763087  1.0000
  N   N33       1.0  0.9999922913132407  0.3358553553059027  0.5174603144280072  1.0000
  N   N34       1.0  0.9999954822366347  0.5174541259459816  0.3358502477168274  1.0000
  N   N35       1.0  0.18160333238360213  0.6641459881855737  0.6641446252649601  1.0000
  N   N36       1.0  0.8183907858439881  0.4825413767758918  0.4825360149840919  1.0000
  O   O1        1.0  0.4314436106380412  0.9098888609737301  0.2797719905711349  1.0000
  O   O2        1.0  0.5685708818841135  0.8483424660628671  0.47844780936656417  1.0000
  O   O3        1.0  0.3698903035353283  0.09010703318293882  0.5215615929242645  1.0000
  O   O4        1.0  0.6301058408009367  0.15166762912983248  0.7202072863785814  1.0000
  O   O5        1.0  0.4784286916037954  0.8483205558416741  0.5685342538881814  1.0000
  O   O6        1.0  0.2797844223319073  0.9098798165972966  0.4314386434461782  1.0000
  O   O7        1.0  0.7202339884013965  0.15165837130135895  0.6301081238191912  1.0000
  O   O8        1.0  0.5215570955160018  0.09011389530105163  0.3698835259762987  1.0000
  O   O9        1.0  0.4784518653353728  0.5685595482499792  0.8483341886965335  1.0000
  O   O10       1.0  0.27978866374726147  0.4314556033677022  0.909894873924749  1.0000
  O   O11       1.0  0.5215496705485093  0.36988983618858384  0.09012082560946767  1.0000
  O   O12       1.0  0.720230703780814  0.6301145300901184  0.15166693206096232  1.0000
  O   O13       1.0  0.090107551105838  0.3698947859663448  0.5215671738250762  1.0000
  O   O14       1.0  0.909882180860684  0.4314296879104873  0.2797676079197161  1.0000
  O   O15       1.0  0.15166107919272054  0.6301043009428894  0.7202163911484831  1.0000
  O   O16       1.0  0.8483337890694711  0.5685617793279435  0.47844501998302047  1.0000
  O   O17       1.0  0.09010669579703284  0.5215576606597452  0.3698890780711538  1.0000
  O   O18       1.0  0.15166336883297044  0.7202226284283526  0.630109699789557  1.0000
  O   O19       1.0  0.8483231695760979  0.4784383839618729  0.5685471311903998  1.0000
  O   O20       1.0  0.9098809388924778  0.2797802103081324  0.4314344038568976  1.0000
  O   O21       1.0  0.568575811708392  0.47845777812980833  0.8483437819727088  1.0000
  O   O22       1.0  0.4314540181998865  0.27978017259253113  0.9098946407831933  1.0000
  O   O23       1.0  0.6301150114637224  0.7202229232874161  0.15167042726479726  1.0000
  O   O24       1.0  0.36989369506795094  0.521551812115618  0.09012113951833822  1.0000
