data_image0
_chemical_formula_structural       Zn8H48C96O26
_chemical_formula_sum              "Zn8 H48 C96 O26"
_cell_length_a       27.778699795752317
_cell_length_b       28.03460421549326
_cell_length_c       28.419792896450257
_cell_angle_alpha    120.44859483324059
_cell_angle_beta     89.99566500098405
_cell_angle_gamma    119.28231130336806

_space_group_name_H-M_alt    "P 1"
_space_group_IT_number       1

loop_
  _space_group_symop_operation_xyz
  'x, y, z'

loop_
  _atom_site_type_symbol
  _atom_site_label
  _atom_site_symmetry_multiplicity
  _atom_site_fract_x
  _atom_site_fract_y
  _atom_site_fract_z
  _atom_site_occupancy
  Zn  Zn1       1.0  0.97115454712619  0.93660401969705  0.03086828253228891  1.0000
  Zn  Zn2       1.0  0.9711386126595799  0.0535772052412682  0.0351580544996466  1.0000
  Zn  Zn3       1.0  0.9695566118584015  0.9384869748353922  0.920015797768727  1.0000
  Zn  Zn4       1.0  0.08504935739533438  0.05084421425884499  0.032554213199588795  1.0000
  Zn  Zn5       1.0  0.5274124836811255  0.05169114565546811  0.47614984316325604  1.0000
  Zn  Zn6       1.0  0.5297636495527273  0.9387828352442327  0.4771090440992297  1.0000
  Zn  Zn7       1.0  0.4137100486607181  0.9375875988235264  0.4760359524190108  1.0000
  Zn  Zn8       1.0  0.5270686097183699  0.053126890445206194  0.5890931030794349  1.0000
  H   H1        1.0  0.8502392077531269  0.05141502128486051  0.1219952438248697  1.0000
  H   H2        1.0  0.7861868803667846  0.0497200724838294  0.1837970737878152  1.0000
  H   H3        1.0  0.6795901026339236  0.9023241632248182  0.29345241160740426  1.0000
  H   H4        1.0  0.6174827913643879  0.9041202246342903  0.35720492271997983  1.0000
  H   H5        1.0  0.650774170460828  0.08750413899029039  0.3923519897465439  1.0000
  H   H6        1.0  0.7136733171585166  0.0870383836629145  0.3294125001391635  1.0000
  H   H7        1.0  0.8291710736612004  0.940752919465467  0.22035856029818043  1.0000
  H   H8        1.0  0.8921506588781728  0.9418065508808483  0.15750763480047425  1.0000
  H   H9        1.0  0.8747490342834753  0.731097725310491  0.7959457275921126  1.0000
  H   H10       1.0  0.8114713072429967  0.6057065550810492  0.7322746708974676  1.0000
  H   H11       1.0  0.7148656250869224  0.3849487207938224  0.7695515580929426  1.0000
  H   H12       1.0  0.6516932022336303  0.25955798815692077  0.7072167866619026  1.0000
  H   H13       1.0  0.6064520055384292  0.2587164921152691  0.5621002606908689  1.0000
  H   H14       1.0  0.6683550426776038  0.3841327917273745  0.6240437769639371  1.0000
  H   H15       1.0  0.7917137774968167  0.6046163290052602  0.8824619553365948  1.0000
  H   H16       1.0  0.8546506225195503  0.729983672836468  0.9453159469435165  1.0000
  H   H17       1.0  0.20466401134083875  0.08544756760660728  0.155762383549785  1.0000
  H   H18       1.0  0.2661747901859357  0.08544862550077427  0.2202248006190075  1.0000
  H   H19       1.0  0.22493512704158294  0.9149592357451368  0.30850834498587426  1.0000
  H   H20       1.0  0.2891592441429579  0.9160212989940173  0.3714320504552403  1.0000
  H   H21       1.0  0.44153758727529185  0.0623554545420291  0.3659404583778212  1.0000
  H   H22       1.0  0.37795479507192914  0.06232547839135089  0.3034126967719928  1.0000
  H   H23       1.0  0.11874892917496276  0.8930904057312289  0.171253212710873  1.0000
  H   H24       1.0  0.05761597413994233  0.8943845674208007  0.10768887167294863  1.0000
  H   H25       1.0  0.8487743969729991  0.9067407462838941  0.8034208534802687  1.0000
  H   H26       1.0  0.7849033147513395  0.9066534159946467  0.7411350752671736  1.0000
  H   H27       1.0  0.6818690439962227  0.0668261006021424  0.7781617008724169  1.0000
  H   H28       1.0  0.6206621242636173  0.0656612880538319  0.712376218499294  1.0000
  H   H29       1.0  0.6372526014114468  0.924039735684104  0.5651345222386367  1.0000
  H   H30       1.0  0.698260808936645  0.9243213887624931  0.6303126981668825  1.0000
  H   H31       1.0  0.8106696469058577  0.08465902416973847  0.8916123072721334  1.0000
  H   H32       1.0  0.8742635497409595  0.08386211263368888  0.9533150559923698  1.0000
  H   H33       1.0  0.20885901010172597  0.25695730450283344  0.1298427170106251  1.0000
  H   H34       1.0  0.2733077107809407  0.3822639144194324  0.19272799300851765  1.0000
  H   H35       1.0  0.23077036986037316  0.6054715822430765  0.31368886660022355  1.0000
  H   H36       1.0  0.2930393313342634  0.7308617285634682  0.37662961072364715  1.0000
  H   H37       1.0  0.4476122007899832  0.7309375314935166  0.37177878744568466  1.0000
  H   H38       1.0  0.38613514427321155  0.6055400970561209  0.3085405926498908  1.0000
  H   H39       1.0  0.12104881942546089  0.38745642732044416  0.20792587948770347  1.0000
  H   H40       1.0  0.057368753465652816  0.26213072161650797  0.14501758543412538  1.0000
  H   H41       1.0  0.20509460913089583  0.05095027514084898  0.9446344428876827  1.0000
  H   H42       1.0  0.267778395040061  0.0504408799571081  0.881492768098056  1.0000
  H   H43       1.0  0.22578157683231842  0.9131097369822143  0.6220456809459093  1.0000
  H   H44       1.0  0.28930706254103467  0.9149621217798084  0.5597603820240592  1.0000
  H   H45       1.0  0.44156296180695886  0.079110067746484  0.7107779640951577  1.0000
  H   H46       1.0  0.3787992799543076  0.07773366469818652  0.7737914567776514  1.0000
  H   H47       1.0  0.11645888399442571  0.9365914774223041  0.7348550728427056  1.0000
  H   H48       1.0  0.05430990923407805  0.9368009302299212  0.7984982437667226  1.0000
  C   C1        1.0  0.9120620480872506  0.9969024460910845  0.09834891572320016  1.0000
  C   C2        1.0  0.8748706509315839  0.9967202240440117  0.13615766093723655  1.0000
  C   C3        1.0  0.8452064184048711  0.02741120101698159  0.1438063319116623  1.0000
  C   C4        1.0  0.8097610242469528  0.026538835775660595  0.1781969296050718  1.0000
  C   C5        1.0  0.8034896590942394  0.9951442010660755  0.2061850622854848  1.0000
  C   C6        1.0  0.7674852740972397  0.9944515605610603  0.2413747143697833  1.0000
  C   C7        1.0  0.7364033702878034  0.9942911374886731  0.2717606561290324  1.0000
  C   C8        1.0  0.7007889295248332  0.9946432961093943  0.30733681401731144  1.0000
  C   C9        1.0  0.6733521495408753  0.9429065842269394  0.3154411824291614  1.0000
  C   C10       1.0  0.6388182670828897  0.9438209919568475  0.3507478408788883  1.0000
  C   C11       1.0  0.6305454925962196  0.9959311451755185  0.3785553941867336  1.0000
  C   C12       1.0  0.6574894099150582  0.047331485811078294  0.37047818996229853  1.0000
  C   C13       1.0  0.6923032069536108  0.046961759760371494  0.3354555749484902  1.0000
  C   C14       1.0  0.59323263441361  0.9965512091338055  0.4162982841092243  1.0000
  C   C15       1.0  0.8337140867807379  0.9646421484949883  0.19852114986211694  1.0000
  C   C16       1.0  0.8687989836868368  0.9653420273996075  0.16374841797057368  1.0000
  C   C17       1.0  0.9063408765990532  0.8128713913440537  0.9122436555134075  1.0000
  C   C18       1.0  0.8684377459174185  0.737965029381044  0.8743771062841506  1.0000
  C   C19       1.0  0.8561411389899619  0.7027731861371506  0.8142686781561679  1.0000
  C   C20       1.0  0.8209703262744128  0.633046248529993  0.7789307111660334  1.0000
  C   C21       1.0  0.7973247626704136  0.5966525760464305  0.8030752007174015  1.0000
  C   C22       1.0  0.7617320532938623  0.525552464253451  0.7672453140612774  1.0000
  C   C23       1.0  0.7311666646891555  0.4641747006096182  0.7364248592100183  1.0000
  C   C24       1.0  0.6958165126341812  0.39306178224824606  0.7010335936271943  1.0000
  C   C25       1.0  0.6908221226469778  0.3572079108403798  0.7242072918994822  1.0000
  C   C26       1.0  0.6558423267636471  0.2874834157163306  0.6895741494541809  1.0000
  C   C27       1.0  0.6254062335150651  0.2517856264070629  0.6310161892959626  1.0000
  C   C28       1.0  0.6303650202407737  0.28700432220887956  0.6075873100354842  1.0000
  C   C29       1.0  0.6649121992140082  0.35674566733610646  0.642064779513845  1.0000
  C   C30       1.0  0.5881435044789924  0.17692712655441062  0.5940249550771028  1.0000
  C   C31       1.0  0.8099386402873137  0.6324194141480886  0.8636230055564766  1.0000
  C   C32       1.0  0.8449376221699724  0.7021407912818204  0.8986354582203546  1.0000
  C   C33       1.0  0.0908085112720727  0.9905429397004184  0.0904809255938447  1.0000
  C   C34       1.0  0.12760776583290578  0.9899364869429093  0.12805547305377732  1.0000
  C   C35       1.0  0.18646921053370144  0.04373880502242139  0.1596008829568731  1.0000
  C   C36       1.0  0.2205385569987399  0.04368300281282699  0.19525342561157538  1.0000
  C   C37       1.0  0.19638473139545456  0.9892465140626996  0.19984495394624  1.0000
  C   C38       1.0  0.2311700392041018  0.9888596858681709  0.23579089146157636  1.0000
  C   C39       1.0  0.26152803930740737  0.9885503734369863  0.26656802805317176  1.0000
  C   C40       1.0  0.297371627112973  0.9886452018908184  0.30197561636253295  1.0000
  C   C41       1.0  0.27238455079960744  0.9470681108095677  0.3212408592415342  1.0000
  C   C42       1.0  0.3079306341490807  0.9476152038201775  0.3560882715839  1.0000
  C   C43       1.0  0.3690006324705236  0.9892227639645695  0.37230372889122515  1.0000
  C   C44       1.0  0.3940990015623668  0.030454773743393598  0.35310475169750793  1.0000
  C   C45       1.0  0.35887184302742275  0.030434280708405495  0.3184749637764313  1.0000
  C   C46       1.0  0.4070636021335048  0.9901233937364678  0.41017796115880856  1.0000
  C   C47       1.0  0.13716075555178261  0.9351391192156696  0.16782056364255024  1.0000
  C   C48       1.0  0.10331840127716409  0.9357732290028903  0.132522583871335  1.0000
  C   C49       1.0  0.9044280844046354  0.995870904619231  0.9183457720160105  1.0000
  C   C50       1.0  0.8654376628388861  0.9954693070188939  0.8818762550724061  1.0000
  C   C51       1.0  0.8400768525348214  0.9453568545849149  0.8220700710389793  1.0000
  C   C52       1.0  0.804725874734629  0.9453458901162503  0.7875983095733047  1.0000
  C   C53       1.0  0.7939713489541307  0.9959010286064826  0.8123592349802281  1.0000
  C   C54       1.0  0.7587687050207422  0.9963479990449998  0.776885133770655  1.0000
  C   C55       1.0  0.7286790967893494  0.9960967877727211  0.7453151460565692  1.0000
  C   C56       1.0  0.6940310279750861  0.9956447539588353  0.7084483088289987  1.0000
  C   C57       1.0  0.6719126749177989  0.035691075761327795  0.73149663693885  1.0000
  C   C58       1.0  0.6380235178559132  0.03509090094456009  0.6950708624244514  1.0000
  C   C59       1.0  0.6254463965113715  0.9948442680520201  0.63499172555386  1.0000
  C   C60       1.0  0.6472745022944936  0.9549304319529028  0.6118019647429591  1.0000
  C   C61       1.0  0.6810909696467464  0.955114672232071  0.6479389212293611  1.0000
  C   C62       1.0  0.5891893103751615  0.9949565526011457  0.5963684152827257  1.0000
  C   C63       1.0  0.81914404092543  0.0458129531617857  0.8726434334737404  1.0000
  C   C64       1.0  0.8544043964539583  0.0454054675187763  0.9068440111116445  1.0000
  C   C65       1.0  0.0911595843432949  0.17712583531772447  0.096073759795587  1.0000
  C   C66       1.0  0.12929989407685133  0.2520523278933737  0.13368022306256222  1.0000
  C   C67       1.0  0.19023425600969548  0.2861555159920498  0.14726050913659347  1.0000
  C   C68       1.0  0.22601913750389707  0.35585227014094295  0.18222022188781747  1.0000
  C   C69       1.0  0.20155984143529082  0.3934432224310029  0.20462998618528164  1.0000
  C   C70       1.0  0.2378076183447604  0.46449531216317297  0.24026164648235246  1.0000
  C   C71       1.0  0.2689141223426859  0.5258818076745442  0.27107841521859655  1.0000
  C   C72       1.0  0.30422994732256825  0.5969558733156433  0.30681683231436807  1.0000
  C   C73       1.0  0.27825118180872005  0.6330555409967855  0.3264283984816742  1.0000
  C   C74       1.0  0.3127916008214484  0.7027597655557543  0.36144829735473377  1.0000
  C   C75       1.0  0.3739622871814063  0.7382974602279475  0.37793084182198566  1.0000
  C   C76       1.0  0.40010824792140914  0.7028272456817389  0.3587062044738402  1.0000
  C   C77       1.0  0.36584932888074206  0.6330841109700953  0.3235527525580082  1.0000
  C   C78       1.0  0.41076350862245203  0.8132221169956041  0.415444809891433  1.0000
  C   C79       1.0  0.14017148684291666  0.35876100750681417  0.19077561171417298  1.0000
  C   C80       1.0  0.10468433751050552  0.289033987864336  0.155776118867756  1.0000
  C   C81       1.0  0.0888151143727996  0.9941586870533713  0.9130913906999967  1.0000
  C   C82       1.0  0.1260540886958452  0.9939108488618726  0.8752726377770088  1.0000
  C   C83       1.0  0.18628294636597084  0.026074381152397998  0.8986536245301836  1.0000
  C   C84       1.0  0.22106160698241684  0.02585059951992719  0.863572282446583  1.0000
  C   C85       1.0  0.1962841651803514  0.9935508933699991  0.80398437870263  1.0000
  C   C86       1.0  0.23173322283789596  0.9937298512601842  0.768243787840241  1.0000
  C   C87       1.0  0.26246333833184105  0.994283462337499  0.7375192406178854  1.0000
  C   C88       1.0  0.2981337663441721  0.9952283405286122  0.7020474984313195  1.0000
  C   C89       1.0  0.2730512066459668  0.9493411183517751  0.6412421191674086  1.0000
  C   C90       1.0  0.30825774979350484  0.9503580045654941  0.606634854247858  1.0000
  C   C91       1.0  0.3691281313737563  0.9971317086243515  0.6316292419265039  1.0000
  C   C92       1.0  0.39429752627481923  0.04302914563066909  0.6919823865713965  1.0000
  C   C93       1.0  0.3594283171710729  0.042190177955305296  0.7269120447822388  1.0000
  C   C94       1.0  0.4069237394139834  0.9977107410594287  0.5943739497482099  1.0000
  C   C95       1.0  0.13562409366156908  0.9613161859239907  0.7807558456731626  1.0000
  C   C96       1.0  0.10109541617164547  0.9614993697141826  0.8160734652465749  1.0000
  O   O1        1.0  0.9993046525381077  0.9952952250572906  0.004758975670810675  1.0000
  O   O2        1.0  0.9203843661829084  0.0321143555340626  0.0794123176929773  1.0000
  O   O3        1.0  0.9323900944293159  0.9615856465148054  0.08775913095374928  1.0000
  O   O4        1.0  0.5749154467088218  0.9522216361398317  0.42648695545916127  1.0000
  O   O5        1.0  0.5825836448301729  0.0414086628678376  0.43543856067910275  1.0000
  O   O6        1.0  0.9265141104370186  0.8423539642110495  0.8873991259296473  1.0000
  O   O7        1.0  0.915698981185841  0.8416326896134902  0.96657081813715  1.0000
  O   O8        1.0  0.5800584938710645  0.14833176028340492  0.6195711349514283  1.0000
  O   O9        1.0  0.5672944765992299  0.14732835025945687  0.5397844797932194  1.0000
  O   O10       1.0  0.11651839123244664  0.0382215046328938  0.084234320725443  1.0000
  O   O11       1.0  0.03631003256050754  0.9433263616958031  0.0675555195076215  1.0000
  O   O12       1.0  0.3814409285785346  0.9525528262333296  0.4272097685473853  1.0000
  O   O13       1.0  0.46225238059279405  0.0285658497277907  0.4226865062135873  1.0000
  O   O14       1.0  0.9147498607556059  0.9508067958604727  0.892048063302653  1.0000
  O   O15       1.0  0.9245813214249311  0.04124160375863539  0.9727858816420607  1.0000
  O   O16       1.0  0.5706437839613017  0.032247629844278  0.6209030089553238  1.0000
  O   O17       1.0  0.5795696220096715  0.9579701026734854  0.5420660517665682  1.0000
  O   O18       1.0  0.1167098379574298  0.14696263728676223  0.07725451260724012  1.0000
  O   O19       1.0  0.03608024911234512  0.14914533259460683  0.08571061979029791  1.0000
  O   O20       1.0  0.383789792574582  0.8419467067146439  0.4297730124854977  1.0000
  O   O21       1.0  0.46615658241632474  0.8425648659572217  0.4301604933242018  1.0000
  O   O22       1.0  0.11494635249231781  0.0283699588212514  0.9671673903267148  1.0000
  O   O23       1.0  0.033797956598938576  0.9601044973776638  0.8883312239919974  1.0000
  O   O24       1.0  0.3812725963470244  0.9542805449762213  0.5397944548151444  1.0000
  O   O25       1.0  0.46198921695580003  0.041487821391491805  0.6200324196884212  1.0000
  O   O26       1.0  0.4994426416789751  0.995010740077042  0.5043477678181746  1.0000
