data_image0
_chemical_formula_structural       Cd2H32C36N8O8
_chemical_formula_sum              "Cd2 H32 C36 N8 O8"
_cell_length_a       8.303173148645573
_cell_length_b       10.66882629099027
_cell_length_c       11.448307953239329
_cell_angle_alpha    70.1182893782013
_cell_angle_beta     80.03994662492694
_cell_angle_gamma    66.85532065661184

_space_group_name_H-M_alt    "P 1"
_space_group_IT_number       1

loop_
  _space_group_symop_operation_xyz
  'x, y, z'

loop_
  _atom_site_type_symbol
  _atom_site_label
  _atom_site_symmetry_multiplicity
  _atom_site_fract_x
  _atom_site_fract_y
  _atom_site_fract_z
  _atom_site_occupancy
  Cd  Cd1       1.0  0.1884595201429915  0.9451743075963042  0.3793792502122599  1.0000
  Cd  Cd2       1.0  0.8115376328151597  0.05482739579187523  0.620621271560374  1.0000
  H   H1        1.0  0.008053263784020475  0.9811576754548887  0.15212861094004632  1.0000
  H   H2        1.0  0.991946822831032  0.018842959748980107  0.8478710294579983  1.0000
  H   H3        1.0  0.8536690828375413  0.16455895758836903  0.9631830024762351  1.0000
  H   H4        1.0  0.14633273000912772  0.835440607715093  0.036815024757338145  1.0000
  H   H5        1.0  0.8677781296890004  0.4868639064771543  0.10471966789462785  1.0000
  H   H6        1.0  0.13222444649159104  0.5131367273422145  0.8952770610890397  1.0000
  H   H7        1.0  0.019313496292959066  0.29116804163205506  0.2869845152793644  1.0000
  H   H8        1.0  0.980686635151073  0.7088325906818015  0.7130125001221899  1.0000
  H   H9        1.0  0.7124931042925908  0.5606807187532822  0.924029885632919  1.0000
  H   H10       1.0  0.28750965650878146  0.4393167090972272  0.07596870168492124  1.0000
  H   H11       1.0  0.871618859844311  0.4692543586480583  0.8291441211978635  1.0000
  H   H12       1.0  0.12838616107283932  0.5307462766768227  0.17085232136791004  1.0000
  H   H13       1.0  0.5334992499607406  0.4070176819881014  0.9259142936750493  1.0000
  H   H14       1.0  0.46650734762326346  0.5929765431151567  0.07408659734895912  1.0000
  H   H15       1.0  0.6889966345235122  0.3369187150770756  0.8185515109124566  1.0000
  H   H16       1.0  0.31100782262349463  0.6630776447997067  0.1814472132385631  1.0000
  H   H17       1.0  0.46882089262723525  0.4155543176341468  0.6741819244296394  1.0000
  H   H18       1.0  0.5311809501054227  0.5844452457426429  0.32581435280626886  1.0000
  H   H19       1.0  0.2958772366407486  0.6165242426281738  0.5011726663807392  1.0000
  H   H20       1.0  0.7041250053542993  0.38347425683883074  0.4988282658914542  1.0000
  H   H21       1.0  0.3841914419867648  0.9151215156102737  0.6124389015409476  1.0000
  H   H22       1.0  0.6158075919378021  0.08487591383531884  0.3875636153990456  1.0000
  H   H23       1.0  0.5556466965377778  0.7309410135184183  0.7873761816967715  1.0000
  H   H24       1.0  0.4443518932954261  0.26905748272698554  0.212624305203434  1.0000
  H   H25       1.0  0.32390707874428415  0.1961019538775801  0.5588362570254475  1.0000
  H   H26       1.0  0.6760917406735133  0.8038986834635509  0.4411661515780381  1.0000
  H   H27       1.0  0.19480723982502468  0.3303519021658873  0.43464205944374606  1.0000
  H   H28       1.0  0.8051874235675952  0.6696498026067915  0.565361373743272  1.0000
  H   H29       1.0  0.6467020397960467  0.015556198778064407  0.07821394239338278  1.0000
  H   H30       1.0  0.35330123994649637  0.9844455074105557  0.9217849883356948  1.0000
  H   H31       1.0  0.7774350618470147  0.8596998519784622  0.18723455169675413  1.0000
  H   H32       1.0  0.2225598459383562  0.14029864297201305  0.8127672398291139  1.0000
  C   C1        1.0  0.9752372563404136  0.0949819425402438  0.1363924940386099  1.0000
  C   C2        1.0  0.024761348435774076  0.9050165527418205  0.8636071178627631  1.0000
  C   C3        1.0  0.890183193626328  0.19766993759268567  0.03173020250343227  1.0000
  C   C4        1.0  0.109817855886419  0.8023285591948837  0.968269122980047  1.0000
  C   C5        1.0  0.8515353269811495  0.3427792268137041  0.015619699206304474  1.0000
  C   C6        1.0  0.14846943446541863  0.6572192693421146  0.9843765716538471  1.0000
  C   C7        1.0  0.8981345476175305  0.376076839844366  0.1101375946059377  1.0000
  C   C8        1.0  0.10186925093133674  0.6239237947277588  0.8898589911687794  1.0000
  C   C9        1.0  0.9827684075893759  0.26736618296884274  0.2123394989501507  1.0000
  C   C10       1.0  0.01722633051820564  0.7326355169871448  0.7876595592427122  1.0000
  C   C11       1.0  0.7672136191749387  0.459044926109506  0.902035121830039  1.0000
  C   C12       1.0  0.23279163119197205  0.5409525003564968  0.09796055407340983  1.0000
  C   C13       1.0  0.6295874601544681  0.43206698939047794  0.850843755323595  1.0000
  C   C14       1.0  0.3704177603264539  0.5679304390022042  0.1491536705775259  1.0000
  C   C15       1.0  0.5292050422123181  0.554249075054436  0.7460183568942468  1.0000
  C   C16       1.0  0.470795288795493  0.4457483503272216  0.25397964184264765  1.0000
  C   C17       1.0  0.45324677414809117  0.5253062092141648  0.6626960524891529  1.0000
  C   C18       1.0  0.5467508826734004  0.47469442352085167  0.33730299932795305  1.0000
  C   C19       1.0  0.3570785084056282  0.6361774500067199  0.5666727872877928  1.0000
  C   C20       1.0  0.6429225112211441  0.36382104870752857  0.4333282881933513  1.0000
  C   C21       1.0  0.40418405021165427  0.8034767799663102  0.6286276124544585  1.0000
  C   C22       1.0  0.5958164954377664  0.1965227874744216  0.3713731829845485  1.0000
  C   C23       1.0  0.5019858097256601  0.6979513704399879  0.7273434228425159  1.0000
  C   C24       1.0  0.4980144913961622  0.30204605686834196  0.2726563258920436  1.0000
  C   C25       1.0  0.06598267308989847  0.19255316673508102  0.5631461874077672  1.0000
  C   C26       1.0  0.9340127386936463  0.807449607516837  0.43685682252817054  1.0000
  C   C27       1.0  0.19115882712286947  0.27490903312737924  0.5348164394806788  1.0000
  C   C28       1.0  0.8088404513292885  0.7250905364506084  0.46518712416376934  1.0000
  C   C29       1.0  0.1409671639531567  0.37707730799587585  0.6036400176297646  1.0000
  C   C30       1.0  0.8590304332312043  0.6229286785471048  0.3963652225482618  1.0000
  C   C31       1.0  0.4951006100979778  0.9171854559109466  0.22606206651081345  1.0000
  C   C32       1.0  0.5048914538232765  0.08281945139840732  0.7739380447622609  1.0000
  C   C33       1.0  0.6575710171513336  0.9062653807487068  0.1349742383489242  1.0000
  C   C34       1.0  0.34242521773809637  0.09373845816575253  0.8650239733417847  1.0000
  C   C35       1.0  0.669987170143848  0.8231231356753529  0.054442440836922304  1.0000
  C   C36       1.0  0.3300159249779141  0.17688177648211229  0.9455546315579751  1.0000
  N   N1        1.0  0.021993255801490398  0.12862013341255363  0.2253770545391447  1.0000
  N   N2        1.0  0.9780031786517183  0.8713804985697137  0.7746221404869048  1.0000
  N   N3        1.0  0.3332065981839208  0.7736797124979661  0.5489070132205  1.0000
  N   N4        1.0  0.6667931990745686  0.22631878546352618  0.45109420546958745  1.0000
  N   N5        1.0  0.09826909081174047  0.45811310220169343  0.6605199290686627  1.0000
  N   N6        1.0  0.9017273137554793  0.5418875317072536  0.3394810159550516  1.0000
  N   N7        1.0  0.672329062754862  0.7576297758124967  0.9904786344952115  1.0000
  N   N8        1.0  0.32767260052705177  0.242364449169756  0.009525454361067892  1.0000
  O   O1        1.0  0.09043809237162749  0.11089987973119263  0.4979190152556328  1.0000
  O   O2        1.0  0.9095580827458323  0.8891039630366253  0.502082696430392  1.0000
  O   O3        1.0  0.9478787603627411  0.2094028264156194  0.6484604667836393  1.0000
  O   O4        1.0  0.052117414754718344  0.7906010163521987  0.35154124490239264  1.0000
  O   O5        1.0  0.48004610532765196  0.9798812251261781  0.3057513975817656  1.0000
  O   O6        1.0  0.5199556626900375  0.02011834306730261  0.6942492546482981  1.0000
  O   O7        1.0  0.388062978861022  0.8640551382842361  0.21547004760665095  1.0000
  O   O8        1.0  0.6119349374310445  0.1359476336198426  0.7845291759160703  1.0000
