data_image0
_chemical_formula_structural       Ca2H32C32N20O12
_chemical_formula_sum              "Ca2 H32 C32 N20 O12"
_cell_length_a       7.906936491195351
_cell_length_b       10.129050362182756
_cell_length_c       14.426088349758677
_cell_angle_alpha    107.19069091732568
_cell_angle_beta     94.53772936857492
_cell_angle_gamma    96.15439350707115

_space_group_name_H-M_alt    "P 1"
_space_group_IT_number       1

loop_
  _space_group_symop_operation_xyz
  'x, y, z'

loop_
  _atom_site_type_symbol
  _atom_site_label
  _atom_site_symmetry_multiplicity
  _atom_site_fract_x
  _atom_site_fract_y
  _atom_site_fract_z
  _atom_site_occupancy
  Ca  Ca1       1.0  0.7579899772080693  0.9908540574144595  0.03713901211632026  1.0000
  Ca  Ca2       1.0  0.24200710522001864  0.009136890320213802  0.962856459105204  1.0000
  H   H1        1.0  0.3801755032977781  0.24019978205883058  0.6906919223225927  1.0000
  H   H2        1.0  0.6198213677657023  0.7598046930899044  0.3093119368450131  1.0000
  H   H3        1.0  0.44736020962640316  0.8767772174912661  0.45883297283886276  1.0000
  H   H4        1.0  0.5526493389235227  0.12321277908532832  0.5411606361237773  1.0000
  H   H5        1.0  0.37596323394356546  0.657858786311543  0.8808185180498995  1.0000
  H   H6        1.0  0.6240225762458421  0.34213935216780555  0.1191864091160681  1.0000
  H   H7        1.0  0.05067923053958621  0.3586198217631633  0.9120722579783447  1.0000
  H   H8        1.0  0.9493132756653753  0.6413825633473494  0.08792408170468494  1.0000
  H   H9        1.0  0.9480843479976145  0.2304519162840606  0.8017096824743533  1.0000
  H   H10       1.0  0.051916633814975896  0.7695640759419432  0.1982891134588201  1.0000
  H   H11       1.0  0.11372790283139272  0.5888210320027055  0.5287544660720087  1.0000
  H   H12       1.0  0.8862838398976863  0.4111752392125894  0.4712384578639757  1.0000
  H   H13       1.0  0.40670494855133643  0.7497300320625513  0.7060308391540815  1.0000
  H   H14       1.0  0.5933033237035376  0.25026207558945396  0.2939527720334425  1.0000
  H   H15       1.0  0.4864922756880219  0.9211265032644108  0.7056450467930517  1.0000
  H   H16       1.0  0.5135387473444555  0.0788782158787384  0.2943558489325468  1.0000
  H   H17       1.0  0.2860494898627408  0.0725129599535705  0.5360804936205597  1.0000
  H   H18       1.0  0.7139725611388388  0.9274823054613606  0.4639222703472968  1.0000
  H   H19       1.0  0.9641833915887335  0.47897351803670307  0.6689882852350735  1.0000
  H   H20       1.0  0.035807715783477106  0.5210340352798752  0.3310188021094618  1.0000
  H   H21       1.0  0.09031269550380475  0.2566892293012942  0.6101630251989292  1.0000
  H   H22       1.0  0.909677554965299  0.743312051296023  0.3898468723179677  1.0000
  H   H23       1.0  0.02234387502601721  0.0186695055412613  0.6131657945547531  1.0000
  H   H24       1.0  0.9776842167003394  0.9813309970263476  0.38684243459508144  1.0000
  H   H25       1.0  0.05054395006059311  0.15927445649124652  0.1693880226916491  1.0000
  H   H26       1.0  0.9494402446678549  0.8407299309888858  0.8306160863253069  1.0000
  H   H27       1.0  0.9034857914789216  0.2574536306251077  0.19083164623317833  1.0000
  H   H28       1.0  0.09650209253779  0.7425497348309021  0.8091737578587157  1.0000
  H   H29       1.0  0.48046608261851287  0.7957742327281778  0.06109880040543199  1.0000
  H   H30       1.0  0.5195276180453093  0.20422710884856338  0.9389001327853563  1.0000
  H   H31       1.0  0.6155792019626107  0.7003179817595183  0.01356408643498955  1.0000
  H   H32       1.0  0.3844142579975127  0.2996812644931167  0.9864371706609774  1.0000
  C   C1        1.0  0.8856051062809841  0.1901443594496683  0.9351695893185692  1.0000
  C   C2        1.0  0.11437745808758144  0.8098495933779547  0.06483296100423537  1.0000
  C   C3        1.0  0.5815688092910493  0.8705508074028997  0.8337923206337835  1.0000
  C   C4        1.0  0.41842154182612035  0.12944013515222963  0.16619113767816174  1.0000
  C   C5        1.0  0.5690361566779673  0.44338860325057533  0.8382194339919167  1.0000
  C   C6        1.0  0.43096045866595023  0.5566221206095463  0.1617864257629051  1.0000
  C   C7        1.0  0.40140627172274895  0.4483675676775362  0.7907352313923609  1.0000
  C   C8        1.0  0.5985925239358493  0.5516432086160279  0.2092596196622409  1.0000
  C   C9        1.0  0.04463058129745434  0.7990832458553995  0.5744526422481471  1.0000
  C   C10       1.0  0.9554018303567631  0.20091935116811746  0.4255617192052128  1.0000
  C   C11       1.0  0.8830353814100321  0.7616431184127562  0.6083366097090845  1.0000
  C   C12       1.0  0.11696554114865879  0.23834891145726533  0.3916550583200831  1.0000
  C   C13       1.0  0.31850344462903735  0.3338491828829291  0.7139982264433655  1.0000
  C   C14       1.0  0.6814846795156627  0.6661635610175624  0.2860098539211577  1.0000
  C   C15       1.0  0.33478388051201347  0.8579249376127721  0.4945997386208987  1.0000
  C   C16       1.0  0.665222220029044  0.1420608931916831  0.5053852511838173  1.0000
  C   C17       1.0  0.318098346487453  0.5666984801399695  0.8205380564436453  1.0000
  C   C18       1.0  0.6818866361379391  0.4333090083583003  0.17947574493559418  1.0000
  C   C19       1.0  0.9315948022218238  0.2905015299174067  0.8764489505170943  1.0000
  C   C20       1.0  0.06840252732497026  0.7094893935199809  0.12355415020024202  1.0000
  C   C21       1.0  0.14816068480114106  0.6977422469338492  0.5325436033240152  1.0000
  C   C22       1.0  0.8518476024696116  0.3022415166826633  0.4674403311814714  1.0000
  C   C23       1.0  0.5201044991032334  0.8288617503657177  0.7239775628813873  1.0000
  C   C24       1.0  0.47990075943364024  0.1711344913727615  0.2760109776408299  1.0000
  C   C25       1.0  0.24481919996500065  0.9672509333762844  0.5378574719642444  1.0000
  C   C26       1.0  0.755212017806052  0.03274542406062861  0.4621492958035489  1.0000
  C   C27       1.0  0.08715582464360952  0.46615030707141614  0.7030809131183632  1.0000
  C   C28       1.0  0.912821163205841  0.5338550480799497  0.29693078437816917  1.0000
  C   C29       1.0  0.15915386150690133  0.3429845494705006  0.6701489135408139  1.0000
  C   C30       1.0  0.8408541538769968  0.6570283731336273  0.3298466985895416  1.0000
  C   C31       1.0  0.09834128374887295  0.937671107046775  0.5793885378378435  1.0000
  C   C32       1.0  0.9016917147656544  0.06232004463372928  0.4206192733074304  1.0000
  N   N1        1.0  0.6637867709741415  0.3405448439806804  0.8052851982843733  1.0000
  N   N2        1.0  0.336206718900783  0.6594627418897616  0.19471712267469604  1.0000
  N   N3        1.0  0.8000963025603409  0.378317203828658  0.8719881120332146  1.0000
  N   N4        1.0  0.1999083835563837  0.6216894223377308  0.12801230229285207  1.0000
  N   N5        1.0  0.16543951875805624  0.5760898413633984  0.7771389069988005  1.0000
  N   N6        1.0  0.8345536180864884  0.4239156602271521  0.2228622699128024  1.0000
  N   N7        1.0  0.6484713642663208  0.538884754426782  0.9224056851778215  1.0000
  N   N8        1.0  0.35151637693320487  0.46111756557601064  0.0776001872761327  1.0000
  N   N9        1.0  0.7774897659127619  0.854073411436012  0.6456816628971963  1.0000
  N   N10       1.0  0.2225365595102957  0.14593123597289548  0.3543308463709209  1.0000
  N   N11       1.0  0.8191786943305531  0.6298712079560644  0.6057479678762832  1.0000
  N   N12       1.0  0.18082986137284254  0.3701270953950769  0.3942542900711601  1.0000
  N   N13       1.0  0.6509281669857786  0.7730184856322069  0.6656033769012097  1.0000
  N   N14       1.0  0.34908467173995933  0.22698297529880307  0.3343989962634595  1.0000
  N   N15       1.0  0.7939986054034591  0.4959812850179262  0.9432637062686168  1.0000
  N   N16       1.0  0.20599487003129016  0.5040273617676265  0.05673329119468924  1.0000
  N   N17       1.0  0.6729654785085374  0.6387397030754798  0.6433847036391924  1.0000
  N   N18       1.0  0.32703629292810643  0.36125754080753586  0.3566087841228481  1.0000
  N   N19       1.0  0.29034062816785433  0.7258912103885392  0.4934020436614617  1.0000
  N   N20       1.0  0.7096608887006184  0.2740977159651052  0.5065834443321933  1.0000
  O   O1        1.0  0.47280559556432417  0.9165415754699281  0.8904126136559681  1.0000
  O   O2        1.0  0.527166661683147  0.08343881691730809  0.10957009627935582  1.0000
  O   O3        1.0  0.0006702814236732077  0.11969540355431009  0.9510294911667643  1.0000
  O   O4        1.0  0.9993161893201191  0.8803141910228902  0.048981337090879186  1.0000
  O   O5        1.0  0.7329077406755787  0.8581852810291649  0.8619483919281093  1.0000
  O   O6        1.0  0.26705883414109627  0.1418044051046436  0.138049950629302  1.0000
  O   O7        1.0  0.7388110511329772  0.1822159027585144  0.9640825541371143  1.0000
  O   O8        1.0  0.2611687943285119  0.8177707675275272  0.035909358535420224  1.0000
  O   O9        1.0  0.9263579186526841  0.15794614219455383  0.17316356974097863  1.0000
  O   O10       1.0  0.07363342999892107  0.8420562233257628  0.8268361935205704  1.0000
  O   O11       1.0  0.6046963547942639  0.7899617848513147  0.0633347155490186  1.0000
  O   O12       1.0  0.3953018846114702  0.21003646559392308  0.93666233227178  1.0000
