data_image0
_chemical_formula_structural       Cd4H44C60N20O20
_chemical_formula_sum              "Cd4 H44 C60 N20 O20"
_cell_length_a       10.2018666736632
_cell_length_b       10.204868553218718
_cell_length_c       18.614665288963653
_cell_angle_alpha    101.01664784115111
_cell_angle_beta     99.84551574363094
_cell_angle_gamma    109.7611401255224

_space_group_name_H-M_alt    "P 1"
_space_group_IT_number       1

loop_
  _space_group_symop_operation_xyz
  'x, y, z'

loop_
  _atom_site_type_symbol
  _atom_site_label
  _atom_site_symmetry_multiplicity
  _atom_site_fract_x
  _atom_site_fract_y
  _atom_site_fract_z
  _atom_site_occupancy
  Cd  Cd1       1.0  0.08001072081776063  0.9904785786019726  0.8296703311916359  1.0000
  Cd  Cd2       1.0  0.16067250161680843  0.7498316710880102  0.6703415613284349  1.0000
  Cd  Cd3       1.0  0.9199932696695182  0.009521532213348397  0.1703288566707427  1.0000
  Cd  Cd4       1.0  0.8393242846551203  0.2501652411278811  0.3296593070163637  1.0000
  H   H1        1.0  0.7588973625579313  0.8109265778396803  0.7344586096973699  1.0000
  H   H2        1.0  0.07577242016562738  0.5242216609969006  0.7657170814034443  1.0000
  H   H3        1.0  0.24110464248329316  0.18907354506369953  0.26554093018430786  1.0000
  H   H4        1.0  0.9242210688145461  0.4757796030805179  0.23428499949515907  1.0000
  H   H5        1.0  0.7831374952486952  0.5371819175013284  0.9234950529584862  1.0000
  H   H6        1.0  0.6131381260109734  0.36019643554578806  0.5768857771027596  1.0000
  H   H7        1.0  0.21686790296408978  0.4628192622924699  0.07650330264826974  1.0000
  H   H8        1.0  0.3868552602020187  0.6397993962691187  0.42311304916485426  1.0000
  H   H9        1.0  0.5395992959722022  0.5971805901899144  0.7261007190630692  1.0000
  H   H10       1.0  0.8703741474002269  0.3132951168920356  0.7740870983614057  1.0000
  H   H11       1.0  0.460402968240828  0.40282278733558724  0.27390025444245936  1.0000
  H   H12       1.0  0.12961981079382662  0.686699614264192  0.22590951951577404  1.0000
  H   H13       1.0  0.9875197406375944  0.7523478552952195  0.9246589591079013  1.0000
  H   H14       1.0  0.8271568744423871  0.5634089959873446  0.5757064163048751  1.0000
  H   H15       1.0  0.012484924597913456  0.24765658712394145  0.07534127499503279  1.0000
  H   H16       1.0  0.17283635192229235  0.4365890017126758  0.4242926177938315  1.0000
  H   H17       1.0  0.20795883135116364  0.14122388710696748  0.021618258810377697  1.0000
  H   H18       1.0  0.1200697962952687  0.6858475447343719  0.4783796128793013  1.0000
  H   H19       1.0  0.7920570112875893  0.8587837375723665  0.9783806662222357  1.0000
  H   H20       1.0  0.8799243366697596  0.314145071476318  0.521623787596333  1.0000
  H   H21       1.0  0.39722502595710546  0.7620927199908533  0.9907510461568093  1.0000
  H   H22       1.0  0.7720060187033082  0.9064974230360359  0.5091664673155448  1.0000
  H   H23       1.0  0.6027786459814307  0.23791172651311845  0.009249095093103673  1.0000
  H   H24       1.0  0.2279865363568234  0.09349625481542735  0.49083313371865234  1.0000
  H   H25       1.0  0.4173157763783734  0.09794441434918606  0.8635137180863663  1.0000
  H   H26       1.0  0.23382138872288746  0.053308186898952684  0.6365064023511307  1.0000
  H   H27       1.0  0.5826842386252193  0.9020557049685393  0.13648402291320844  1.0000
  H   H28       1.0  0.7661736643874162  0.9466919685165459  0.3634930252847183  1.0000
  H   H29       1.0  0.14767514450834074  0.2916939718403951  0.7810914792681201  1.0000
  H   H30       1.0  0.510373802453543  0.8662463999423404  0.7186446195388569  1.0000
  H   H31       1.0  0.8523317722324035  0.7083137366234025  0.21891306279146505  1.0000
  H   H32       1.0  0.48962166852898287  0.13375484029174337  0.2813554961644016  1.0000
  H   H33       1.0  0.6345646806110777  0.3000604143837648  0.8658437665888242  1.0000
  H   H34       1.0  0.43351570287807545  0.2685592039701275  0.6343894672986821  1.0000
  H   H35       1.0  0.3654373792154998  0.699932102535129  0.13415123538006662  1.0000
  H   H36       1.0  0.5664777803626108  0.7314420405151549  0.36560992497317807  1.0000
  H   H37       1.0  0.35596628926478485  0.5051262824636493  0.7782210317232908  1.0000
  H   H38       1.0  0.7265417995852701  0.07772983388976937  0.7217067765976778  1.0000
  H   H39       1.0  0.6440423571938965  0.4948781710452577  0.22178333786919774  1.0000
  H   H40       1.0  0.2734530925288183  0.9222724834924136  0.27829232114391533  1.0000
  H   H41       1.0  0.3614411626634535  0.10804956598594372  0.1339017195758174  1.0000
  H   H42       1.0  0.9752500038057477  0.7277385530598579  0.36608821227810745  1.0000
  H   H43       1.0  0.6385693013576839  0.8919570138910228  0.8660987417510169  1.0000
  H   H44       1.0  0.024754824721767887  0.27226373522947966  0.633913427169787  1.0000
  C   C1        1.0  0.5145571667792479  0.4226674913300313  0.823029301442119  1.0000
  C   C2        1.0  0.599058111256241  0.19148877425820385  0.6770816884540733  1.0000
  C   C3        1.0  0.48544797685332236  0.5773304495153653  0.17696977144219517  1.0000
  C   C4        1.0  0.40093536854075745  0.8085124584717885  0.3229160906417333  1.0000
  C   C5        1.0  0.7585870717780948  0.7467709680898976  0.7752534487270066  1.0000
  C   C6        1.0  0.9708333156517026  0.48330718540163514  0.7249778690296791  1.0000
  C   C7        1.0  0.24141691985708036  0.25322914664385365  0.2247462768607207  1.0000
  C   C8        1.0  0.029164877197835806  0.5166907918743103  0.275021629334148  1.0000
  C   C9        1.0  0.6417900350347665  0.54822394779935  0.8245594153092026  1.0000
  C   C10       1.0  0.723032771622037  0.31738894540875146  0.6756889839376254  1.0000
  C   C11       1.0  0.3582145308772623  0.451775074112582  0.17543917733878794  1.0000
  C   C12       1.0  0.2769614445959192  0.6826090364511684  0.3243085298380563  1.0000
  C   C13       1.0  0.7716112259532295  0.5929917715366386  0.8798619208820638  1.0000
  C   C14       1.0  0.7125690942346665  0.3921520847709273  0.6204674155462371  1.0000
  C   C15       1.0  0.22839484700779167  0.407013739861  0.12013748096525485  1.0000
  C   C16       1.0  0.28742595657984527  0.6078480628077184  0.3795309366389147  1.0000
  C   C17       1.0  0.6369742398745329  0.6277776337095415  0.7710186335803539  1.0000
  C   C18       1.0  0.8560488804063694  0.3659571388495592  0.7292365722427333  1.0000
  C   C19       1.0  0.36302959191232276  0.3722246469093235  0.22898129983846616  1.0000
  C   C20       1.0  0.1439450812313722  0.6340376040619514  0.27076165881049247  1.0000
  C   C21       1.0  0.8878988966748764  0.7139130997120514  0.8804804413508476  1.0000
  C   C22       1.0  0.8328728197904309  0.5078428237417183  0.6198590618512794  1.0000
  C   C23       1.0  0.11210435853933379  0.28609026589177927  0.11951954955700467  1.0000
  C   C24       1.0  0.16712181659553949  0.4921562507736324  0.3801402154425161  1.0000
  C   C25       1.0  0.28152849137855174  0.8731277920228705  0.9359471791906485  1.0000
  C   C26       1.0  0.9376508128230014  0.8453719455141733  0.5639732294514415  1.0000
  C   C27       1.0  0.7184749294234578  0.12687342728798257  0.06405529251286166  1.0000
  C   C28       1.0  0.06234299241011598  0.15462497503774128  0.43602682260893727  1.0000
  C   C29       1.0  0.2604327002732631  0.7847043082964686  0.8563705455108772  1.0000
  C   C30       1.0  0.9288303989625744  0.9040411755187916  0.6435564513074111  1.0000
  C   C31       1.0  0.7395704019800035  0.21530124670304218  0.14363287958016704  1.0000
  C   C32       1.0  0.0711709359220052  0.09595463145446095  0.3564441932351058  1.0000
  C   C33       1.0  0.2537802538699978  0.058903845994869565  0.015350313087132894  1.0000
  C   C34       1.0  0.044041110443338014  0.7380119497072356  0.4846064699570859  1.0000
  C   C35       1.0  0.7462312034481186  0.9411027297972789  0.9846502410927227  1.0000
  C   C36       1.0  0.9559586568674161  0.2619849541726537  0.5153952146721321  1.0000
  C   C37       1.0  0.3578482184929398  0.8495151542083048  0.9988179603711344  1.0000
  C   C38       1.0  0.8513221242221434  0.8589587669573074  0.5010924236951266  1.0000
  C   C39       1.0  0.6421572847828116  0.15049146568487257  0.001184725317315799  1.0000
  C   C40       1.0  0.14867241628404315  0.14103489880609735  0.49890682531977143  1.0000
  C   C41       1.0  0.4068563889945693  0.19067237526090242  0.8461573633137078  1.0000
  C   C42       1.0  0.3439537138351766  0.06033565616967707  0.6538791348345541  1.0000
  C   C43       1.0  0.5931471813246886  0.8093266428989876  0.15384006103055722  1.0000
  C   C44       1.0  0.6560399281059331  0.9396634185120617  0.3461195118808645  1.0000
  C   C45       1.0  0.2579228595030614  0.29870155459995107  0.7989280217148503  1.0000
  C   C46       1.0  0.49942046101886456  0.9587145326584118  0.7009368711428507  1.0000
  C   C47       1.0  0.7420795668540805  0.7012996648772895  0.2010738194102827  1.0000
  C   C48       1.0  0.5005748512632452  0.04128887737920908  0.29906399011684925  1.0000
  C   C49       1.0  0.5295281505564376  0.3055386249087134  0.8475281164643745  1.0000
  C   C50       1.0  0.45737895551533103  0.18180321590543963  0.6526062704766957  1.0000
  C   C51       1.0  0.4704745851662721  0.6944582275324434  0.15246846947042764  1.0000
  C   C52       1.0  0.5426145277253553  0.8181980285798358  0.34739312179516446  1.0000
  C   C53       1.0  0.3746359029346209  0.41690333472558894  0.7971712526159109  1.0000
  C   C54       1.0  0.6192928702896836  0.07733568608449559  0.7027801053639564  1.0000
  C   C55       1.0  0.6253679300001308  0.5830989498117062  0.20282921852825092  1.0000
  C   C56       1.0  0.3807006106552036  0.9226655505639267  0.29721821145719923  1.0000
  C   C57       1.0  0.3361184784795697  0.038197153922730785  0.07701803045254958  1.0000
  C   C58       1.0  0.9620074356948436  0.759072070282336  0.42294442276732974  1.0000
  C   C59       1.0  0.6638871834966052  0.9618072961669025  0.9229839096794662  1.0000
  C   C60       1.0  0.037995981663471  0.24092913727323412  0.5770564357601272  1.0000
  N   N1        1.0  0.27302797017304664  0.1874210710553966  0.8233895127498981  1.0000
  N   N2        1.0  0.36362517213866136  0.9492686092551847  0.676549217319433  1.0000
  N   N3        1.0  0.726974449296712  0.8125801249112782  0.17660910202313568  1.0000
  N   N4        1.0  0.6363698844153375  0.050731557915604186  0.32345182349246926  1.0000
  N   N5        1.0  0.2283913445307985  0.9774038946045771  0.9450936557716714  1.0000
  N   N6        1.0  0.03260052670772492  0.7828293574926161  0.5548470574451726  1.0000
  N   N7        1.0  0.7716138984252581  0.0225994667480478  0.05490705856757928  1.0000
  N   N8        1.0  0.9673938573938299  0.21716648591118565  0.4451540125768715  1.0000
  N   N9        1.0  0.8821637647942707  0.7905170853580185  0.8294996900597267  1.0000
  N   N10       1.0  0.9604442262468565  0.5528035858141676  0.6707702151398677  1.0000
  N   N11       1.0  0.11784064356523058  0.20948411027588776  0.17050018587006113  1.0000
  N   N12       1.0  0.039551404583995975  0.4471954885348025  0.3292296927322979  1.0000
  N   N13       1.0  0.9574384873237276  0.19948324990089356  0.8917887839299963  1.0000
  N   N14       1.0  0.30784947640206173  0.5653644252978436  0.6081734187111036  1.0000
  N   N15       1.0  0.04256127195174735  0.8005136265499928  0.10820913662177387  1.0000
  N   N16       1.0  0.6921461555766796  0.4346346529695566  0.3918270268864105  1.0000
  N   N17       1.0  0.3872271681833083  0.9329131274207823  0.06901029683170624  1.0000
  N   N18       1.0  0.8647369760830514  0.8182497141180672  0.43091840931587905  1.0000
  N   N19       1.0  0.6127804815347133  0.06709131841765269  0.9309923667317079  1.0000
  N   N20       1.0  0.13525839901968337  0.1817461173640637  0.5690816781084891  1.0000
  O   O1        1.0  0.20277203729948204  0.8272890069662463  0.8028650440522965  1.0000
  O   O2        1.0  0.0250753833346662  0.9002057415174244  0.6970968562772837  1.0000
  O   O3        1.0  0.7972332730687837  0.1727067915046091  0.19713704735302426  1.0000
  O   O4        1.0  0.9749226508144558  0.09979440556206497  0.302903387642992  1.0000
  O   O5        1.0  0.9392850237047412  0.14190187362256518  0.8208108928843527  1.0000
  O   O6        1.0  0.3211667473969512  0.6185214667600076  0.679118705707175  1.0000
  O   O7        1.0  0.06071367715733793  0.8581025776317684  0.17918663319903763  1.0000
  O   O8        1.0  0.6788325346293647  0.3814819151830732  0.3208809137885709  1.0000
  O   O9        1.0  0.026406956227177095  0.15661659704245776  0.9397346121610822  1.0000
  O   O10       1.0  0.21694349891822629  0.5859907874565733  0.5601106612300695  1.0000
  O   O11       1.0  0.9735852368939744  0.8433683939243648  0.06026030061827466  1.0000
  O   O12       1.0  0.7830565195290474  0.4140093436164348  0.43988869294555133  1.0000
  O   O13       1.0  0.30002429074930587  0.6811915041127248  0.849232435470398  1.0000
  O   O14       1.0  0.8323117583106878  0.9506025781194151  0.6506521786491957  1.0000
  O   O15       1.0  0.6999825952280645  0.3188032248804971  0.15077237992566236  1.0000
  O   O16       1.0  0.16768637516191376  0.049402989467303385  0.34934970672602356  1.0000
  O   O17       1.0  0.9080583924895292  0.29290122781541317  0.9116936105201601  1.0000
  O   O18       1.0  0.3815904198750885  0.4961910227206727  0.5884574093016041  1.0000
  O   O19       1.0  0.09194842377983278  0.7071010562227255  0.08830875235913986  1.0000
  O   O20       1.0  0.618404541947008  0.5038037396166003  0.4115441409567566  1.0000
