data_image0
_chemical_formula_structural       K4H20C32N8O24
_chemical_formula_sum              "K4 H20 C32 N8 O24"
_cell_length_a       7.118144170036963
_cell_length_b       8.069728444293933
_cell_length_c       17.09157919200682
_cell_angle_alpha    90.00009987369722
_cell_angle_beta     89.99997650289318
_cell_angle_gamma    90.55649150519389

_space_group_name_H-M_alt    "P 1"
_space_group_IT_number       1

loop_
  _space_group_symop_operation_xyz
  'x, y, z'

loop_
  _atom_site_type_symbol
  _atom_site_label
  _atom_site_symmetry_multiplicity
  _atom_site_fract_x
  _atom_site_fract_y
  _atom_site_fract_z
  _atom_site_occupancy
  K   K1        1.0  0.5417509762555425  0.3107472875120936  0.7051198288664084  1.0000
  K   K2        1.0  0.9582527197415301  0.68924666123025  0.20511992544101798  1.0000
  K   K3        1.0  0.4582530221354233  0.6892574559596343  0.2948822998442893  1.0000
  K   K4        1.0  0.04174559437838349  0.31075188353595723  0.7948804480172884  1.0000
  H   H1        1.0  0.7848639696583246  0.11320649796118694  0.9796280063852554  1.0000
  H   H2        1.0  0.7151352917027226  0.8867921775907919  0.4796277220828175  1.0000
  H   H3        1.0  0.21513574932835405  0.8867920474099408  0.02037295215637871  1.0000
  H   H4        1.0  0.2848644402452507  0.11320760703556942  0.5203720662924312  1.0000
  H   H5        1.0  0.09807351949296358  0.3293007606337071  0.9739405579015357  1.0000
  H   H6        1.0  0.4019276471405603  0.6707005646351336  0.4739400637493105  1.0000
  H   H7        1.0  0.901923389760185  0.6706977835275653  0.026059230473450205  1.0000
  H   H8        1.0  0.5980748945417744  0.32929922119785016  0.5260591395422625  1.0000
  H   H9        1.0  0.2688353092806181  0.46237553978354384  0.9304595369367379  1.0000
  H   H10       1.0  0.23116308863007617  0.5376256241638728  0.4304595474974208  1.0000
  H   H11       1.0  0.7311644226676319  0.5376242448417371  0.06953966635506961  1.0000
  H   H12       1.0  0.768835251411879  0.4623753991149259  0.5695396557950192  1.0000
  H   H13       1.0  0.17464163878698707  0.5083530007334714  0.024794275406605906  1.0000
  H   H14       1.0  0.32535857253748185  0.49164914850952374  0.5247942792842011  1.0000
  H   H15       1.0  0.8253581190819259  0.4916492624097871  0.9752066831365486  1.0000
  H   H16       1.0  0.6746411594102211  0.5083506361179104  0.4752060941744889  1.0000
  H   H17       1.0  0.5257745140342107  0.18401608850309972  0.20513672184380036  1.0000
  H   H18       1.0  0.9742250321494407  0.8159840547770545  0.7051369673062242  1.0000
  H   H19       1.0  0.4742238519289542  0.8159874132915378  0.7948630665330969  1.0000
  H   H20       1.0  0.025777483610852393  0.1840132525433305  0.2948634061512153  1.0000
  C   C1        1.0  0.5243812751342745  0.24641696011507014  0.9786076979649465  1.0000
  C   C2        1.0  0.9756179871889257  0.7535817116805177  0.47860784453737915  1.0000
  C   C3        1.0  0.4756170260251693  0.7535803453926776  0.021392090409406702  1.0000
  C   C4        1.0  0.0243845544931318  0.24641807415354586  0.5213919438376353  1.0000
  C   C5        1.0  0.5409111409153198  0.2695433840673474  0.8902191503379556  1.0000
  C   C6        1.0  0.9590882047766268  0.7304549622448707  0.39021869561210565  1.0000
  C   C7        1.0  0.45908719912608115  0.7304576392136113  0.10978122312137373  1.0000
  C   C8        1.0  0.040911501250136  0.26954234386565196  0.6097805076786857  1.0000
  C   C9        1.0  0.37325796257238847  0.31021260642898346  0.022911378341760307  1.0000
  C   C10       1.0  0.12674222460645976  0.6897870573660326  0.5229115793088683  1.0000
  C   C11       1.0  0.6267417434541045  0.6897846996826191  0.9770884100324796  1.0000
  C   C12       1.0  0.873260330036622  0.3102139677243231  0.47708762398320925  1.0000
  C   C13       1.0  0.6696548153245487  0.16023933424310852  0.014820757417012907  1.0000
  C   C14       1.0  0.830343505498341  0.8397601076153266  0.5148222172202139  1.0000
  C   C15       1.0  0.330342093928877  0.839759209917084  0.9851784458745317  1.0000
  C   C16       1.0  0.16965764427714447  0.1602409168733345  0.48517815623887395  1.0000
  C   C17       1.0  0.3813912544504204  0.2840754754297379  0.10473704164096632  1.0000
  C   C18       1.0  0.11860884258934588  0.7159232504230175  0.604737265517649  1.0000
  C   C19       1.0  0.6186070596697704  0.7159230693353821  0.8952627467338916  1.0000
  C   C20       1.0  0.881395103960024  0.28407653601381355  0.39526193777379603  1.0000
  C   C21       1.0  0.6679820210585703  0.13744520542019253  0.09555407214256213  1.0000
  C   C22       1.0  0.8320176155231421  0.862553295075202  0.5955543802594719  1.0000
  C   C23       1.0  0.3320149011550413  0.8625545779995321  0.9044463013163694  1.0000
  C   C24       1.0  0.1679835212915961  0.1374464901560799  0.4044459931991043  1.0000
  C   C25       1.0  0.22066578061669867  0.4093508980166122  0.9857949560147508  1.0000
  C   C26       1.0  0.27933395700767244  0.5906492310446654  0.4857950019965075  1.0000
  C   C27       1.0  0.7793367351436016  0.5906464093037728  0.014205417442688904  1.0000
  C   C28       1.0  0.7206657879010477  0.40935179283906825  0.5142047863792529  1.0000
  C   C29       1.0  0.5261662210948613  0.20091457847703253  0.1421296778733705  1.0000
  C   C30       1.0  0.9738333715565728  0.7990840935283857  0.6421299094891213  1.0000
  C   C31       1.0  0.47383068815801  0.7990839656853199  0.8578706955850566  1.0000
  C   C32       1.0  0.02617057499279699  0.20091569290845257  0.3578692938023309  1.0000
  N   N1        1.0  0.8197217849221515  0.0457736418134616  0.132719691900185  1.0000
  N   N2        1.0  0.6802778295654832  0.9542262347982984  0.6327201014351901  1.0000
  N   N3        1.0  0.18027513729173708  0.95422614160519  0.8672800964753125  1.0000
  N   N4        1.0  0.31972471211657444  0.0457735510357651  0.367279686939817  1.0000
  N   N5        1.0  0.23386500399416832  0.34690295003630217  0.1567428070301631  1.0000
  N   N6        1.0  0.2661350569543188  0.6530972065798794  0.6567429539584355  1.0000
  N   N7        1.0  0.7661347149930648  0.6530955953326726  0.843256981344581  1.0000
  N   N8        1.0  0.7338660798604264  0.34690257865140245  0.34325741950014094  1.0000
  O   O1        1.0  0.3916848738355937  0.26048839612803937  0.8498677095527685  1.0000
  O   O2        1.0  0.10831500495661568  0.7395124716519774  0.34986790733535145  1.0000
  O   O3        1.0  0.6083148581121022  0.7395113884993949  0.15013266390592864  1.0000
  O   O4        1.0  0.8916861448191468  0.2604885528356038  0.650131881040288  1.0000
  O   O5        1.0  0.2804871489902466  0.39127593473846634  0.22354472341643836  1.0000
  O   O6        1.0  0.21951284895039438  0.6087244678692586  0.7235448417818163  1.0000
  O   O7        1.0  0.7195112040124485  0.6087263277977185  0.7764544798765132  1.0000
  O   O8        1.0  0.7804854392485864  0.3912715983800368  0.2764543615085843  1.0000
  O   O9        1.0  0.7054664706170684  0.2934312469657742  0.8640313962801047  1.0000
  O   O10       1.0  0.7945342916813016  0.7065657642601482  0.3640315351020576  1.0000
  O   O11       1.0  0.2945304904793318  0.7065722542239287  0.13596780701347203  1.0000
  O   O12       1.0  0.20546819815833567  0.2934290645422521  0.6359670831040349  1.0000
  O   O13       1.0  0.06998746975000357  0.3512838572534279  0.13179018416483507  1.0000
  O   O14       1.0  0.4300126276949356  0.648717446733386  0.6317897143864786  1.0000
  O   O15       1.0  0.9300094265418507  0.6487134476526181  0.8682107743765288  1.0000
  O   O16       1.0  0.5699913447750973  0.35128481822143703  0.3682112441563207  1.0000
  O   O17       1.0  0.8234731718648263  0.038696781676790706  0.20534083069509287  1.0000
  O   O18       1.0  0.6765277789935453  0.961303362958063  0.7053406616145852  1.0000
  O   O19       1.0  0.17652373738804525  0.9613017624855615  0.7946595427633343  1.0000
  O   O20       1.0  0.3234775594618498  0.03869518482633081  0.2946591267596759  1.0000
  O   O21       1.0  0.9371511952383214  0.9785332773206151  0.08972403887055691  1.0000
  O   O22       1.0  0.5628498646703972  0.021466441566296603  0.5897237005128277  1.0000
  O   O23       1.0  0.06284713184261649  0.02146650670189131  0.9102757495048126  1.0000
  O   O24       1.0  0.4371540948391654  0.978534584130074  0.4102766729460187  1.0000
