data_image0
_chemical_formula_structural       Al4H36C61O26
_chemical_formula_sum              "Al4 H36 C61 O26"
_cell_length_a       6.621282280330391
_cell_length_b       20.053927169176674
_cell_length_c       23.111387011316857
_cell_angle_alpha    107.89114294707913
_cell_angle_beta     92.54576882175145
_cell_angle_gamma    93.57734790163718

_space_group_name_H-M_alt    "P 1"
_space_group_IT_number       1

loop_
  _space_group_symop_operation_xyz
  'x, y, z'

loop_
  _atom_site_type_symbol
  _atom_site_label
  _atom_site_symmetry_multiplicity
  _atom_site_fract_x
  _atom_site_fract_y
  _atom_site_fract_z
  _atom_site_occupancy
  Al  Al1       1.0  0.14157004794904543  0.4993763583896325  0.502408062585566  1.0000
  Al  Al2       1.0  0.641516883636406  0.5037109741673687  0.5039167827654153  1.0000
  Al  Al3       1.0  0.6610162713891585  0.0020851221862941  0.0024151030582543987  1.0000
  Al  Al4       1.0  0.16027789026084358  0.002658488996466701  0.0037763320382211  1.0000
  H   H1        1.0  0.20898284126061384  0.8531529219001752  0.21925223687457407  1.0000
  H   H2        1.0  0.20402409144826814  0.9227950325862437  0.14645226265358244  1.0000
  H   H3        1.0  0.5947877019691462  0.7710524053671151  0.15506826202421553  1.0000
  H   H4        1.0  0.174125703089075  0.5692601535132199  0.3516846386998438  1.0000
  H   H5        1.0  0.6193277303574689  0.6591040999887172  0.4136212310641625  1.0000
  H   H6        1.0  0.6698509501633438  0.6901801125015935  0.6421885530148472  1.0000
  H   H7        1.0  0.24792808162894187  0.623254471107778  0.683456366417559  1.0000
  H   H8        1.0  0.5507461993851025  0.8011217631487284  0.7115678354594905  1.0000
  H   H9        1.0  0.28181251816253905  0.7174425864926661  0.7843661510472516  1.0000
  H   H10       1.0  0.137129266885438  0.8177511419567624  0.8594388015857106  1.0000
  H   H11       1.0  0.6415530481027008  0.3188918201974644  0.3598802398491614  1.0000
  H   H12       1.0  0.0439860376133581  0.3732198853400206  0.3206703899711556  1.0000
  H   H13       1.0  0.7933770378277888  0.2201821835329625  0.2850940840301845  1.0000
  H   H14       1.0  0.020451555993389502  0.2802904422280079  0.21954788780116266  1.0000
  H   H15       1.0  0.7685871264583001  0.1267912061638654  0.1839926050888749  1.0000
  H   H16       1.0  0.16931825789069427  0.1799340884501248  0.1456142496351944  1.0000
  H   H17       1.0  0.7174769697946958  0.15644946224822576  0.9168269744031292  1.0000
  H   H18       1.0  0.10903834910923396  0.0730983803984202  0.8504781964711726  1.0000
  H   H19       1.0  0.11731394689049783  0.1388587689547904  0.7744321188419933  1.0000
  H   H20       1.0  0.7129503532815988  0.3428671885858989  0.7126030668781168  1.0000
  H   H21       1.0  0.7106157867331646  0.4172775535852224  0.6429324426133718  1.0000
  H   H22       1.0  0.08231744624766431  0.3503715918911113  0.5895482268981453  1.0000
  H   H23       1.0  0.08361371281506541  0.27385301537452017  0.6574247501597269  1.0000
  H   H24       1.0  0.5629425491018055  0.013777616035326902  0.8177797407786684  1.0000
  H   H25       1.0  0.7886874754515746  0.27072421311665107  0.9284424484508875  1.0000
  H   H26       1.0  0.4224628765350432  0.7958103726198898  0.07969801816654606  1.0000
  H   H27       1.0  0.4628403459978757  0.8838087680236343  0.07730847857204987  1.0000
  H   H28       1.0  0.5657825899042308  0.8159678465926419  0.02265966504188544  1.0000
  H   H29       1.0  0.3418143937069262  0.6340011542912762  0.19475301150159646  1.0000
  H   H30       1.0  0.662472737360176  0.799515165041811  0.3604743656200852  1.0000
  H   H31       1.0  0.5275716427303792  0.7375067178212191  0.2974784580475287  1.0000
  H   H32       1.0  0.47289394671648227  0.739321584109355  0.3728417072170699  1.0000
  H   H33       1.0  0.3964848825781715  0.581406230945987  0.48858409070892606  1.0000
  H   H34       1.0  0.859576618567914  0.4121613849360273  0.4634885357753973  1.0000
  H   H35       1.0  0.3829796237925792  0.9167927293407061  0.9557246334625802  1.0000
  H   H36       1.0  0.9245753946474553  0.08578236541599442  0.9936515241698344  1.0000
  C   C1        1.0  0.3560093519224168  0.4060394942421581  0.4067463262666706  1.0000
  C   C2        1.0  0.39768915319962167  0.4311594598451832  0.5702852875941105  1.0000
  C   C3        1.0  0.9345761371944623  0.5947015864621293  0.5980394380311937  1.0000
  C   C4        1.0  0.8899899793180668  0.5723954524477861  0.4340047907061972  1.0000
  C   C5        1.0  0.07446390274517972  0.8505351427611032  0.18947034366630788  1.0000
  C   C6        1.0  0.0714406035524036  0.8890817001987799  0.1489686233504059  1.0000
  C   C7        1.0  0.8997896774572284  0.8860421923627014  0.10989001507588365  1.0000
  C   C8        1.0  0.7228932713502518  0.843073665882777  0.11175987301803762  1.0000
  C   C9        1.0  0.7283744310004466  0.8048436302672782  0.1531688117259122  1.0000
  C   C10       1.0  0.9010242906871969  0.80707233474309  0.19178323564921126  1.0000
  C   C11       1.0  0.9019037329090056  0.7652307649136247  0.23119290913093954  1.0000
  C   C12       1.0  0.9127163300417112  0.7269962121191469  0.2632161336230965  1.0000
  C   C13       1.0  0.06127325528995441  0.638756404327161  0.3056879511082897  1.0000
  C   C14       1.0  0.05544465747593109  0.6038481580985857  0.3495755506816067  1.0000
  C   C15       1.0  0.8974429466180497  0.6111943904760153  0.38837629467525386  1.0000
  C   C16       1.0  0.7445844358783236  0.6548745767552191  0.38390885489713605  1.0000
  C   C17       1.0  0.7513713535180176  0.6940878194785896  0.3435836164286171  1.0000
  C   C18       1.0  0.9112619667996358  0.6860009479597623  0.30326442491460176  1.0000
  C   C19       1.0  0.9549467059445578  0.6515426277703967  0.6577886809125532  1.0000
  C   C20       1.0  0.8658087749646202  0.8619776083496119  0.8412540716564363  1.0000
  C   C21       1.0  0.67817902988746  0.8040007958883281  0.7440965214360632  1.0000
  C   C22       1.0  0.7013369119085908  0.8586932029401806  0.7980232938408278  1.0000
  C   C23       1.0  0.010355502821099094  0.8137685321164981  0.8265711085185573  1.0000
  C   C24       1.0  0.9963531918035289  0.7594861043982704  0.7701768880477218  1.0000
  C   C25       1.0  0.8225349415192797  0.7529370387820433  0.7289121611992329  1.0000
  C   C26       1.0  0.8034334211537415  0.6971650513442145  0.6734521053001572  1.0000
  C   C27       1.0  0.13041950599352253  0.6594893335396961  0.6976922553940454  1.0000
  C   C28       1.0  0.14858405677644987  0.711589961717337  0.7531454584808942  1.0000
  C   C29       1.0  0.3449074409617127  0.3507158514609968  0.3461186400109568  1.0000
  C   C30       1.0  0.46627272986626184  0.1486786790558057  0.1593968331846654  1.0000
  C   C31       1.0  0.6575956144357848  0.21171177820897916  0.2543573153518182  1.0000
  C   C32       1.0  0.644678008966544  0.16004079153648829  0.1987225380671447  1.0000
  C   C33       1.0  0.3054026858383382  0.1898884052506133  0.17632183468109727  1.0000
  C   C34       1.0  0.3164506265115819  0.24443692919111745  0.232486164658134  1.0000
  C   C35       1.0  0.4959527074793827  0.25546675112043  0.2726171661846876  1.0000
  C   C36       1.0  0.5059077783728015  0.3096525928256  0.3290608094848935  1.0000
  C   C37       1.0  0.1677501402901669  0.33978831538417614  0.3062981511921095  1.0000
  C   C38       1.0  0.1552236906860003  0.2883763230381362  0.2505824117880096  1.0000
  C   C39       1.0  0.5930795375901357  0.1911801398877628  0.843712379736168  1.0000
  C   C40       1.0  0.5859060071527582  0.15429810831714968  0.8859884037668239  1.0000
  C   C41       1.0  0.41190275726190617  0.11250814651621967  0.8892640615320033  1.0000
  C   C42       1.0  0.24302793215379387  0.1065577460567084  0.8484108061565223  1.0000
  C   C43       1.0  0.2484060200715704  0.1422962819244447  0.8056857137488791  1.0000
  C   C44       1.0  0.42145289526327206  0.1858353932587136  0.8027037727251383  1.0000
  C   C45       1.0  0.41635284975657794  0.2250107207167743  0.7615549359486238  1.0000
  C   C46       1.0  0.4033505698137958  0.2606491213359874  0.7274284615939806  1.0000
  C   C47       1.0  0.5761319736584626  0.3444898956100317  0.6851913285493865  1.0000
  C   C48       1.0  0.5746805296017854  0.3857994018289618  0.6468162443566285  1.0000
  C   C49       1.0  0.39664279991659157  0.3877254981118626  0.612211408034355  1.0000
  C   C50       1.0  0.21917780942475676  0.3479243786102586  0.6165777082651118  1.0000
  C   C51       1.0  0.2198317966022003  0.30567246663037645  0.6542386296494627  1.0000
  C   C52       1.0  0.3988071988494752  0.30335834615316065  0.6890018857943829  1.0000
  C   C53       1.0  0.40600579437715106  0.0753385608846315  0.9360798380297267  1.0000
  C   C54       1.0  0.45128492730265185  0.09276206581727561  0.09928931634838281  1.0000
  C   C55       1.0  0.9134549571179849  0.9289333138661602  0.06759702336950099  1.0000
  C   C56       1.0  0.8756466585867673  0.913064348715352  0.9038151087457678  1.0000
  C   C57       1.0  0.5603221775839772  0.9158575534842934  0.8063588348508046  1.0000
  C   C58       1.0  0.782859217427749  0.23437334679881872  0.8407874707159095  1.0000
  C   C59       1.0  0.5329137721016153  0.8341649088161844  0.07095528059767985  1.0000
  C   C60       1.0  0.22833404686227962  0.6209525739509659  0.2637466864578641  1.0000
  C   C61       1.0  0.5945090389223041  0.7449939906207205  0.34358678797162406  1.0000
  O   O1        1.0  0.5683517490047124  0.459076477185256  0.5626172942174817  1.0000
  O   O2        1.0  0.19012904023313137  0.4316787668957787  0.4250855218986302  1.0000
  O   O3        1.0  0.05924151527019464  0.5614792252747521  0.456611152726488  1.0000
  O   O4        1.0  0.22869262309514238  0.43677231426929103  0.5442425690990476  1.0000
  O   O5        1.0  0.09317239370223972  0.5642551647802065  0.5794702708810604  1.0000
  O   O6        1.0  0.5289708123439993  0.4231557405899764  0.4361148754445523  1.0000
  O   O7        1.0  0.39819352466439284  0.5450899185069531  0.5082378351903641  1.0000
  O   O8        1.0  0.7607381372090388  0.5813688425371736  0.5692985667221606  1.0000
  O   O9        1.0  0.7147457000942199  0.553684078518593  0.4470711890513712  1.0000
  O   O10       1.0  0.8795438871130729  0.45804399447057903  0.4939965928158898  1.0000
  O   O11       1.0  0.27917555412255274  0.079186764676102  0.0694967216929996  1.0000
  O   O12       1.0  0.5750632595737813  0.06951719304708348  0.9623215180170206  1.0000
  O   O13       1.0  0.7101625811359612  0.9387563387683995  0.9226913384637925  1.0000
  O   O14       1.0  0.6112460101036917  0.062873391464457  0.0811608706016571  1.0000
  O   O15       1.0  0.7500010386597751  0.9368966998641283  0.04020144383400733  1.0000
  O   O16       1.0  0.2316986691060947  0.05289493789210548  0.9464272143868158  1.0000
  O   O17       1.0  0.40050368233236366  0.9581656359036472  0.9914620773551376  1.0000
  O   O18       1.0  0.08825812191352606  0.9552121030473655  0.060848119342253294  1.0000
  O   O19       1.0  0.04530638358738775  0.9253660953696754  0.9349404843234979  1.0000
  O   O20       1.0  0.9193807327125257  0.04666670390840011  0.0099810681912089  1.0000
  O   O21       1.0  0.37553563233235826  0.9077043784195739  0.8041548293310116  1.0000
  O   O22       1.0  0.6636247933496974  0.9786609778662765  0.8119006898485495  1.0000
  O   O23       1.0  0.8578400058329265  0.23554418973103  0.79402356815541  1.0000
  O   O24       1.0  0.8761621140847212  0.2732769314241779  0.8961014512033997  1.0000
  O   O25       1.0  0.3582854173330789  0.5815618674769638  0.2681710630398868  1.0000
  O   O26       1.0  0.22627343559004495  0.651472461958676  0.2185056912140482  1.0000
