data_image0
_chemical_formula_structural       Co20H120C120N80
_chemical_formula_sum              "Co20 H120 C120 N80"
_cell_length_a       9.413951532005502
_cell_length_b       24.179088825996725
_cell_length_c       24.653455553661995
_cell_angle_alpha    91.7639963314578
_cell_angle_beta     89.99989508147016
_cell_angle_gamma    90.00006925289536

_space_group_name_H-M_alt    "P 1"
_space_group_IT_number       1

loop_
  _space_group_symop_operation_xyz
  'x, y, z'

loop_
  _atom_site_type_symbol
  _atom_site_label
  _atom_site_symmetry_multiplicity
  _atom_site_fract_x
  _atom_site_fract_y
  _atom_site_fract_z
  _atom_site_occupancy
  Co  Co1       1.0  0.0447610663316809  0.26288010000571654  0.6794211027552635  1.0000
  Co  Co2       1.0  0.2583103296796452  0.48449783707779653  0.7162038719893931  1.0000
  Co  Co3       1.0  0.7632052759158016  0.46951705903373403  0.8591686865004038  1.0000
  Co  Co4       1.0  0.667614513307619  0.16009812776095336  0.5170352677073425  1.0000
  Co  Co5       1.0  0.46134878258160233  0.7155318880396423  0.6820354549942922  1.0000
  Co  Co6       1.0  0.5447611374560211  0.2371198292192815  0.8205790593846132  1.0000
  Co  Co7       1.0  0.7583077632654138  0.0155030165851002  0.7837949527008802  1.0000
  Co  Co8       1.0  0.26320572914062973  0.030482555093350107  0.6408305017896083  1.0000
  Co  Co9       1.0  0.1676142879851312  0.3399026836626931  0.9829652415959206  1.0000
  Co  Co10      1.0  0.9613468890469292  0.7844703529168555  0.8179661216364806  1.0000
  Co  Co11      1.0  0.9552389902868298  0.7371200273244581  0.32057880609112743  1.0000
  Co  Co12      1.0  0.7416897269433776  0.5155027056308796  0.28379442730022225  1.0000
  Co  Co13      1.0  0.2367947807042938  0.5304834824733788  0.1408308296203131  1.0000
  Co  Co14      1.0  0.33238554331089176  0.8399019995692282  0.4829646411390557  1.0000
  Co  Co15      1.0  0.5386533985434241  0.28447030697149234  0.31796573510595755  1.0000
  Co  Co16      1.0  0.4552399814150618  0.7628798843347296  0.17942083657672475  1.0000
  Co  Co17      1.0  0.24169229334992784  0.9844962823912199  0.21620574159685904  1.0000
  Co  Co18      1.0  0.7367943274788544  0.9695175726373505  0.35916900144641073  1.0000
  Co  Co19      1.0  0.832383644126395  0.6600970298906005  0.017034654366504802  1.0000
  Co  Co20      1.0  0.03865316756902361  0.21552935983586954  0.18203458554595642  1.0000
  H   H1        1.0  0.7938419831968488  0.3562775062081015  0.6760018572514782  1.0000
  H   H2        1.0  0.5578282701871871  0.34547085034871833  0.7422983093809139  1.0000
  H   H3        1.0  0.8412456492687498  0.21401757858349407  0.7690930305212264  1.0000
  H   H4        1.0  0.2997944953346163  0.3026133414492164  0.6015691249424223  1.0000
  H   H5        1.0  0.4009986786304438  0.41012343775066284  0.6147670206767799  1.0000
  H   H6        1.0  0.04176562662782861  0.3902599335032874  0.7143889671176709  1.0000
  H   H7        1.0  0.0048696401495434  0.5737733516544594  0.7018021571659008  1.0000
  H   H8        1.0  0.7710790650226045  0.5698329448078923  0.7705908579019081  1.0000
  H   H9        1.0  0.0634237582111865  0.4468557586503793  0.8130554202825736  1.0000
  H   H10       1.0  0.2799679061871672  0.5309294918055727  0.5968187241703334  1.0000
  H   H11       1.0  0.3665141253738966  0.6396885326371161  0.582644741519978  1.0000
  H   H12       1.0  0.3915074264404836  0.603505228845698  0.748518613470246  1.0000
  H   H13       1.0  0.3304135151347225  0.15612852537761057  0.6851211335809069  1.0000
  H   H14       1.0  0.5278770515227578  0.2179220780514797  0.6294946907807885  1.0000
  H   H15       1.0  0.4617177632568286  0.06540635898070951  0.5453318344890549  1.0000
  H   H16       1.0  0.8775999500698433  0.9662695050166833  0.4763544654960086  1.0000
  H   H17       1.0  0.8372529158236118  0.053981972767545  0.550109518769375  1.0000
  H   H18       1.0  0.6290155806835855  0.08872364020549381  0.4034652055629451  1.0000
  H   H19       1.0  0.5006182448658265  0.3868934676086653  0.8757015869682263  1.0000
  H   H20       1.0  0.26536863954022755  0.393923310708054  0.8086216597505427  1.0000
  H   H21       1.0  0.5714433790116047  0.5106281958728757  0.761962076095472  1.0000
  H   H22       1.0  0.39052164560097674  0.23219893516915846  0.5118223440369222  1.0000
  H   H23       1.0  0.322991335036427  0.28893387839909923  0.4188785527811802  1.0000
  H   H24       1.0  0.7101230619880566  0.2042539060687432  0.39433912820808814  1.0000
  H   H25       1.0  0.006626449099009301  0.1534184496584103  0.4949737567544616  1.0000
  H   H26       1.0  0.1907551712530449  0.19700484027756454  0.5734658027578662  1.0000
  H   H27       1.0  0.7688449649888939  0.22605792579462045  0.6233387043652386  1.0000
  H   H28       1.0  0.43927842041716064  0.8384444959304957  0.7316232125742277  1.0000
  H   H29       1.0  0.213601553280391  0.868065972977256  0.7990706680110337  1.0000
  H   H30       1.0  0.1556034783440907  0.7042136940509207  0.7400311560566024  1.0000
  H   H31       1.0  0.2938429723378562  0.1437217070689059  0.8239981083728269  1.0000
  H   H32       1.0  0.057828548714311985  0.15452825717847668  0.7577018180318832  1.0000
  H   H33       1.0  0.3412443407918033  0.2859820701098883  0.7309065098828074  1.0000
  H   H34       1.0  0.7997951316482528  0.19738711582405702  0.8984308752556204  1.0000
  H   H35       1.0  0.9009979815232043  0.08987665149254552  0.8852324916508253  1.0000
  H   H36       1.0  0.5417654691944805  0.1097399939789838  0.7856116026860321  1.0000
  H   H37       1.0  0.504869344715992  0.9262266174897889  0.7981980455174595  1.0000
  H   H38       1.0  0.2710782123056532  0.9301663160627315  0.729409136524737  1.0000
  H   H39       1.0  0.5634228357465503  0.05314376636167142  0.6869434993484944  1.0000
  H   H40       1.0  0.7799661782160854  0.969074743971852  0.9031757402344526  1.0000
  H   H41       1.0  0.8665056175214544  0.860319046921667  0.9173550395717599  1.0000
  H   H42       1.0  0.8915083248582005  0.8964953277148806  0.7514809314454355  1.0000
  H   H43       1.0  0.8304118212079602  0.34387028890674987  0.8148804165311816  1.0000
  H   H44       1.0  0.027873998998742894  0.2820778424061103  0.8705066997653149  1.0000
  H   H45       1.0  0.961717805529254  0.4345937558667146  0.9546692586566224  1.0000
  H   H46       1.0  0.3776062867957251  0.5337311994091322  0.023645256161245208  1.0000
  H   H47       1.0  0.33725530380655044  0.44601974301970426  0.9498900887939074  1.0000
  H   H48       1.0  0.12901849334888738  0.411278137174385  0.09653390073666662  1.0000
  H   H49       1.0  0.0006200967037485999  0.11310602926300818  0.624297375715301  1.0000
  H   H50       1.0  0.7653689227410325  0.10607671856524797  0.6913771343308711  1.0000
  H   H51       1.0  0.07144160684413238  0.9893718031004466  0.7380380809518526  1.0000
  H   H52       1.0  0.8905220704724003  0.26780073480244937  0.9881779738083836  1.0000
  H   H53       1.0  0.822991411510131  0.21106550243452923  0.0811211544608881  1.0000
  H   H54       1.0  0.2101234469325632  0.29574500961509637  0.10566145474152931  1.0000
  H   H55       1.0  0.5066251876928264  0.34658120239802065  0.005026991462763407  1.0000
  H   H56       1.0  0.6907549390624297  0.3029943264089781  0.9265346391436041  1.0000
  H   H57       1.0  0.26884398213573496  0.2739437589400922  0.8766613557034618  1.0000
  H   H58       1.0  0.9392806313657118  0.6615548399046531  0.768377072160476  1.0000
  H   H59       1.0  0.7136029333611305  0.6319345030688693  0.7009298100803392  1.0000
  H   H60       1.0  0.65560508498136  0.7957863422318925  0.7599693489078876  1.0000
  H   H61       1.0  0.2061580734204398  0.6437217935692628  0.32399802582552445  1.0000
  H   H62       1.0  0.44217178643070537  0.6545288632050513  0.2577015865807866  1.0000
  H   H63       1.0  0.15875440734915  0.7859821349702754  0.23090686544047406  1.0000
  H   H64       1.0  0.7002044990307041  0.6973867858807238  0.39843078390433123  1.0000
  H   H65       1.0  0.599001377987456  0.589876275803107  0.3852328752849204  1.0000
  H   H66       1.0  0.9582344299900711  0.6097397800504821  0.2856109288440223  1.0000
  H   H67       1.0  0.9951293542143064  0.4262251209703649  0.298197294531704  1.0000
  H   H68       1.0  0.22892417835571874  0.43016800967529883  0.22940948232315617  1.0000
  H   H69       1.0  0.9365762984076864  0.5531439553039164  0.18694407006875485  1.0000
  H   H70       1.0  0.7200374617147176  0.46907519147204374  0.40317686469182956  1.0000
  H   H71       1.0  0.6334997405441314  0.3603190414699569  0.4173566160773134  1.0000
  H   H72       1.0  0.6084936924298745  0.396495311460086  0.2514821194812171  1.0000
  H   H73       1.0  0.6695844169738834  0.8438711869741197  0.3148799792126269  1.0000
  H   H74       1.0  0.472123005095753  0.7820780492787024  0.37050521806560244  1.0000
  H   H75       1.0  0.5382822933600977  0.9345933541725416  0.4546684670830104  1.0000
  H   H76       1.0  0.1223905462699975  0.03373062231136  0.5236454433536579  1.0000
  H   H77       1.0  0.16274289178496562  0.9460193962914332  0.4498900231221939  1.0000
  H   H78       1.0  0.370980226926946  0.9112777296545287  0.5965335251078869  1.0000
  H   H79       1.0  0.4993775627439804  0.6131087290031304  0.12429798069273804  1.0000
  H   H80       1.0  0.7346303548294912  0.6060784725285656  0.19137748941425775  1.0000
  H   H81       1.0  0.4285566776110485  0.48937276021168685  0.23803664168920596  1.0000
  H   H82       1.0  0.6094794732682658  0.7677995370556231  0.4881775132703225  1.0000
  H   H83       1.0  0.6770087215775787  0.7110658335525814  0.5811229656219937  1.0000
  H   H84       1.0  0.2898769946292248  0.7957453937086215  0.6056607548689144  1.0000
  H   H85       1.0  0.9933736075173059  0.8465808497184285  0.5050265319329128  1.0000
  H   H86       1.0  0.8092438231106982  0.8029948728754447  0.4265344988145615  1.0000
  H   H87       1.0  0.2311561538824449  0.7739426149116894  0.3766616229758598  1.0000
  H   H88       1.0  0.5607195116943657  0.16155521762279793  0.26837668338819753  1.0000
  H   H89       1.0  0.78639637883078  0.13193415395193137  0.20092964644646122  1.0000
  H   H90       1.0  0.8443965782728355  0.29578601910232283  0.2599691455154627  1.0000
  H   H91       1.0  0.7061581465326157  0.8562775927086933  0.17600177470380635  1.0000
  H   H92       1.0  0.9421715079029696  0.8454710425988876  0.24229806504511944  1.0000
  H   H93       1.0  0.658754653572295  0.7140172296672419  0.26909337319455773  1.0000
  H   H94       1.0  0.2002059872234483  0.8026130115063593  0.10156903359040831  1.0000
  H   H95       1.0  0.0990020750946954  0.9101230620612244  0.11476740431086804  1.0000
  H   H96       1.0  0.45823458742305684  0.8902601329506723  0.21438871177073085  1.0000
  H   H97       1.0  0.4951307119009343  0.0737730956634621  0.2018022560546058  1.0000
  H   H98       1.0  0.7289218443116282  0.06983298371463319  0.2705907465522658  1.0000
  H   H99       1.0  0.4365782831245327  0.9468559471923398  0.31305639661283646  1.0000
  H   H100      1.0  0.22003494065377543  0.0309241420293347  0.09682412995748992  1.0000
  H   H101      1.0  0.1334944390948607  0.1396802524551717  0.08264524911561473  1.0000
  H   H102      1.0  0.1084917317574963  0.10350355788555278  0.24851934435723425  1.0000
  H   H103      1.0  0.16958823541030196  0.6561290112711404  0.18511906093544894  1.0000
  H   H104      1.0  0.9721239331112057  0.7179214569702524  0.12949358892278443  1.0000
  H   H105      1.0  0.03828118883546241  0.5654059576868136  0.04533063730544031  1.0000
  H   H106      1.0  0.6223937698215637  0.46626810036823224  0.9763546269157575  1.0000
  H   H107      1.0  0.6627447528113493  0.5539799705340656  0.050109807167793015  1.0000
  H   H108      1.0  0.8709815632699857  0.5887215767799105  0.9034655896146618  1.0000
  H   H109      1.0  0.9993799599119485  0.8868928563374254  0.3757029000873757  1.0000
  H   H110      1.0  0.234631133876249  0.8939225812121167  0.30862274874613155  1.0000
  H   H111      1.0  0.9285584497712095  0.010627495875866097  0.2619626133458866  1.0000
  H   H112      1.0  0.1094779861454924  0.73219897875132  0.011821922153309601  1.0000
  H   H113      1.0  0.17700864510715056  0.7889337973428354  0.9188787286161074  1.0000
  H   H114      1.0  0.7898766096847184  0.704254290162268  0.8943384283354734  1.0000
  H   H115      1.0  0.49337168216479216  0.6534193379068114  0.9949737414901565  1.0000
  H   H116      1.0  0.3092440553025355  0.6970062142968486  0.07346568819821901  1.0000
  H   H117      1.0  0.7311560744833941  0.7260567821664949  0.12333856602762693  1.0000
  H   H118      1.0  0.06072154975635871  0.33844404569625647  0.23162320364147604  1.0000
  H   H119      1.0  0.2863971232557958  0.36806521008438153  0.29907049149172593  1.0000
  H   H120      1.0  0.3443970961419325  0.20421337092183475  0.24003095266345303  1.0000
  C   C1        1.0  0.7686282232407251  0.3248336272825085  0.704953636038617  1.0000
  C   C2        1.0  0.6504864617019309  0.3190796782311693  0.737407266765601  1.0000
  C   C3        1.0  0.7959799522504555  0.25103149491037163  0.7522554484849807  1.0000
  C   C4        1.0  0.2614354620177082  0.3366796697686851  0.6272269080817381  1.0000
  C   C5        1.0  0.3112074029972618  0.390139955493062  0.6335530227053638  1.0000
  C   C6        1.0  0.1255753341089587  0.3810844254024559  0.6852244953755927  1.0000
  C   C7        1.0  0.9821169546779844  0.5466744348907753  0.7349929762261384  1.0000
  C   C8        1.0  0.8654687231696838  0.5441877589344201  0.7687100507510041  1.0000
  C   C9        1.0  0.015335660301644799  0.4806217686742401  0.7916840553902917  1.0000
  C   C10       1.0  0.3165943741600543  0.5621200904142256  0.6261588197569666  1.0000
  C   C11       1.0  0.3585587868409803  0.6160073167590525  0.6191645976980028  1.0000
  C   C12       1.0  0.3735862491673956  0.5984493647635744  0.7051246283123123  1.0000
  C   C13       1.0  0.3870476184798192  0.14655561607266776  0.647735301500653  1.0000
  C   C14       1.0  0.4856290770533391  0.17699780892527164  0.6199586276098614  1.0000
  C   C15       1.0  0.4525388125492568  0.09871126114313711  0.5756605759305913  1.0000
  C   C16       1.0  0.8196727360162299  0.004674923933492899  0.4720980088851477  1.0000
  C   C17       1.0  0.8001485025433936  0.04821206907718789  0.5086439458901779  1.0000
  C   C18       1.0  0.6918689969893919  0.0674816827690279  0.4333252208080722  1.0000
  C   C19       1.0  0.47961231011452543  0.41417836298185773  0.8425377227325372  1.0000
  C   C20       1.0  0.362854837056318  0.4178811816895092  0.8091701179772174  1.0000
  C   C21       1.0  0.5191952901439763  0.47848197192189446  0.7843497030207588  1.0000
  C   C22       1.0  0.4474404538874879  0.23521121677308798  0.4738066415942584  1.0000
  C   C23       1.0  0.4138383528850369  0.26314032119387326  0.4277108990246816  1.0000
  C   C24       1.0  0.6139147678611891  0.21955675298790575  0.4139140272072339  1.0000
  C   C25       1.0  0.9842456174808163  0.17558843465373997  0.5329186074952547  1.0000
  C   C26       1.0  0.0756218030540126  0.19765012005469632  0.5715786979663734  1.0000
  C   C27       1.0  0.8582463563393788  0.212705074113039  0.5985100587131669  1.0000
  C   C28       1.0  0.3481094117068864  0.8144821889224262  0.7439494886032209  1.0000
  C   C29       1.0  0.2354574059093864  0.8295633000572166  0.7768742431972983  1.0000
  C   C30       1.0  0.20262522303962532  0.7447043383998204  0.7474465041388783  1.0000
  C   C31       1.0  0.2686283868350756  0.17516640224970803  0.795046372639483  1.0000
  C   C32       1.0  0.15048892337864572  0.18091988378883875  0.7625936212343591  1.0000
  C   C33       1.0  0.2959805723542459  0.2489681327003908  0.747744934168928  1.0000
  C   C34       1.0  0.7614371776801151  0.16332077111850649  0.8727723071904522  1.0000
  C   C35       1.0  0.8112068581759643  0.10986009351778851  0.8664465511744339  1.0000
  C   C36       1.0  0.625575065322259  0.11891553963204869  0.814776016976289  1.0000
  C   C37       1.0  0.4821149409971213  0.9533249205384281  0.7650068735336717  1.0000
  C   C38       1.0  0.36546794121630194  0.9558115442289861  0.7312898789711683  1.0000
  C   C39       1.0  0.5153345302678076  0.019377733990090504  0.7083157084261487  1.0000
  C   C40       1.0  0.8165937521425378  0.9378887089092771  0.8738402229855853  1.0000
  C   C41       1.0  0.858557963595082  0.8839919789025001  0.880839798475023  1.0000
  C   C42       1.0  0.8735858929049412  0.9015520113196799  0.7948749546582263  1.0000
  C   C43       1.0  0.8870468372551272  0.35344405194155815  0.8522654243368991  1.0000
  C   C44       1.0  0.9856291301289983  0.3230019028595876  0.880042436259828  1.0000
  C   C45       1.0  0.9525378344389139  0.40128926376822  0.9243401307819712  1.0000
  C   C46       1.0  0.3196804884030868  0.4953261101200184  0.02790215777835671  1.0000
  C   C47       1.0  0.3001507095722999  0.45178921750996176  0.9913544573925749  1.0000
  C   C48       1.0  0.19187318122906313  0.43251970859666505  0.06667423513052742  1.0000
  C   C49       1.0  0.9796126929903294  0.08582093433336978  0.6574613043250112  1.0000
  C   C50       1.0  0.8628550483506954  0.08211847708707151  0.690829002002751  1.0000
  C   C51       1.0  0.0191932320696253  0.021517946248003697  0.7156500710349009  1.0000
  C   C52       1.0  0.9474420232385156  0.2647882198222574  0.026192980336986707  1.0000
  C   C53       1.0  0.9138385519734699  0.2368586865688087  0.0722887330566948  1.0000
  C   C54       1.0  0.1139141368450254  0.2804425341655233  0.08608582335781993  1.0000
  C   C55       1.0  0.484244357903499  0.3244116910884003  0.9670816589872047  1.0000
  C   C56       1.0  0.5756215598054837  0.3023498229978756  0.9284214430184577  1.0000
  C   C57       1.0  0.3582452959255491  0.28729582272601556  0.9014903199115594  1.0000
  C   C58       1.0  0.848111756333452  0.6855179332153443  0.756051290007875  1.0000
  C   C59       1.0  0.7354587993004031  0.6704371849807202  0.7231270311325418  1.0000
  C   C60       1.0  0.7026267392763188  0.755295718951807  0.7525539685920677  1.0000
  C   C61       1.0  0.23137289563071306  0.6751656728956094  0.2950458414276512  1.0000
  C   C62       1.0  0.34951359491499556  0.6809200349220819  0.26259303480646423  1.0000
  C   C63       1.0  0.2040201043664709  0.7489682182428795  0.24774485308708452  1.0000
  C   C64       1.0  0.7385635323495663  0.6633204583622998  0.3727721895442784  1.0000
  C   C65       1.0  0.6887926536225848  0.6098597588617521  0.36644606203559965  1.0000
  C   C66       1.0  0.8744247225095522  0.618915701927726  0.3147754134707982  1.0000
  C   C67       1.0  0.017885226450175696  0.4533252802655595  0.2650052972933494  1.0000
  C   C68       1.0  0.13453133345005597  0.45581319594857916  0.23128988386478266  1.0000
  C   C69       1.0  0.9846654585690756  0.5193783582556577  0.20831625906610907  1.0000
  C   C70       1.0  0.6834078069779466  0.43788955337332414  0.37384179104707016  1.0000
  C   C71       1.0  0.6414444565238212  0.3839923915886487  0.38084057119739617  1.0000
  C   C72       1.0  0.6264159319570197  0.4015524164711479  0.2948765489032397  1.0000
  C   C73       1.0  0.6129513758874482  0.8534445120583171  0.3522637961253637  1.0000
  C   C74       1.0  0.5143677928050039  0.8230019046277874  0.3800412683529333  1.0000
  C   C75       1.0  0.5474612440692539  0.9012888661870448  0.4243393329157997  1.0000
  C   C76       1.0  0.18031988483059544  0.9953256171714312  0.527901912848492  1.0000
  C   C77       1.0  0.1998462428152834  0.9517888878072326  0.49135396067558196  1.0000
  C   C78       1.0  0.308126810618468  0.9325205130417232  0.5666751580736218  1.0000
  C   C79       1.0  0.520385622001399  0.5858230064781152  0.1574614135479351  1.0000
  C   C80       1.0  0.6371441573127967  0.5821201877707054  0.19082901830288532  1.0000
  C   C81       1.0  0.4808047664783217  0.5215193975385546  0.21564943325898164  1.0000
  C   C82       1.0  0.5525606649820105  0.764788082603992  0.5261936470927537  1.0000
  C   C83       1.0  0.5861627659853212  0.7368602191119107  0.5722898339267815  1.0000
  C   C84       1.0  0.3860874132646686  0.7804433747432783  0.5860854760280675  1.0000
  C   C85       1.0  0.0157523146310723  0.8244108655236673  0.4670808699721008  1.0000
  C   C86       1.0  0.9243814403230816  0.8023500068756773  0.4284216164892953  1.0000
  C   C87       1.0  0.1417537002801055  0.7872950536176616  0.4014894445228522  1.0000
  C   C88       1.0  0.6518885204042774  0.18551793800676114  0.2560508258542669  1.0000
  C   C89       1.0  0.7645415884539944  0.17043682647167915  0.22312647687019904  1.0000
  C   C90       1.0  0.797374833577301  0.2552953747534302  0.25255379743318684  1.0000
  C   C91       1.0  0.7313716697824616  0.824833724679948  0.20495394181727283  1.0000
  C   C92       1.0  0.8495132577436807  0.8190798289643622  0.23740708594734636  1.0000
  C   C93       1.0  0.7040194842636538  0.751031580853379  0.25225496179277235  1.0000
  C   C94       1.0  0.23856500344574272  0.8366793566126771  0.1272271960448421  1.0000
  C   C95       1.0  0.18879426069511854  0.8901396200362229  0.13355334478689682  1.0000
  C   C96       1.0  0.3744260535488237  0.8810841739219624  0.18522387898504183  1.0000
  C   C97       1.0  0.5178851156191939  0.04667437883841071  0.23499341515370284  1.0000
  C   C98       1.0  0.6345321154009868  0.04418775554837849  0.2687100041058343  1.0000
  C   C99       1.0  0.48466552634947396  0.9806215657872667  0.2916841746508538  1.0000
  C   C100      1.0  0.1834073667273231  0.0621101770919168  0.12615964720635736  1.0000
  C   C101      1.0  0.1414420930206148  0.1160069066979332  0.11916047732765381  1.0000
  C   C102      1.0  0.1264141637107628  0.0984468742807536  0.20512532114445042  1.0000
  C   C103      1.0  0.1129521571095822  0.6465556616119769  0.14773447162516362  1.0000
  C   C104      1.0  0.014369864235718  0.6769978106939478  0.11995745970223486  1.0000
  C   C105      1.0  0.0474600976732305  0.5987108635614858  0.07565977806515181  1.0000
  C   C106      1.0  0.6803195682148128  0.5046736034337512  0.9720977381833366  1.0000
  C   C107      1.0  0.6998493470455999  0.5482104960438079  0.008645438569125505  1.0000
  C   C108      1.0  0.8081268753888365  0.5674800049571118  0.9333256608311659  1.0000
  C   C109      1.0  0.0203863013721843  0.9141779512668222  0.34253897147802803  1.0000
  C   C110      1.0  0.1371439460127917  0.9178804089136393  0.3091708681899163  1.0000
  C   C111      1.0  0.980805762292533  0.9784813527280819  0.28435062326320093  1.0000
  C   C112      1.0  0.0525580333791353  0.7352106665792206  0.9738064842449534  1.0000
  C   C113      1.0  0.08616150464417421  0.7631401998326695  0.9277107315252454  1.0000
  C   C114      1.0  0.8860859197722631  0.7195567656118413  0.9139140597191828  1.0000
  C   C115      1.0  0.5157514496999624  0.6755888488156714  0.03291947957644941  1.0000
  C   C116      1.0  0.4243795590665726  0.6976498909566615  0.07157804733250833  1.0000
  C   C117      1.0  0.6417547606904038  0.7127038900267094  0.0985103872708777  1.0000
  C   C118      1.0  0.1518893625366573  0.31448177993814136  0.24394901156382795  1.0000
  C   C119      1.0  0.26454125731616074  0.3295629415484171  0.276873688934586  1.0000
  C   C120      1.0  0.2973754418469809  0.2447039942019202  0.24744633297927274  1.0000
  N   N1        1.0  0.8608572032421762  0.28161990704482776  0.7146794354737978  1.0000
  N   N2        1.0  0.6683842208892231  0.27204708249004733  0.7672462368878072  1.0000
  N   N3        1.0  0.14402240482810666  0.33116873707564304  0.6603951065182302  1.0000
  N   N4        1.0  0.2243851566509178  0.4181631195683123  0.6702851668689863  1.0000
  N   N5        1.0  0.07686044240673338  0.5061602853718198  0.7499298542636765  1.0000
  N   N6        1.0  0.8870089420405022  0.50206433601398  0.8044382058825479  1.0000
  N   N7        1.0  0.3265082350664059  0.5511384071191968  0.6807722596791808  1.0000
  N   N8        1.0  0.39462432202609676  0.6389250358266949  0.6694502048136999  1.0000
  N   N9        1.0  0.3663092407919564  0.09706473002636072  0.619286801838868  1.0000
  N   N10       1.0  0.5273215139969452  0.1462768366044926  0.5743181665382481  1.0000
  N   N11       1.0  0.7508473613335482  0.017128613630902095  0.42443453315114255  1.0000
  N   N12       1.0  0.7191592544975265  0.08797528178480718  0.48375397637215667  1.0000
  N   N13       1.0  0.5785039309918432  0.4526662717635901  0.8264943634732163  1.0000
  N   N14       1.0  0.388357563491823  0.4590186671979096  0.7724908867944152  1.0000
  N   N15       1.0  0.5745708936575086  0.20761373997402896  0.46484369869664033  1.0000
  N   N16       1.0  0.5198066811228799  0.2529803062215236  0.3898553094260606  1.0000
  N   N17       1.0  0.8463757499749391  0.1853304295596061  0.5503279407896713  1.0000
  N   N18       1.0  0.9947766741094597  0.22114440869777502  0.6131010269331086  1.0000
  N   N19       1.0  0.32688342876447507  0.7605232198283433  0.7255458289335124  1.0000
  N   N20       1.0  0.1431507172664865  0.7851899556380388  0.7787857737167059  1.0000
  N   N21       1.0  0.3608575479334206  0.21837975003566612  0.7853204970962511  1.0000
  N   N22       1.0  0.1683848475202012  0.2279524879494446  0.732754233233436  1.0000
  N   N23       1.0  0.6440232344849973  0.16883123662513094  0.8396049875773741  1.0000
  N   N24       1.0  0.7243847008457182  0.08183730351585439  0.8297152906331748  1.0000
  N   N25       1.0  0.5768584636860083  0.9938393030532992  0.7500694749648747  1.0000
  N   N26       1.0  0.3870052757638973  0.9979341496479179  0.6955612776949495  1.0000
  N   N27       1.0  0.8265110959416191  0.9488625360969322  0.8192253146258611  1.0000
  N   N28       1.0  0.8946204819563732  0.8610788327411926  0.8305490354341674  1.0000
  N   N29       1.0  0.8663095393275811  0.4029349286959487  0.8807139382145408  1.0000
  N   N30       1.0  0.0273205441992204  0.35372308360464183  0.9256832243879672  1.0000
  N   N31       1.0  0.2508537840865798  0.4828728041614738  0.07556488235681513  1.0000
  N   N32       1.0  0.21916043012237205  0.41202612180803305  0.016245460859906302  1.0000
  N   N33       1.0  0.0785042799046067  0.04733367298101139  0.673505369925337  1.0000
  N   N34       1.0  0.8883564086022915  0.04098141678166909  0.727508228588505  1.0000
  N   N35       1.0  0.0745716063560167  0.29238594292694126  0.03515659733337631  1.0000
  N   N36       1.0  0.019806892966940402  0.24701893876548547  0.1101446056501345  1.0000
  N   N37       1.0  0.34637560585375127  0.314670048184432  0.9496724330873931  1.0000
  N   N38       1.0  0.4947767196834576  0.2788561351391508  0.8868996508248943  1.0000
  N   N39       1.0  0.8268858529820449  0.7394760652459881  0.7744549384586537  1.0000
  N   N40       1.0  0.6431522578788389  0.7148104884409962  0.7212151582792786  1.0000
  N   N41       1.0  0.13914285337510532  0.7183793927325298  0.28532044760320474  1.0000
  N   N42       1.0  0.3316147734745201  0.7279526306629621  0.23275406468462023  1.0000
  N   N43       1.0  0.8559765895381944  0.6688313906548232  0.3396043967181584  1.0000
  N   N44       1.0  0.7756148999685735  0.5818370081623883  0.3297143363670331  1.0000
  N   N45       1.0  0.9231406764660477  0.4938386018309373  0.2500687990971572  1.0000
  N   N46       1.0  0.11299430133377801  0.4979345491866454  0.19556247552940687  1.0000
  N   N47       1.0  0.67349075930332  0.4488633761174228  0.3192268894856198  1.0000
  N   N48       1.0  0.6053821081154496  0.36107840131566576  0.3305502127184497  1.0000
  N   N49       1.0  0.633690815826192  0.9029358106797076  0.38071352550258564  1.0000
  N   N50       1.0  0.4726774803667909  0.8537228765485169  0.42568213503418667  1.0000
  N   N51       1.0  0.2491452595158421  0.9828723420514789  0.5755645902464581  1.0000
  N   N52       1.0  0.28083761536495894  0.9120252605226329  0.5162447285289177  1.0000
  N   N53       1.0  0.4214940011228592  0.5473342701435655  0.1735047470378674  1.0000
  N   N54       1.0  0.6116414308772916  0.5409827022623049  0.2275082494856876  1.0000
  N   N55       1.0  0.4254302252129634  0.7923855598035698  0.53515618438  1.0000
  N   N56       1.0  0.48019550000066863  0.747020234084502  0.6101454235250402  1.0000
  N   N57       1.0  0.1536253688957814  0.8146696973702845  0.4496723736667292  1.0000
  N   N58       1.0  0.005222320256479  0.7788561324085779  0.38689889479834266  1.0000
  N   N59       1.0  0.6731155655998792  0.2394769071010785  0.2744544855236128  1.0000
  N   N60       1.0  0.8568493393504395  0.21480975751521206  0.22121452785535922  1.0000
  N   N61       1.0  0.6391425086850974  0.7816203772945158  0.2146794117501472  1.0000
  N   N62       1.0  0.8316162713499082  0.7720472252040482  0.26724606833826675  1.0000
  N   N63       1.0  0.3559778843876771  0.8311688911058114  0.16039451565828242  1.0000
  N   N64       1.0  0.27561641802439135  0.9181624096376308  0.17028501093852813  1.0000
  N   N65       1.0  0.42314159293127324  0.006159996724065299  0.24993040811212813  1.0000
  N   N66       1.0  0.6129947808543648  0.0020651505299653997  0.3044381997716812  1.0000
  N   N67       1.0  0.1734900229272682  0.05113634950373579  0.1807749611764464  1.0000
  N   N68       1.0  0.10537957466055299  0.13892088041205136  0.16945126613789796  1.0000
  N   N69       1.0  0.13369051728970763  0.597064371081416  0.11928594486246172  1.0000
  N   N70       1.0  0.9726773879107214  0.6462762157717207  0.07431706430013213  1.0000
  N   N71       1.0  0.7491462725303464  0.5171269089917772  0.9244354192152502  1.0000
  N   N72       1.0  0.7808385642423444  0.5879735917455021  0.9837544351021565  1.0000
  N   N73       1.0  0.9214968389645292  0.952666039771955  0.3264953372567305  1.0000
  N   N74       1.0  0.11164364801401659  0.9590178825951697  0.2724920600988625  1.0000
  N   N75       1.0  0.9254284502612649  0.7076133568504233  0.9648432857436192  1.0000
  N   N76       1.0  0.9801931636509594  0.752980774788284  0.8898552903115658  1.0000
  N   N77       1.0  0.6536255130163652  0.6853296649690607  0.050327868484309625  1.0000
  N   N78       1.0  0.505223336932744  0.7211444047658732  0.11310148773730333  1.0000
  N   N79       1.0  0.17311632814002562  0.26052282035491453  0.2255453373432914  1.0000
  N   N80       1.0  0.35684992324470954  0.2851900518650226  0.2787855746718151  1.0000
