data_image0
_chemical_formula_structural       Cu2H26C38S2N2O8
_chemical_formula_sum              "Cu2 H26 C38 S2 N2 O8"
_cell_length_a       8.047286505762372
_cell_length_b       10.636803883209442
_cell_length_c       10.956032308207508
_cell_angle_alpha    68.88522646907104
_cell_angle_beta     80.89536527956527
_cell_angle_gamma    73.97540327808026

_space_group_name_H-M_alt    "P 1"
_space_group_IT_number       1

loop_
  _space_group_symop_operation_xyz
  'x, y, z'

loop_
  _atom_site_type_symbol
  _atom_site_label
  _atom_site_symmetry_multiplicity
  _atom_site_fract_x
  _atom_site_fract_y
  _atom_site_fract_z
  _atom_site_occupancy
  Cu  Cu1       1.0  0.6294850586182787  0.9257541263126683  0.4484227175672045  1.0000
  Cu  Cu2       1.0  0.3705155233691784  0.0742476430750543  0.5515644599505831  1.0000
  H   H1        1.0  0.6454780430609898  0.5661806299769268  0.7805154882170128  1.0000
  H   H2        1.0  0.35451375235988536  0.4338253399505091  0.21947761255617587  1.0000
  H   H3        1.0  0.6132869251353696  0.3365432360416277  0.9397187520622763  1.0000
  H   H4        1.0  0.3867130606470183  0.6634648424301446  0.06027628655059655  1.0000
  H   H5        1.0  0.32007540851615335  0.2858362353238703  0.9961021906454163  1.0000
  H   H6        1.0  0.679926426998172  0.7141656938118074  0.0039039508249985016  1.0000
  H   H7        1.0  0.06331193258039039  0.4661340938802142  0.8978383296030114  1.0000
  H   H8        1.0  0.9366867442292276  0.5338657891894129  0.10217256319438657  1.0000
  H   H9        1.0  0.1428912665980562  0.717057367625081  0.95464653176473  1.0000
  H   H10       1.0  0.8570929534991976  0.2829444945506764  0.045354399370751336  1.0000
  H   H11       1.0  0.01780002189378392  0.8271261079395557  0.12124866685658736  1.0000
  H   H12       1.0  0.9821713062315282  0.1728767721153517  0.8787515892718782  1.0000
  H   H13       1.0  0.7285208535840724  0.995364828252519  0.09652950040653263  1.0000
  H   H14       1.0  0.2714542756604246  0.004642127866759397  0.9034597286594913  1.0000
  H   H15       1.0  0.5767077451588706  0.05943154400587498  0.8915504846940363  1.0000
  H   H16       1.0  0.4232784249401646  0.9405805890845683  0.10843377704596699  1.0000
  H   H17       1.0  0.005435700217248082  0.932797486525423  0.40243568908208266  1.0000
  H   H18       1.0  0.9945792883476515  0.0671940936307678  0.5975753362241318  1.0000
  H   H19       1.0  0.2951394345523468  0.7676272397553844  0.39399349365209696  1.0000
  H   H20       1.0  0.7048752434917417  0.2323654386186362  0.6060244786895835  1.0000
  H   H21       1.0  0.3039359125565681  0.5400811282936785  0.3700146217389387  1.0000
  H   H22       1.0  0.6960900669588669  0.45990741112258593  0.6300044122803498  1.0000
  H   H23       1.0  0.026005005838108303  0.49341737505879  0.34017508484264164  1.0000
  H   H24       1.0  0.9740241082382185  0.506569075018021  0.6598425005632504  1.0000
  H   H25       1.0  0.7483041283537657  0.6695217505863268  0.35178818597987765  1.0000
  H   H26       1.0  0.2517221642225067  0.3304656071693728  0.648213890042349  1.0000
  C   C1        1.0  0.4083826212985143  0.7776978544343932  0.6502194444697834  1.0000
  C   C2        1.0  0.5916129262611917  0.22230394350349772  0.3497719649303689  1.0000
  C   C3        1.0  0.3741590249611589  0.6447217360036674  0.7487843320854066  1.0000
  C   C4        1.0  0.6258371629348146  0.3552821602038776  0.2512089923660453  1.0000
  C   C5        1.0  0.5184052871918041  0.5426075156507082  0.8064156434586989  1.0000
  C   C6        1.0  0.48158995030891555  0.4573953653335892  0.19358089280207466  1.0000
  C   C7        1.0  0.4997749005144739  0.4146439034571684  0.8957841407169905  1.0000
  C   C8        1.0  0.5002263199619605  0.585360024885844  0.1042122325514541  1.0000
  C   C9        1.0  0.3359968470575723  0.38638553771510686  0.9280770702174549  1.0000
  C   C10       1.0  0.6640037312352901  0.6136163530438806  0.07192466869904017  1.0000
  C   C11       1.0  0.1913216479258608  0.4879872059750311  0.8729498058139666  1.0000
  C   C12       1.0  0.8086767215957166  0.5120136691125552  0.12705529279502062  1.0000
  C   C13       1.0  0.20767708562813433  0.6184099965514845  0.7850627703317127  1.0000
  C   C14       1.0  0.792319717998474  0.3815918776916122  0.2149375920594564  1.0000
  C   C15       1.0  0.9315671740606317  0.8223440186431148  0.8279611944891979  1.0000
  C   C16       1.0  0.0684195641741496  0.17765779891474404  0.17203398035542244  1.0000
  C   C17       1.0  0.017734749113529284  0.7912974949919941  0.9411111062593348  1.0000
  C   C18       1.0  0.9822472875108161  0.20870744898935095  0.05888533141796155  1.0000
  C   C19       1.0  0.94601446517305  0.8530694393007963  0.03569763367465842  1.0000
  C   C20       1.0  0.053961588244675285  0.14693446490754516  0.9642998770823962  1.0000
  C   C21       1.0  0.785286447177398  0.9489171034038218  0.0209940250513868  1.0000
  C   C22       1.0  0.21469150726174746  0.05108882366529599  0.9789961519996023  1.0000
  C   C23       1.0  0.7007810442713307  0.9837404200981436  0.9080969998469399  1.0000
  C   C24       1.0  0.2992044601930601  0.016265517245656697  0.09189319999243385  1.0000
  C   C25       1.0  0.7705049402286404  0.9224312004630735  0.8110158917424638  1.0000
  C   C26       1.0  0.22948495694176071  0.07757265557513189  0.18897362168775794  1.0000
  C   C27       1.0  0.6696247628982944  0.964010704784897  0.694512173702634  1.0000
  C   C28       1.0  0.3303720676430757  0.03599521383526389  0.3054739649259303  1.0000
  C   C29       1.0  0.01653374014996702  0.8342569283779823  0.3884884946093549  1.0000
  C   C30       1.0  0.9834828152335574  0.16573362227988747  0.6115236265650024  1.0000
  C   C31       1.0  0.1769158487146925  0.7421748082575519  0.38391879776041543  1.0000
  C   C32       1.0  0.8231063561344809  0.2578137146428147  0.6160988597335545  1.0000
  C   C33       1.0  0.18170739212573037  0.6165946826821839  0.36892788626980877  1.0000
  C   C34       1.0  0.8183129367694875  0.3833959224201067  0.6310901618669644  1.0000
  C   C35       1.0  0.027335923614458545  0.5898193209277026  0.3536383476252566  1.0000
  C   C36       1.0  0.9726906739407253  0.4101671206670758  0.6463786234595614  1.0000
  C   C37       1.0  0.8727718519582764  0.6870762511215814  0.3602544095922653  1.0000
  C   C38       1.0  0.12725348929909333  0.3129101217536955  0.639754518588951  1.0000
  S   S1        1.0  0.018899704821137734  0.7390477338567434  0.7106768176084228  1.0000
  S   S2        1.0  0.9810923507547069  0.26094893531318053  0.28932413234323917  1.0000
  N   N1        1.0  0.8666301908043079  0.8062191392868241  0.3796649056125005  1.0000
  N   N2        1.0  0.13338669808927506  0.1937744864872641  0.6203415162499153  1.0000
  O   O1        1.0  0.5342937739044513  0.7626917145166415  0.565627740544471  1.0000
  O   O2        1.0  0.4656976905463991  0.23731109685183338  0.4343610485790491  1.0000
  O   O3        1.0  0.3154281134919402  0.8910680504097142  0.6618421434065738  1.0000
  O   O4        1.0  0.6845721584365377  0.1089348020244216  0.3381501609718355  1.0000
  O   O5        1.0  0.5191886824178199  0.0452518877964394  0.6929119518466249  1.0000
  O   O6        1.0  0.48081289686704304  0.9547592131397803  0.3070708689592011  1.0000
  O   O7        1.0  0.7422170818865153  0.9141717854454752  0.6036441438489389  1.0000
  O   O8        1.0  0.2577772079898963  0.08582998928713438  0.3963446831721312  1.0000
