data_image0
_chemical_formula_structural       Mn4H32C24O32
_chemical_formula_sum              "Mn4 H32 C24 O32"
_cell_length_a       6.046072101006849
_cell_length_b       10.426548633011253
_cell_length_c       13.400771839000708
_cell_angle_alpha    90.00000161648872
_cell_angle_beta     89.9999628566784
_cell_angle_gamma    90.00016840258652

_space_group_name_H-M_alt    "P 1"
_space_group_IT_number       1

loop_
  _space_group_symop_operation_xyz
  'x, y, z'

loop_
  _atom_site_type_symbol
  _atom_site_label
  _atom_site_symmetry_multiplicity
  _atom_site_fract_x
  _atom_site_fract_y
  _atom_site_fract_z
  _atom_site_occupancy
  Mn  Mn1       1.0  0.9068301342835595  0.8336850919878672  0.5503562366832213  1.0000
  Mn  Mn2       1.0  0.40683243742033426  0.6663100071894237  0.4496479293809372  1.0000
  Mn  Mn3       1.0  0.0931713961049283  0.33368961453683005  0.9496452908364219  1.0000
  Mn  Mn4       1.0  0.5931673106978221  0.16631249149835275  0.0503537314230158  1.0000
  H   H1        1.0  0.9765511248373497  0.08458875727771442  0.639855540132146  1.0000
  H   H2        1.0  0.4765548190295802  0.4154120841997512  0.3601448626599435  1.0000
  H   H3        1.0  0.023445835413418995  0.5845884936095233  0.8601444890628827  1.0000
  H   H4        1.0  0.523447845271768  0.9154117064845907  0.1398553115662153  1.0000
  H   H5        1.0  0.38426123199789686  0.19919088917180977  0.4450661015285391  1.0000
  H   H6        1.0  0.8842670255009537  0.3008088358742357  0.5549343282048156  1.0000
  H   H7        1.0  0.6157320668623427  0.6991916250375142  0.05493332137466209  1.0000
  H   H8        1.0  0.11573433828935718  0.8008087323936481  0.9450664523138741  1.0000
  H   H9        1.0  0.7147238737135165  0.8940567723628378  0.3727903738143111  1.0000
  H   H10       1.0  0.214725615330785  0.6059437538369253  0.6272116096533011  1.0000
  H   H11       1.0  0.28527372047746974  0.39405585706192897  0.1272105461346769  1.0000
  H   H12       1.0  0.7852747610628937  0.10594465830850201  0.8727891662704863  1.0000
  H   H13       1.0  0.8283094395858865  0.025194092822978614  0.4118216808785888  1.0000
  H   H14       1.0  0.3283097985219783  0.47480649591757645  0.5881795114148929  1.0000
  H   H15       1.0  0.17168959347733895  0.5251931136710938  0.0881784841464679  1.0000
  H   H16       1.0  0.6716907929634174  0.9748063800698149  0.9118220194325772  1.0000
  H   H17       1.0  0.39369201422154987  0.8999606647834569  0.8000978974157604  1.0000
  H   H18       1.0  0.8936939935807401  0.6000382483551193  0.19990030267842232  1.0000
  H   H19       1.0  0.6063048900873297  0.39996221742270427  0.6998999005389805  1.0000
  H   H20       1.0  0.10631038063156949  0.10003991101164195  0.3000983716594092  1.0000
  H   H21       1.0  0.13551796550115816  0.9749641712525163  0.8143612935197595  1.0000
  H   H22       1.0  0.6355195853460245  0.5250362199106676  0.1856399668442563  1.0000
  H   H23       1.0  0.8644826267847563  0.4749642453912842  0.6856387448800803  1.0000
  H   H24       1.0  0.36448275485241766  0.025036405019939412  0.3143609444022744  1.0000
  H   H25       1.0  0.2998656274897654  0.15911811795098882  0.7428668705209702  1.0000
  H   H26       1.0  0.7998670908657742  0.3408824222972485  0.2571335838500843  1.0000
  H   H27       1.0  0.7001333643730658  0.6591170863129748  0.757132414205536  1.0000
  H   H28       1.0  0.20013519579233469  0.8408843741019185  0.2428673348443624  1.0000
  H   H29       1.0  0.5476296428423808  0.08809770347562562  0.6994969435622737  1.0000
  H   H30       1.0  0.0476267892455979  0.41190144764703274  0.30050283821733353  1.0000
  H   H31       1.0  0.45237395106077827  0.5881000872503891  0.800503085714567  1.0000
  H   H32       1.0  0.9523692414052575  0.9119027622886837  0.1994980821527008  1.0000
  C   C1        1.0  0.1233195079262828  0.7806333155977754  0.763179912694511  1.0000
  C   C2        1.0  0.623323692752379  0.7193680138608088  0.23681911255313537  1.0000
  C   C3        1.0  0.8766751377669734  0.2806324531562653  0.7368186286723741  1.0000
  C   C4        1.0  0.3766812861110651  0.21936821804681733  0.2631795645984809  1.0000
  C   C5        1.0  0.23120475895304782  0.9119913524060979  0.7645126575502275  1.0000
  C   C6        1.0  0.7312082800921189  0.5880092018930513  0.2354870824289463  1.0000
  C   C7        1.0  0.7687922063111967  0.41199126508071526  0.7354866331395228  1.0000
  C   C8        1.0  0.26879603316618267  0.08801018128322372  0.2645115916252365  1.0000
  C   C9        1.0  0.2567802847614615  0.9793693731022375  0.6631886401209924  1.0000
  C   C10       1.0  0.7567816646588027  0.5206321838883954  0.3368110923924021  1.0000
  C   C11       1.0  0.7432186758777634  0.4793682864864978  0.8368099059316023  1.0000
  C   C12       1.0  0.243218999255177  0.0206311980944207  0.1631890725248368  1.0000
  C   C13       1.0  0.39316783631947766  0.8921421580259477  0.5927508853486216  1.0000
  C   C14       1.0  0.8931695567983267  0.6078577133089029  0.4072480611242995  1.0000
  C   C15       1.0  0.6068306823376446  0.39214371852051505  0.9072484048728597  1.0000
  C   C16       1.0  0.10682989513136928  0.10785745171477863  0.09275135962429458  1.0000
  C   C17       1.0  0.3746496332735773  0.10798812612822675  0.6798660102347753  1.0000
  C   C18       1.0  0.8746545729637841  0.39201158253047913  0.32013442230456224  1.0000
  C   C19       1.0  0.6253490995123769  0.6079888872874691  0.8201347657374569  1.0000
  C   C20       1.0  0.12534797276526177  0.8920114865366889  0.1798664975954907  1.0000
  C   C21       1.0  0.3739684875056141  0.19650255317790064  0.5907778592666375  1.0000
  C   C22       1.0  0.873974504372917  0.30348660432888863  0.40922182724558803  1.0000
  C   C23       1.0  0.6260290398524615  0.6965138684794427  0.9092214263417873  1.0000
  C   C24       1.0  0.1260325547105552  0.8034941792290126  0.09077909056641428  1.0000
  O   O1        1.0  0.04318052971509449  0.9983984977837895  0.6198187815654707  1.0000
  O   O2        1.0  0.5431817507485164  0.50160077686477  0.3801810133027104  1.0000
  O   O3        1.0  0.956816873382877  0.49839873587438194  0.8801805111617611  1.0000
  O   O4        1.0  0.45681716277151446  0.0016020719556522  0.1198184049403679  1.0000
  O   O5        1.0  0.04512817958747921  0.7313225870915263  0.6835539129634042  1.0000
  O   O6        1.0  0.5451258837731529  0.76867669087455  0.3164466275623994  1.0000
  O   O7        1.0  0.9548728321105102  0.23132281972524277  0.8164468659168094  1.0000
  O   O8        1.0  0.4548727290785591  0.2686779847901164  0.1835527969785673  1.0000
  O   O9        1.0  0.12192665625405397  0.7206364729399015  0.8464989936145741  1.0000
  O   O10       1.0  0.6219279570986486  0.7793629359613163  0.15350077826575162  1.0000
  O   O11       1.0  0.8780709933643748  0.22063656916887464  0.6535002925627893  1.0000
  O   O12       1.0  0.3780740178317926  0.2793631453211702  0.3464979003010242  1.0000
  O   O13       1.0  0.2916605274063214  0.8382229816281711  0.5198036087502729  1.0000
  O   O14       1.0  0.7916640700457266  0.6617757575604629  0.480196113580412  1.0000
  O   O15       1.0  0.7083360640709272  0.33822471762745476  0.9801964264257136  1.0000
  O   O16       1.0  0.20833730906087308  0.16177662566392575  0.0198033084393359  1.0000
  O   O17       1.0  0.5931256963153755  0.8750254471112414  0.6155241710850348  1.0000
  O   O18       1.0  0.09312788381027562  0.6249748717787186  0.3844748629771714  1.0000
  O   O19       1.0  0.4068727356070453  0.3750257068472322  0.8844743725071494  1.0000
  O   O20       1.0  0.9068749627893098  0.1249759749259098  0.1155253044002507  1.0000
  O   O21       1.0  0.39503000683632905  0.13696033553745934  0.5042664206321774  1.0000
  O   O22       1.0  0.895036200889592  0.36303748968806104  0.49573176728041796  1.0000
  O   O23       1.0  0.6049639108622458  0.6369629860213238  0.9957313711212663  1.0000
  O   O24       1.0  0.10496454406209212  0.8630383121401692  0.004267659485329  1.0000
  O   O25       1.0  0.35649627766098035  0.31397573528500555  0.5999549465429439  1.0000
  O   O26       1.0  0.8564917887347787  0.18602969695724886  0.4000454912972203  1.0000
  O   O27       1.0  0.6435084607687429  0.8139707755402344  0.9000443418343309  1.0000
  O   O28       1.0  0.14350805928623336  0.6860248337933329  0.0999561699716338  1.0000
  O   O29       1.0  0.8375574048235707  0.930365153202175  0.4120045154912049  1.0000
  O   O30       1.0  0.3375623268435035  0.5696336642362995  0.5879989245692769  1.0000
  O   O31       1.0  0.16244202731654409  0.43036594535049505  0.0879956590880369  1.0000
  O   O32       1.0  0.6624428274655044  0.06963627878688071  0.9120040891746369  1.0000
