data_image0
_chemical_formula_structural       K4H24C16N28O20
_chemical_formula_sum              "K4 H24 C16 N28 O20"
_cell_length_a       7.644533059919194
_cell_length_b       11.179504068003295
_cell_length_c       11.344069279897484
_cell_angle_alpha    89.99991416237475
_cell_angle_beta     98.4837300010172
_cell_angle_gamma    89.99999463254342

_space_group_name_H-M_alt    "P 1"
_space_group_IT_number       1

loop_
  _space_group_symop_operation_xyz
  'x, y, z'

loop_
  _atom_site_type_symbol
  _atom_site_label
  _atom_site_symmetry_multiplicity
  _atom_site_fract_x
  _atom_site_fract_y
  _atom_site_fract_z
  _atom_site_occupancy
  K   K1        1.0  0.9658274923119947  0.6917505223705476  0.22067471197054536  1.0000
  K   K2        1.0  0.5341738752534936  0.19174709594040001  0.2793281168219579  1.0000
  K   K3        1.0  0.0341659271021371  0.30824653438553906  0.7793264338314075  1.0000
  K   K4        1.0  0.46583012471860746  0.8082472773323277  0.7206741257775066  1.0000
  H   H1        1.0  0.1721133628640388  0.9399359793113651  0.2163573839047928  1.0000
  H   H2        1.0  0.32788777365870203  0.43993521069570823  0.2836425565120635  1.0000
  H   H3        1.0  0.8278866946681163  0.060063760928173324  0.7836418054045282  1.0000
  H   H4        1.0  0.6721135980198909  0.5600636350489554  0.7163576505599567  1.0000
  H   H5        1.0  0.0410589753805723  0.028756887710081  0.26462661415021677  1.0000
  H   H6        1.0  0.45894103989462554  0.5287567143328077  0.23537293657845743  1.0000
  H   H7        1.0  0.958941073728141  0.9712428525287891  0.7353734558216872  1.0000
  H   H8        1.0  0.5410590092140879  0.4712430259060626  0.7646271333934467  1.0000
  H   H9        1.0  0.709101538586239  0.4563507822983156  0.5092950952732664  1.0000
  H   H10       1.0  0.7908998823354594  0.9563511273693096  0.9907047731261612  1.0000
  H   H11       1.0  0.29090115566202  0.5436480634461988  0.4907052488981806  1.0000
  H   H12       1.0  0.2090988526270223  0.04364861287037061  0.009294279083732702  1.0000
  H   H13       1.0  0.7436954343266393  0.5269854987438478  0.37798761027392663  1.0000
  H   H14       1.0  0.7563060442286726  0.02698676874969411  0.12201194754251792  1.0000
  H   H15       1.0  0.25630462320572184  0.4730133470016328  0.6220115790360765  1.0000
  H   H16       1.0  0.24369532744950104  0.9730138659830915  0.8779882595281306  1.0000
  H   H17       1.0  0.1646679831644846  0.9350330076603942  0.5461764878889782  1.0000
  H   H18       1.0  0.3353306711626018  0.4350328751234472  0.9538223909285152  1.0000
  H   H19       1.0  0.8353320827911048  0.06496673257981202  0.4538218207577601  1.0000
  H   H20       1.0  0.6646693695224711  0.5649677596088124  0.04617855970528952  1.0000
  H   H21       1.0  0.07423121579854809  0.8888316073504899  0.40165699716425973  1.0000
  H   H22       1.0  0.42576995312224847  0.3888320077012822  0.0983421406508285  1.0000
  H   H23       1.0  0.9257688585804829  0.1111681328903842  0.5983404308198957  1.0000
  H   H24       1.0  0.5742314017090493  0.6111686270301675  0.901659827744993  1.0000
  C   C1        1.0  0.022809313376896494  0.7811040045626431  0.5423935605980575  1.0000
  C   C2        1.0  0.4771894131635861  0.281104751548341  0.9576055533446495  1.0000
  C   C3        1.0  0.9771881074389412  0.2188975246659766  0.4576044738484485  1.0000
  C   C4        1.0  0.5228119500905207  0.7188985666659635  0.04239553438653589  1.0000
  C   C5        1.0  0.8533711546557257  0.612358575578945  0.5314699492038244  1.0000
  C   C6        1.0  0.646629105075263  0.11235932753347562  0.9685303075424659  1.0000
  C   C7        1.0  0.1466288944529879  0.3876411646599253  0.4685301207680794  1.0000
  C   C8        1.0  0.35337225817925605  0.8876422016926997  0.031470780190083814  1.0000
  C   C9        1.0  0.9714350523695855  0.6878778850055767  0.7120739608415577  1.0000
  C   C10       1.0  0.5285638577865084  0.1878780238841601  0.7879251627877649  1.0000
  C   C11       1.0  0.028566327732022494  0.3121227497278768  0.2879253655665082  1.0000
  C   C12       1.0  0.47143486875233265  0.812122610848917  0.21207477008402265  1.0000
  C   C13       1.0  0.9953731599239292  0.6857676720163967  0.8449804001678275  1.0000
  C   C14       1.0  0.5046257512221004  0.18576801389090042  0.6550187266846877  1.0000
  C   C15       1.0  0.004626906031454301  0.3142329627178669  0.15501790847822863  1.0000
  C   C16       1.0  0.49537164432363306  0.8142326208416578  0.34498194975024893  1.0000
  N   N1        1.0  0.9259588616305336  0.6996997012886297  0.47285368134441097  1.0000
  N   N2        1.0  0.5740412133288685  0.19970023245154078  0.027145475552970307  1.0000
  N   N3        1.0  0.07403987333195519  0.30030003895105756  0.5271453708654762  1.0000
  N   N4        1.0  0.4259588357794258  0.8003012967754518  0.9728545944175623  1.0000
  N   N5        1.0  0.056295204719504  0.7756949051314664  0.6647856972975391  1.0000
  N   N6        1.0  0.44370483850497777  0.27569494530413863  0.8352144426701004  1.0000
  N   N7        1.0  0.943704852812651  0.2243048351080716  0.33521349201178213  1.0000
  N   N8        1.0  0.5562951937564407  0.724306583921518  0.16478738862560502  1.0000
  N   N9        1.0  0.8664804102940806  0.6051166589414552  0.6532519534843786  1.0000
  N   N10       1.0  0.6335185386880794  0.10511759632700551  0.8467472965617518  1.0000
  N   N11       1.0  0.1335196472380744  0.3948830812980829  0.3467472358249424  1.0000
  N   N12       1.0  0.36648017942732036  0.8948830384054035  0.1532535169726188  1.0000
  N   N13       1.0  0.09499523319757232  0.8727360119538193  0.4921498986442857  1.0000
  N   N14       1.0  0.4050059264273287  0.37273655080922197  0.00785102508181271  1.0000
  N   N15       1.0  0.9050048159111412  0.12726372828505111  0.5078501713276182  1.0000
  N   N16       1.0  0.5949954284037559  0.6272649784162924  0.9921509433133198  1.0000
  N   N17       1.0  0.7606092962629204  0.5263637564289994  0.46823565653992466  1.0000
  N   N18       1.0  0.7393908600145875  0.0263642698250592  0.031763765127379884  1.0000
  N   N19       1.0  0.23939207541546634  0.4736359838097288  0.5317645505314061  1.0000
  N   N20       1.0  0.260607874947695  0.9736363649086858  0.9682352870818249  1.0000
  N   N21       1.0  0.10864919274061441  0.6040305754032715  0.9071688450266393  1.0000
  N   N22       1.0  0.3913482858785429  0.10403009185456824  0.5928312829590611  1.0000
  N   N23       1.0  0.8913508647913346  0.39597005933033114  0.09283034428199953  1.0000
  N   N24       1.0  0.60865043223707  0.8959696483837761  0.4071695305759918  1.0000
  N   N25       1.0  0.9108715348331274  0.773247362761005  0.9007183425768517  1.0000
  N   N26       1.0  0.5891273352732328  0.27324688911701145  0.599280650651437  1.0000
  N   N27       1.0  0.08912984526869391  0.22675237747838384  0.09928098383190331  1.0000
  N   N28       1.0  0.4108727054120465  0.7267528511211908  0.4007202999830497  1.0000
  O   O1        1.0  0.05909081729856071  0.943510354920136  0.25111675238877507  1.0000
  O   O2        1.0  0.44091031754729937  0.4435096316269168  0.2488831825682  1.0000
  O   O3        1.0  0.9409079092404865  0.05648938531887642  0.748883180483695  1.0000
  O   O4        1.0  0.5590910541312937  0.5564892141177397  0.7511170245038203  1.0000
  O   O5        1.0  0.1365245511488098  0.5971865794105329  0.018464358422768605  1.0000
  O   O6        1.0  0.3634741010304694  0.09718640303855616  0.4815358313429954  1.0000
  O   O7        1.0  0.8634741922371204  0.4028131608298225  0.9815338131245356  1.0000
  O   O8        1.0  0.6365259396550157  0.9028124427055817  0.5184651192921734  1.0000
  O   O9        1.0  0.7982659310330575  0.8358476902082972  0.8329224663576298  1.0000
  O   O10       1.0  0.7017289251489842  0.3358488954653042  0.6670777812745144  1.0000
  O   O11       1.0  0.2017341264988914  0.16415294452529852  0.1670767229510091  1.0000
  O   O12       1.0  0.298268461973521  0.6641508447725217  0.3329237758236872  1.0000
  O   O13       1.0  0.9410525202678316  0.7946971095681337  0.01041219291030163  1.0000
  O   O14       1.0  0.5589461875553782  0.29469694082365555  0.489586681780054  1.0000
  O   O15       1.0  0.05894621469465021  0.20530263067155372  0.9895868592995926  1.0000
  O   O16       1.0  0.4410538531298939  0.7053027994145467  0.5104142688544258  1.0000
  O   O17       1.0  0.18510072299643807  0.5326714638549249  0.8422509074322947  1.0000
  O   O18       1.0  0.3148981200929554  0.0326708868934986  0.6577485859910583  1.0000
  O   O19       1.0  0.8149006486817354  0.4673291708778606  0.1577492996383612  1.0000
  O   O20       1.0  0.6851006064463049  0.9673279588514565  0.34225134688209385  1.0000
