data_image0
_chemical_formula_structural       Cd2H46C50N6O12
_chemical_formula_sum              "Cd2 H46 C50 N6 O12"
_cell_length_a       9.59860866326593
_cell_length_b       11.752017428740674
_cell_length_c       12.2215
_cell_angle_alpha    77.96270381754367
_cell_angle_beta     71.21484454246288
_cell_angle_gamma    70.88740894814416

_space_group_name_H-M_alt    "P 1"
_space_group_IT_number       1

loop_
  _space_group_symop_operation_xyz
  'x, y, z'

loop_
  _atom_site_type_symbol
  _atom_site_label
  _atom_site_symmetry_multiplicity
  _atom_site_fract_x
  _atom_site_fract_y
  _atom_site_fract_z
  _atom_site_occupancy
  Cd  Cd1       1.0  0.7742105071868792  0.2726197773558994  0.21108878478273138  1.0000
  Cd  Cd2       1.0  0.22579038340870025  0.7273795382501902  0.7889126000367881  1.0000
  H   H1        1.0  0.6140588545441191  0.9106609338026459  0.2847792752772803  1.0000
  H   H2        1.0  0.3859463043176915  0.0893356619972181  0.7152215754740963  1.0000
  H   H3        1.0  0.4690844047642386  0.0043770748244114  0.3863091177147097  1.0000
  H   H4        1.0  0.5309190090215735  0.995621334179603  0.6136918107703622  1.0000
  H   H5        1.0  0.7094127632057903  0.9425352496014483  0.09644530756579438  1.0000
  H   H6        1.0  0.29059789783014617  0.0574613461984157  0.903552515166588  1.0000
  H   H7        1.0  0.2280022315277321  0.0696524243185124  0.11554460084186498  1.0000
  H   H8        1.0  0.7720079737145512  0.930342358277194  0.8844528825501213  1.0000
  H   H9        1.0  0.28649460518688125  0.2650578094374225  0.19984367140021667  1.0000
  H   H10       1.0  0.7135061519356257  0.7349387863624415  0.8001574743679141  1.0000
  H   H11       1.0  0.20105653935739548  0.22318639254318381  0.3471787585003766  1.0000
  H   H12       1.0  0.7989446735587721  0.7768120164608305  0.6528227266081572  1.0000
  H   H13       1.0  0.9867001603371148  0.302534926067807  0.466765876018826  1.0000
  H   H14       1.0  0.013299629823635003  0.6974643895382897  0.5332349688822617  1.0000
  H   H15       1.0  0.17567740189046788  0.6071151464197584  0.35283832833666656  1.0000
  H   H16       1.0  0.8243227105908701  0.39288326258425593  0.647160980393096  1.0000
  H   H17       1.0  0.8132650401536521  0.18962398367830247  0.463721102608794  1.0000
  H   H18       1.0  0.18673195987072677  0.8103707989174112  0.5362756293731151  1.0000
  H   H19       1.0  0.6748540751537817  0.1914979301700299  0.6770883903762479  1.0000
  H   H20       1.0  0.32514214675636294  0.8084959458236085  0.32290790197624364  1.0000
  H   H21       1.0  0.40018407616737056  0.3151874646447439  0.735501388519374  1.0000
  H   H22       1.0  0.5998158474664449  0.6848145707675783  0.2644956042822528  1.0000
  H   H23       1.0  0.2744595204877384  0.4333258746062398  0.5778314533998737  1.0000
  H   H24       1.0  0.7255468950061185  0.5666888532351493  0.4221662616192247  1.0000
  H   H25       1.0  0.42950342687977644  0.4224946996005983  0.37129731966214047  1.0000
  H   H26       1.0  0.5705044113694909  0.5775191216387157  0.6287002173342344  1.0000
  H   H27       1.0  0.43336504894811867  0.4154277364157863  0.18877259623621975  1.0000
  H   H28       1.0  0.5666336407778019  0.5845715791903103  0.811227708746429  1.0000
  H   H29       1.0  0.2765019252631333  0.6180678061036247  0.1248698434376649  1.0000
  H   H30       1.0  0.7234970867833752  0.38193060290038977  0.8751264706831561  1.0000
  H   H31       1.0  0.40906024905364535  0.7817004148562746  0.024269904328583853  1.0000
  H   H32       1.0  0.5909376625580407  0.21829799414773993  0.9757291427944706  1.0000
  H   H33       1.0  0.6891559414495134  0.7342479555802939  0.00413148465271718  1.0000
  H   H34       1.0  0.3108402250861744  0.265752266627878  0.9958741860453841  1.0000
  H   H35       1.0  0.824771989456991  0.5294501729508383  0.08759090946715989  1.0000
  H   H36       1.0  0.17522559983411407  0.4705491426552513  0.9124129467478923  1.0000
  H   H37       1.0  0.8456560937437132  0.0825977953661052  0.024789512352242565  1.0000
  H   H38       1.0  0.15433690496056565  0.9174051466482921  0.975213141181598  1.0000
  H   H39       1.0  0.9748091373527216  0.0485240629301771  0.8147477615307892  1.0000
  H   H40       1.0  0.025183861351557327  0.9514788790842204  0.1852548920030515  1.0000
  H   H41       1.0  0.1051373565584584  0.199451550185465  0.6840704720309745  1.0000
  H   H42       1.0  0.8948606885262933  0.8005495786247749  0.315931268833971  1.0000
  H   H43       1.0  0.10310417213114677  0.3792987370728724  0.7701690255224134  1.0000
  H   H44       1.0  0.8968869480240682  0.6207032983394498  0.22983264846357093  1.0000
  H   H45       1.0  0.9855909034794763  0.38984523902655605  0.9824474987661347  1.0000
  H   H46       1.0  0.01439672652374205  0.610160422794074  0.0175518759967375  1.0000
  C   C1        1.0  0.6166798060752042  0.0979130242411586  0.2548323266806563  1.0000
  C   C2        1.0  0.3833253527866064  0.9020835715587053  0.7451677058405507  1.0000
  C   C3        1.0  0.5305177437703036  0.000828634297747  0.29349231853366575  1.0000
  C   C4        1.0  0.4694885155263291  0.999167961502117  0.7065074356758172  1.0000
  C   C5        1.0  0.4631970128418459  0.0075374896624182995  0.1197748850375575  1.0000
  C   C6        1.0  0.5368133258735027  0.992460012739521  0.8802236556359802  1.0000
  C   C7        1.0  0.6169306168737732  0.968843028651726  0.05488581950347554  1.0000
  C   C8        1.0  0.3830808222763977  0.031154473750213196  0.9451116246281613  1.0000
  C   C9        1.0  0.3469139040463176  0.0382921518969823  0.0640885575051371  1.0000
  C   C10       1.0  0.6530978574244416  0.9617044439028816  0.9359089869155212  1.0000
  C   C11       1.0  0.04029388820682561  0.2994470393959006  0.2428866929650937  1.0000
  C   C12       1.0  0.9597051238396828  0.7005513696081138  0.7571153487669091  1.0000
  C   C13       1.0  0.18568244042082677  0.292955768529545  0.2732185480885931  1.0000
  C   C14       1.0  0.8143179943810918  0.7070417338723942  0.7267824973905233  1.0000
  C   C15       1.0  0.09303023459272447  0.4494289406855998  0.3969798446313105  1.0000
  C   C16       1.0  0.9069709783234359  0.5505694683184146  0.6030200040168907  1.0000
  C   C17       1.0  0.993939412240799  0.38876638255574386  0.48042068732946314  1.0000
  C   C18       1.0  0.00606102256112709  0.6112311198461953  0.5195795399194836  1.0000
  C   C19       1.0  0.0980055672757203  0.5605964872823677  0.4175980148617954  1.0000
  C   C20       1.0  0.9019945452056177  0.4394019217216467  0.5824012938679672  1.0000
  C   C21       1.0  0.6945189705884118  0.2436955447134039  0.4939257324714035  1.0000
  C   C22       1.0  0.30548210885468297  0.7563001444843849  0.506071422434907  1.0000
  C   C23       1.0  0.6171507680222064  0.245147014637574  0.6118411876611418  1.0000
  C   C24       1.0  0.3828485663448902  0.7548504877643722  0.38815604497887063  1.0000
  C   C25       1.0  0.46383335498298817  0.3132990125197992  0.6439522111084343  1.0000
  C   C26       1.0  0.5361687695204793  0.686703022892523  0.3560458615300703  1.0000
  C   C27       1.0  0.39368768238907836  0.37826974371626687  0.5572887246517552  1.0000
  C   C28       1.0  0.6063162652889956  0.6217395445126641  0.44270906888802836  1.0000
  C   C29       1.0  0.4801783079186776  0.3728754613622415  0.44146600456239327  1.0000
  C   C30       1.0  0.5198267401942188  0.6271338268666966  0.5585315106656593  1.0000
  C   C31       1.0  0.48474269902725087  0.4895569617871018  0.15032017267387224  1.0000
  C   C32       1.0  0.5152563130192575  0.5104414472169125  0.8496802325977909  1.0000
  C   C33       1.0  0.39828473177277607  0.6030191182390041  0.11284496638650411  1.0000
  C   C34       1.0  0.6017142802737325  0.39697929076501026  0.887152165964487  1.0000
  C   C35       1.0  0.4711575629299815  0.6930845949076456  0.05826047461955854  1.0000
  C   C36       1.0  0.528841449116527  0.3069138140963688  0.9417391124219349  1.0000
  C   C37       1.0  0.627853842580187  0.6665619511652849  0.045709097173315165  1.0000
  C   C38       1.0  0.3721429685966696  0.3334364578387294  0.9542935011821426  1.0000
  C   C39       1.0  0.7045979804030437  0.5526827577582836  0.08976181379198073  1.0000
  C   C40       1.0  0.2954007093228768  0.447316557847806  0.9102417641113403  1.0000
  C   C41       1.0  0.9074278574017568  0.144075388762559  0.9651980931486007  1.0000
  C   C42       1.0  0.09256514130252201  0.8559275532518384  0.03480374215507712  1.0000
  C   C43       1.0  0.9767896184814545  0.1266423374372536  0.8484049369253481  1.0000
  C   C44       1.0  0.023204480657646735  0.8733606045771438  0.1515966200665915  1.0000
  C   C45       1.0  0.0508095094324048  0.2104966832811144  0.7758975334669101  1.0000
  C   C46       1.0  0.94918413391305  0.7895044455291256  0.22410450241479657  1.0000
  C   C47       1.0  0.0531561796115128  0.3080661053353566  0.8230379974434853  1.0000
  C   C48       1.0  0.9468357186579439  0.6919368366790408  0.1769624797115838  1.0000
  C   C49       1.0  0.9845381374214452  0.3163696737522486  0.941463385764621  1.0000
  C   C50       1.0  0.015451237657771242  0.6836341748642241  0.058538365955058735  1.0000
  N   N1        1.0  0.6277160904272776  0.3070824420825602  0.40993207899143147  1.0000
  N   N2        1.0  0.37228648986984336  0.6929214065339124  0.5900655147573131  1.0000
  N   N3        1.0  0.6350590657875799  0.46502340300015993  0.14052254904483158  1.0000
  N   N4        1.0  0.3649374230686958  0.5349759126059297  0.8594799490216118  1.0000
  N   N5        1.0  0.9121615363958995  0.23640102440743496  0.01173009557884805  1.0000
  N   N6        1.0  0.0878297172323812  0.7636037308111128  0.9882709992283552  1.0000
  O   O1        1.0  0.7409090097239428  0.0706161423256333  0.28341841976574494  1.0000
  O   O2        1.0  0.2590969272521092  0.929381360076313  0.7165812341547165  1.0000
  O   O3        1.0  0.5610612716246165  0.1982521156385104  0.20033545894138877  1.0000
  O   O4        1.0  0.4389420086881301  0.8017435735592714  0.7996652304923016  1.0000
  O   O5        1.0  0.4155391477825815  0.0172571705225053  0.23695087544607668  1.0000
  O   O6        1.0  0.5844710574597017  0.9827376120732082  0.7630466079459025  1.0000
  O   O7        1.0  0.004294044650748695  0.1998586145177299  0.2637729450446713  1.0000
  O   O8        1.0  0.9957074905859995  0.8001388878842093  0.7362261856623745  1.0000
  O   O9        1.0  0.9657636225988355  0.3984706511805384  0.19877817683757834  1.0000
  O   O10       1.0  0.034232543936852315  0.6015295710276334  0.8012266756303531  1.0000
  O   O11       1.0  0.18935945117095798  0.4066237236527641  0.2948590874504404  1.0000
  O   O12       1.0  0.810640983630968  0.5933737787491751  0.7051419580286761  1.0000
