data_image0
_chemical_formula_structural       Cd2H30C30N14O14
_chemical_formula_sum              "Cd2 H30 C30 N14 O14"
_cell_length_a       8.896635444201204
_cell_length_b       10.293253734359885
_cell_length_c       10.469503768776791
_cell_angle_alpha    77.68664265206489
_cell_angle_beta     87.18223325639194
_cell_angle_gamma    87.9977858379388

_space_group_name_H-M_alt    "P 1"
_space_group_IT_number       1

loop_
  _space_group_symop_operation_xyz
  'x, y, z'

loop_
  _atom_site_type_symbol
  _atom_site_label
  _atom_site_symmetry_multiplicity
  _atom_site_fract_x
  _atom_site_fract_y
  _atom_site_fract_z
  _atom_site_occupancy
  Cd  Cd1       1.0  0.11843207921930342  0.6693148687297709  0.1767832630563363  1.0000
  Cd  Cd2       1.0  0.8815675851536895  0.33068554113148  0.8232155070445022  1.0000
  H   H1        1.0  0.004730763114167794  0.6418195548725053  0.4747443955264858  1.0000
  H   H2        1.0  0.9952667010376147  0.3581798558551412  0.5252585048931311  1.0000
  H   H3        1.0  0.8351034453907005  0.7606442871386393  0.6130831310428635  1.0000
  H   H4        1.0  0.16489164335441592  0.23935807884087268  0.38691542517938177  1.0000
  H   H5        1.0  0.8447680014003468  0.1038062760246419  0.29455098748601233  1.0000
  H   H6        1.0  0.1552327190408036  0.8961961375144087  0.7054492201870134  1.0000
  H   H7        1.0  0.0022781649130578876  0.9687320522913013  0.16419032125980249  1.0000
  H   H8        1.0  0.9977237558501388  0.0312683802308698  0.835810254679949  1.0000
  H   H9        1.0  0.5806186650979372  0.31158126722822743  0.5315343258670924  1.0000
  H   H10       1.0  0.4193776677655876  0.688418129138043  0.46846671725091243  1.0000
  H   H11       1.0  0.3501296596690722  0.10917991749641232  0.8720277037686801  1.0000
  H   H12       1.0  0.6498702334573778  0.8908145274465153  0.1279732799026122  1.0000
  H   H13       1.0  0.20721343484824933  0.9763586971284892  0.06190635898315127  1.0000
  H   H14       1.0  0.7927861543046505  0.0236437020491849  0.9380919913882626  1.0000
  H   H15       1.0  0.409086181435839  0.6231368921742728  0.0012680964949680763  1.0000
  H   H16       1.0  0.5909146894455122  0.37686154273194467  0.9987329506369138  1.0000
  H   H17       1.0  0.561894336362805  0.7432472187383539  0.8073528309187596  1.0000
  H   H18       1.0  0.4381054001371396  0.25675119877556807  0.1926454045293512  1.0000
  H   H19       1.0  0.7909414736004479  0.5335983860759796  0.3751441416504308  1.0000
  H   H20       1.0  0.2090593220608099  0.4664020381466544  0.6248564857520267  1.0000
  H   H21       1.0  0.756909852847528  0.39515713725965906  0.306379069722425  1.0000
  H   H22       1.0  0.2430920648225126  0.6048432922315994  0.6936205518351675  1.0000
  H   H23       1.0  0.7458698403516593  0.6886170778175825  0.15901576209915902  1.0000
  H   H24       1.0  0.25413099291964164  0.31138235174684337  0.8409850751680142  1.0000
  H   H25       1.0  0.5873074826800037  0.5884658096356361  0.21340361875237335  1.0000
  H   H26       1.0  0.4126921502692582  0.41153560094566183  0.7865968502480744  1.0000
  H   H27       1.0  0.7127136394818621  0.5508128744175095  0.08748518781433752  1.0000
  H   H28       1.0  0.2872871499930767  0.4491875437432853  0.9125135308238017  1.0000
  H   H29       1.0  0.9669851721567964  0.437755422290941  0.17606684044344698  1.0000
  H   H30       1.0  0.033015582801255106  0.5622459935589816  0.8239326227121286  1.0000
  C   C1        1.0  0.9639303886517325  0.7431692972233535  0.4373216910542584  1.0000
  C   C2        1.0  0.036069281907579416  0.2568311186997363  0.5626789878109053  1.0000
  C   C3        1.0  0.8702598792857119  0.8092246999463981  0.5140155116050737  1.0000
  C   C4        1.0  0.1297386223752852  0.1907766962735238  0.4859831000937549  1.0000
  C   C5        1.0  0.8232867793529338  0.940357569516273  0.46186287539963206  1.0000
  C   C6        1.0  0.17671059101981257  0.05964381234227289  0.5381338789975845  1.0000
  C   C7        1.0  0.8761236764274685  0.0009590057745470008  0.33612384643596743  1.0000
  C   C8        1.0  0.1238748221403796  0.9990423874144626  0.6638738108807022  1.0000
  C   C9        1.0  0.9657169630558545  0.9264744931098361  0.2646247734928482  1.0000
  C   C10       1.0  0.03428496080050541  0.07352594244325421  0.7353767568290694  1.0000
  C   C11       1.0  0.7175251280682887  0.013478153732023702  0.536579302398927  1.0000
  C   C12       1.0  0.2824734112027585  0.98652224782969  0.46341951916461727  1.0000
  C   C13       1.0  0.5500533715074241  0.0115687781114318  0.7072668795409813  1.0000
  C   C14       1.0  0.449946377365137  0.9884296515261611  0.292735173435773  1.0000
  C   C15       1.0  0.6000263383710518  0.20477820783726491  0.5639436086278027  1.0000
  C   C16       1.0  0.3999721694762571  0.7952231944444961  0.4360569118353511  1.0000
  C   C17       1.0  0.4665650387454292  0.9363750034002292  0.8240812332359017  1.0000
  C   C18       1.0  0.5334370700680181  0.0636204558308933  0.17592039202742887  1.0000
  C   C19       1.0  0.3661975319946719  0.0016968522293368021  0.8978720050541047  1.0000
  C   C20       1.0  0.6338079237940306  0.9982996356513711  0.10213211910286898  1.0000
  C   C21       1.0  0.28642539197517886  0.9270440009545384  0.0041270749091850975  1.0000
  C   C22       1.0  0.7135733132018558  0.07295243712893298  0.9958773580240393  1.0000
  C   C23       1.0  0.39991595823760673  0.7308807055666975  0.9692502147622551  1.0000
  C   C24       1.0  0.60008266243986  0.2691177127404387  0.030750935295046102  1.0000
  C   C25       1.0  0.48500090335380713  0.7979865609286776  0.8620020551098553  1.0000
  C   C26       1.0  0.5149999675275438  0.20201187397753267  0.13799899202203392  1.0000
  C   C27       1.0  0.7977418815824963  0.4975868175103386  0.2835261114683405  1.0000
  C   C28       1.0  0.2022578296800219  0.5024126067854625  0.7164757316437049  1.0000
  C   C29       1.0  0.7058797330456772  0.5862789327812266  0.1795244489251928  1.0000
  C   C30       1.0  0.294119937513635  0.4137214831418632  0.8204762299399706  1.0000
  N   N1        1.0  0.32573393584736016  0.4736977788760158  0.30501621543933777  1.0000
  N   N2        1.0  0.6742679787295245  0.5263026475843233  0.6949824517360884  1.0000
  N   N3        1.0  0.954811077457734  0.7530673588195212  0.9297398952275987  1.0000
  N   N4        1.0  0.0451896805934737  0.24693406006132085  0.07026052231015001  1.0000
  N   N5        1.0  0.008000866960379913  0.799383163451388  0.313264554004576  1.0000
  N   N6        1.0  0.9919998503876216  0.2006192470567427  0.6867346992862908  1.0000
  N   N7        1.0  0.6454931067786801  0.9421174831243277  0.642492166818123  1.0000
  N   N8        1.0  0.3545065606874759  0.057882929767842504  0.35750755766488157  1.0000
  N   N9        1.0  0.5236703231549668  0.1437356470587616  0.672498783818327  1.0000
  N   N10       1.0  0.47632717242055383  0.8562627629488306  0.32750241770168753  1.0000
  N   N11       1.0  0.69806002247649  0.1454747260191667  0.4919204842824244  1.0000
  N   N12       1.0  0.30193739787893054  0.854525673304842  0.5080802975081512  1.0000
  N   N13       1.0  0.301025743800551  0.7935779573375328  0.03892492176537848  1.0000
  N   N14       1.0  0.6989740426820605  0.20641947764185184  0.9610773410760917  1.0000
  O   O1        1.0  0.2982988768299392  0.4855167534582634  0.18320452803157397  1.0000
  O   O2        1.0  0.7017029970437393  0.5144846646293644  0.8167929748969773  1.0000
  O   O3        1.0  0.25451651083269405  0.5525948721671767  0.3680622020241204  1.0000
  O   O4        1.0  0.7454842786422446  0.44740554599361804  0.6319365166140118  1.0000
  O   O5        1.0  0.4182946255013675  0.3891085483180561  0.3587010287370307  1.0000
  O   O6        1.0  0.5817072952618291  0.6108918842041149  0.6412995472027208  1.0000
  O   O7        1.0  0.037630420457716696  0.6457326706932706  0.9485878624459547  1.0000
  O   O8        1.0  0.9623702968902849  0.3542697398148603  0.05141139084491192  1.0000
  O   O9        1.0  0.9486922708932326  0.8199648136039599  0.01993496210661764  1.0000
  O   O10       1.0  0.05130844645476171  0.180037596904171  0.9800642911842491  1.0000
  O   O11       1.0  0.8845407581006625  0.7899859119803665  0.8284705613508907  1.0000
  O   O12       1.0  0.1154611219593278  0.2100155121690932  0.17152885034198567  1.0000
  O   O13       1.0  0.9565158966772245  0.49171601224627176  0.2449437817499316  1.0000
  O   O14       1.0  0.0434848175776139  0.5082863952309395  0.7550545171587689  1.0000
