data_image0
_chemical_formula_structural       Ag2H16C14S2N2O6
_chemical_formula_sum              "Ag2 H16 C14 S2 N2 O6"
_cell_length_a       5.400411827416029
_cell_length_b       8.089358662345415
_cell_length_c       10.123381713973751
_cell_angle_alpha    78.61685444323614
_cell_angle_beta     91.383736768917
_cell_angle_gamma    84.14892214529512

_space_group_name_H-M_alt    "P 1"
_space_group_IT_number       1

loop_
  _space_group_symop_operation_xyz
  'x, y, z'

loop_
  _atom_site_type_symbol
  _atom_site_label
  _atom_site_symmetry_multiplicity
  _atom_site_fract_x
  _atom_site_fract_y
  _atom_site_fract_z
  _atom_site_occupancy
  Ag  Ag1       1.0  0.7788536578518478  0.716020468048768  0.7738676848897726  1.0000
  Ag  Ag2       1.0  0.22115228397968414  0.2839795506304768  0.22613024551213806  1.0000
  H   H1        1.0  0.6142746242106583  0.8953560083042756  0.9999208351300767  1.0000
  H   H2        1.0  0.3857140908670473  0.1046221565025149  8.374913900160684e-05  1.0000
  H   H3        1.0  0.25591668979846827  0.5985033512613993  0.9420109855132137  1.0000
  H   H4        1.0  0.7440905004522662  0.4015007533869194  0.05799484675191022  1.0000
  H   H5        1.0  0.7904514256515541  0.9527995114249704  0.21555939510640335  1.0000
  H   H6        1.0  0.20954307561581229  0.04719265554888346  0.7844335606665708  1.0000
  H   H7        1.0  0.23699395254880787  0.5551249176104277  0.4386554293874383  1.0000
  H   H8        1.0  0.7629983968130318  0.4448703049863524  0.5613476737550016  1.0000
  H   H9        1.0  0.9669090041380528  0.692614530419462  0.4615597045031024  1.0000
  H   H10       1.0  0.033079787572191335  0.30738800387774023  0.5384404561727082  1.0000
  H   H11       1.0  0.17907937323386858  0.9454978244646666  0.3568307472118519  1.0000
  H   H12       1.0  0.8209218867441663  0.054499608016364186  0.6431758116498116  1.0000
  H   H13       1.0  0.450998307058562  0.8087216802862611  0.3365433650595905  1.0000
  H   H14       1.0  0.5489974205549615  0.19127625940134144  0.6634670157877451  1.0000
  H   H15       1.0  0.4528566597514754  0.6313891965348617  0.16177470467109598  1.0000
  H   H16       1.0  0.5471552123527559  0.36861749431167806  0.838222499134275  1.0000
  C   C1        1.0  0.8005528419941967  0.8412708486590288  0.0389034769727772  1.0000
  C   C2        1.0  0.1994500080323931  0.158725196895169  0.9610875081207764  1.0000
  C   C3        1.0  0.15889070480012896  0.6733941163619973  0.007360084032477232  1.0000
  C   C4        1.0  0.8411105882874705  0.32660078600201803  0.9926321900124646  1.0000
  C   C5        1.0  0.8973892915464816  0.8703202549382281  0.15931573361359608  1.0000
  C   C6        1.0  0.1026327506296667  0.12969188838930276  0.8406880661686387  1.0000
  C   C7        1.0  0.1700977722978863  0.6830254329956914  0.4527375184550592  1.0000
  C   C8        1.0  0.8298931470375375  0.31697590109772017  0.5472629703835564  1.0000
  C   C9        1.0  0.24695087949477582  0.8196670423411374  0.33842248971571814  1.0000
  C   C10       1.0  0.7530580382656423  0.18032885140399904  0.6615815276441949  1.0000
  C   C11       1.0  0.1368493835215078  0.7957356237677826  0.206619493599277  1.0000
  C   C12       1.0  0.8631542645287593  0.20427461185968804  0.7933767299514185  1.0000
  C   C13       1.0  0.2670818212266539  0.694171093803547  0.12823618486093835  1.0000
  C   C14       1.0  0.7329337376490486  0.3058353713549167  0.8717591058347197  1.0000
  S   S1        1.0  0.29470036157537294  0.6980042359385263  0.6145816602306767  1.0000
  S   S2        1.0  0.7052910015336664  0.301987500074098  0.38542434897734507  1.0000
  N   N1        1.0  0.9277736468444503  0.7451325742450408  0.9629298455332103  1.0000
  N   N2        1.0  0.07224931378117821  0.254858011478369  0.037071662492238  1.0000
  O   O1        1.0  0.5720998573821631  0.6891124800340974  0.5974809913746667  1.0000
  O   O2        1.0  0.4278941625874139  0.3108921524864883  0.40252263348784817  1.0000
  O   O3        1.0  0.19358614294050366  0.8609333473439945  0.6447655135707108  1.0000
  O   O4        1.0  0.806386207283744  0.13907577049166514  0.35522982963241384  1.0000
  O   O5        1.0  0.2255246911567568  0.5494555293903218  0.7101354681230562  1.0000
  O   O6        1.0  0.7744680561132782  0.4505468725803253  0.28987073040850925  1.0000
