data_image0
_chemical_formula_structural       Zr6H28C52O32
_chemical_formula_sum              "Zr6 H28 C52 O32"
_cell_length_a       16.686879286151736
_cell_length_b       17.443673698074686
_cell_length_c       17.457101939388508
_cell_angle_alpha    69.9071584678616
_cell_angle_beta     90.13385874501033
_cell_angle_gamma    89.92635385045888

_space_group_name_H-M_alt    "P 1"
_space_group_IT_number       1

loop_
  _space_group_symop_operation_xyz
  'x, y, z'

loop_
  _atom_site_type_symbol
  _atom_site_label
  _atom_site_symmetry_multiplicity
  _atom_site_fract_x
  _atom_site_fract_y
  _atom_site_fract_z
  _atom_site_occupancy
  Zr  Zr1       1.0  0.1030192849348097  0.8943258665128796  0.11101779337037229  1.0000
  Zr  Zr2       1.0  0.8875974050873054  0.9084798245776042  0.09938765263568425  1.0000
  Zr  Zr3       1.0  0.11526605603611269  0.07472715802228441  0.9353652873011739  1.0000
  Zr  Zr4       1.0  0.904097425097504  0.08457809674833072  0.9231597694866167  1.0000
  Zr  Zr5       1.0  0.0019836870649144  0.9031173540978301  0.929492662259193  1.0000
  Zr  Zr6       1.0  0.0017935124570272  0.0775379379105274  0.1056753834123043  1.0000
  H   H1        1.0  0.9996633166860673  0.9072705452068777  0.2275725029272237  1.0000
  H   H2        1.0  0.8265736759944103  0.9323910762428442  0.9432259451767135  1.0000
  H   H3        1.0  0.0059125990503262  0.20206541921514543  0.9425040257657004  1.0000
  H   H4        1.0  0.1726479078626397  0.9181589534270744  0.9533129927461488  1.0000
  H   H5        1.0  0.7343621503213952  0.8730478671642956  0.07232538130053702  1.0000
  H   H6        1.0  0.7530533638282221  0.14390968348617156  0.9213269074653497  1.0000
  H   H7        1.0  0.9091797976069388  0.19006028613164722  0.771592567408014  1.0000
  H   H8        1.0  0.023943337667517998  0.19181449381301977  0.8154210246406777  1.0000
  H   H9        1.0  0.26866078453771547  0.09245274522012183  0.962056443413502  1.0000
  H   H10       1.0  0.24404131906490523  0.9727632061702779  0.03729416279045232  1.0000
  H   H11       1.0  0.11414096752539389  0.7483984914891055  0.220760827469931  1.0000
  H   H12       1.0  0.8452191232709084  0.8055116276119278  0.25127703255982686  1.0000
  H   H13       1.0  0.10556847349342038  0.17066659097785936  0.7756234258480035  1.0000
  H   H14       1.0  0.25342104285052613  0.9350539991373595  0.13585231860887603  1.0000
  H   H15       1.0  0.8618887552179898  0.7517453259014247  0.19591842209564442  1.0000
  H   H16       1.0  0.7505138870561225  0.10507530948908793  0.8506319748494776  1.0000
  H   H17       1.0  0.3722838666664927  0.0017326547206125  0.3922465153405171  1.0000
  H   H18       1.0  0.3685086493450882  0.9925152014565913  0.6425505851246385  1.0000
  H   H19       1.0  0.14637271830185478  0.9997905563455591  0.512832532586671  1.0000
  H   H20       1.0  0.8572388420498597  0.9970841634431199  0.5109257748782454  1.0000
  H   H21       1.0  0.6364169780845828  0.9969646776917005  0.6395003321968956  1.0000
  H   H22       1.0  0.6300192111017466  0.9956474585806349  0.39273812785552314  1.0000
  H   H23       1.0  0.1452027120562533  0.4832286394405899  0.020842024972523552  1.0000
  H   H24       1.0  0.36408912724111525  0.6156073336305923  0.018756124688785247  1.0000
  H   H25       1.0  0.37401245897466845  0.3669589218574104  0.022562648391492152  1.0000
  H   H26       1.0  0.8558435447226884  0.48541719934577543  0.01840776286582715  1.0000
  H   H27       1.0  0.6355591816334609  0.6166647586346984  0.01537515246494076  1.0000
  H   H28       1.0  0.6281119935908065  0.36616731516640755  0.025107352524628396  1.0000
  C   C1        1.0  0.12514199009722654  0.7586548574492156  0.01940395860373191  1.0000
  C   C2        1.0  0.8635694758825068  0.9975205960852164  0.23779426638514428  1.0000
  C   C3        1.0  0.8727796922266078  0.762899643602566  0.012624932215281555  1.0000
  C   C4        1.0  0.1383548930183593  0.0016920169770671002  0.2382190745541308  1.0000
  C   C5        1.0  0.14304852174932853  0.20828550804963442  0.025438606901168687  1.0000
  C   C6        1.0  0.8769249423851805  0.998222590688812  0.783444585822451  1.0000
  C   C7        1.0  0.8650426277080782  0.21285096710983714  0.02268293909995119  1.0000
  C   C8        1.0  0.1328447257522498  0.9915150679308771  0.7906969663233666  1.0000
  C   C9        1.0  0.2547072380367013  0.0014784697944066004  0.4441724128498521  1.0000
  C   C10       1.0  0.33891434621062183  0.00020190794695910006  0.4462673720061474  1.0000
  C   C11       1.0  0.3803625507226442  0.9970851438945304  0.5175597449898958  1.0000
  C   C12       1.0  0.3368374356538695  0.9949801348341938  0.5871617334733514  1.0000
  C   C13       1.0  0.25256176114643847  0.9958042466410081  0.5856525742895115  1.0000
  C   C14       1.0  0.21158865516678557  0.999163190274473  0.5140764658419527  1.0000
  C   C15       1.0  0.7480773093862325  0.9968774521366228  0.4436399067297927  1.0000
  C   C16       1.0  0.7920286611883894  0.9968469013333919  0.5124287700419002  1.0000
  C   C17       1.0  0.7517467419057269  0.9966832500428425  0.5830986437170722  1.0000
  C   C18       1.0  0.6675509474086638  0.9967416629067287  0.5848625778512826  1.0000
  C   C19       1.0  0.6231815413359242  0.9962029001542589  0.5164353235990831  1.0000
  C   C20       1.0  0.6638911984062118  0.9960721455970544  0.44597540839986033  1.0000
  C   C21       1.0  0.25526871989640654  0.4168207426924369  0.022201710961716976  1.0000
  C   C22       1.0  0.21037406068177233  0.4855537958980279  0.02074822901468557  1.0000
  C   C23       1.0  0.2495920926544244  0.5573081545364361  0.019296825425627148  1.0000
  C   C24       1.0  0.3338087730495616  0.560132996263434  0.01945053428378424  1.0000
  C   C25       1.0  0.3790420183707255  0.49167236933884345  0.02051824160461987  1.0000
  C   C26       1.0  0.33936030198828593  0.42016104778385716  0.02172296021421258  1.0000
  C   C27       1.0  0.7464267472783773  0.4175244664248155  0.022354176573195165  1.0000
  C   C28       1.0  0.7906607624879031  0.48717617014801823  0.019037454556979607  1.0000
  C   C29       1.0  0.7507619407196698  0.5590669976173928  0.016361525317485366  1.0000
  C   C30       1.0  0.6665264936586367  0.5610606559038801  0.017267400103676757  1.0000
  C   C31       1.0  0.6218856158992949  0.4917196171347344  0.020284369866857273  1.0000
  C   C32       1.0  0.6622772943900016  0.420031907024125  0.022781979902539686  1.0000
  C   C33       1.0  0.4639267367290357  0.4937904784369138  0.020494774685658974  1.0000
  C   C34       1.0  0.5369928669466617  0.4935700392736566  0.0205348056610147  1.0000
  C   C35       1.0  0.53831879604585  0.9960631171694914  0.5180611535812859  1.0000
  C   C36       1.0  0.46526281444128154  0.9962874082111953  0.5186149810644664  1.0000
  C   C37       1.0  0.834419565365053  0.9977513172009297  0.7115922093951781  1.0000
  C   C38       1.0  0.7961750973390523  0.9971480986831198  0.6523219692253546  1.0000
  C   C39       1.0  0.7884740939270145  0.9976087156512817  0.37202144277305393  1.0000
  C   C40       1.0  0.8227262156126828  0.998441977945383  0.3102785706186779  1.0000
  C   C41       1.0  0.17332213885926248  0.9926500189640426  0.717265936929138  1.0000
  C   C42       1.0  0.2093761345248311  0.9938076892816313  0.6563007985759413  1.0000
  C   C43       1.0  0.21391580111966138  0.003990682661175501  0.37191403271887685  1.0000
  C   C44       1.0  0.1800903528407147  0.005011301853123502  0.3096824995651133  1.0000
  C   C45       1.0  0.8210339982335881  0.2832715332983042  0.024989342872530084  1.0000
  C   C46       1.0  0.7866249444608542  0.3451238748046919  0.0242871777350686  1.0000
  C   C47       1.0  0.8327295149758241  0.6895864156898882  0.01227586735053875  1.0000
  C   C48       1.0  0.7952429601517608  0.6292709739771922  0.013659800925353184  1.0000
  C   C49       1.0  0.2162957371130432  0.34406183644573934  0.023938534353511873  1.0000
  C   C50       1.0  0.1838891318770308  0.2811197147605712  0.025338397678495973  1.0000
  C   C51       1.0  0.1668180885701886  0.6864033795656184  0.018412418415785187  1.0000
  C   C52       1.0  0.2045692281220326  0.6266414627692857  0.0184349559558611  1.0000
  O   O1        1.0  0.1410134665073457  0.7829011580198612  0.07856795219083772  1.0000
  O   O2        1.0  0.0770355050302669  0.7919745293171021  0.9601555874792639  1.0000
  O   O3        1.0  0.8454888771633121  0.9397211897823186  0.2120798109336517  1.0000
  O   O4        1.0  0.9143154968538879  0.054147002767003016  0.2068029524150248  1.0000
  O   O5        1.0  0.858867555452278  0.7852661317744137  0.07355181592511417  1.0000
  O   O6        1.0  0.9164618087155104  0.7999247777089669  0.9512773541295443  1.0000
  O   O7        1.0  0.1634529847919737  0.9509890578332333  0.20641635866163444  1.0000
  O   O8        1.0  0.07817901382259149  0.04987549805597521  0.2144277069173839  1.0000
  O   O9        1.0  0.100217560728062  0.8032734451760178  0.21814692888516854  1.0000
  O   O10       1.0  0.2372760827780382  0.9206443646075757  0.08863507024122431  1.0000
  O   O11       1.0  0.8855378681645902  0.7914517247865546  0.21774169214369016  1.0000
  O   O12       1.0  0.7678468078873024  0.905209969831276  0.09508301710607008  1.0000
  O   O13       1.0  0.9965193269325711  0.8784579212316647  0.052560473549774986  1.0000
  O   O14       1.0  0.9981922420895017  0.933784943043243  0.16867027498020784  1.0000
  O   O15       1.0  0.16488259380336254  0.17810500149675335  0.9716338302126674  1.0000
  O   O16       1.0  0.08825753083768009  0.18149757995312402  0.0786050202752833  1.0000
  O   O17       1.0  0.8605037798080842  0.05744268078461092  0.8085705708939983  1.0000
  O   O18       1.0  0.9254230208431977  0.9399855540068317  0.8159710025205841  1.0000
  O   O19       1.0  0.8438930269755075  0.18288862477087525  0.9683036761402305  1.0000
  O   O20       1.0  0.9222292027200396  0.18805967680264504  0.07346566320049418  1.0000
  O   O21       1.0  0.1490415124808422  0.049678222911545306  0.8168087568477417  1.0000
  O   O22       1.0  0.0853730982203516  0.9320411657500289  0.8231977438011028  1.0000
  O   O23       1.0  0.08618836429933198  0.18560644018934624  0.8213288093712094  1.0000
  O   O24       1.0  0.2376335433155461  0.04692542084261221  0.9577734000316767  1.0000
  O   O25       1.0  0.9324754644607012  0.18996852561726035  0.8227454185792737  1.0000
  O   O26       1.0  0.7638318877101539  0.09467665870716502  0.9077552569280415  1.0000
  O   O27       1.0  0.0064804272693948  0.14278686089411963  0.9636515704825683  1.0000
  O   O28       1.0  0.005781665960334699  0.02718785869313221  0.9069488886385102  1.0000
  O   O29       1.0  0.0877534134791063  0.0249158155784173  0.0568334049651682  1.0000
  O   O30       1.0  0.8754478945331455  0.9496661213857466  0.9626545808925825  1.0000
  O   O31       1.0  0.124472866707471  0.9373603574357503  0.9721828040176489  1.0000
  O   O32       1.0  0.9112267960991716  0.03198141634904769  0.0513082003515279  1.0000
