data_image0
_chemical_formula_structural       Na4Zn4H28C44O32
_chemical_formula_sum              "Na4 Zn4 H28 C44 O32"
_cell_length_a       6.715557468
_cell_length_b       10.134909661568527
_cell_length_c       18.0774
_cell_angle_alpha    101.5497053881535
_cell_angle_beta     90.0
_cell_angle_gamma    90.0

_space_group_name_H-M_alt    "P 1"
_space_group_IT_number       1

loop_
  _space_group_symop_operation_xyz
  'x, y, z'

loop_
  _atom_site_type_symbol
  _atom_site_label
  _atom_site_symmetry_multiplicity
  _atom_site_fract_x
  _atom_site_fract_y
  _atom_site_fract_z
  _atom_site_occupancy
  Na  Na1       1.0  0.7509428701980665  0.0250511301774594  0.0147816349638745  1.0000
  Na  Na2       1.0  0.2509456598398927  0.9749486962018422  0.4852184008648663  1.0000
  Na  Na3       1.0  0.24905601775724046  0.9749517174436733  0.9852187399997376  1.0000
  Na  Na4       1.0  0.7490562062747301  0.0250491160162412  0.5147819620508544  1.0000
  Zn  Zn1       1.0  0.1932155306812433  0.6430209695803057  0.8409302424178052  1.0000
  Zn  Zn2       1.0  0.6932186973580341  0.3569768426377777  0.6590706736748118  1.0000
  Zn  Zn3       1.0  0.806783357274071  0.3569818780408269  0.15906957936891086  1.0000
  Zn  Zn4       1.0  0.30678167967693065  0.6430219766609113  0.3409298022858708  1.0000
  H   H1        1.0  0.8411260013656374  0.9396847615568547  0.8180446226220752  1.0000
  H   H2        1.0  0.3411258128481549  0.0603130506612288  0.6819568466474308  1.0000
  H   H3        1.0  0.1588758647489854  0.0603130506612288  0.1819568466474308  1.0000
  H   H4        1.0  0.6588686078681931  0.9396827473956364  0.31804329017837324  1.0000
  H   H5        1.0  0.30321235574303523  0.5373459869961222  0.637226461808595  1.0000
  H   H6        1.0  0.8032095661012093  0.46265383938317933  0.8627730208432497  1.0000
  H   H7        1.0  0.6967895103715873  0.4626528323025738  0.3627734609751911  1.0000
  H   H8        1.0  0.1967863436947965  0.5373490082379533  0.1372256945896737  1.0000
  H   H9        1.0  0.1474873835447923  0.6742434897367601  0.6221065430417241  1.0000
  H   H10       1.0  0.6474875720622748  0.3257553295619289  0.8778944860958477  1.0000
  H   H11       1.0  0.8525129934901798  0.3257563366425416  0.3778934927870168  1.0000
  H   H12       1.0  0.3525128049726901  0.6742475180592038  0.12210533569086832  1.0000
  H   H13       1.0  0.0017734938695354995  0.8991225758218703  0.6910983569957239  1.0000
  H   H14       1.0  0.5017721933073602  0.1008762434768187  0.8089032253187369  1.0000
  H   H15       1.0  0.9982298613247449  0.10087725055743138  0.30890389154058784  1.0000
  H   H16       1.0  0.4982237164886385  0.8991195545800394  0.1910969115070671  1.0000
  H   H17       1.0  0.4886980739332998  0.6695988339627519  0.5984977888129777  1.0000
  H   H18       1.0  0.9886967733711316  0.3304009924165499  0.9015022470157631  1.0000
  H   H19       1.0  0.5113052812609808  0.3304019994971625  0.4015023600607179  1.0000
  H   H20       1.0  0.0113021145841827  0.6696028622851955  0.0984976878159145  1.0000
  H   H21       1.0  0.7323174618688241  0.5726955234929676  0.5256424376299833  1.0000
  H   H22       1.0  0.23231727335134164  0.4273053099669397  0.9743577112437124  1.0000
  H   H23       1.0  0.2676844042457986  0.4273053099669397  0.47435992395129734  1.0000
  H   H24       1.0  0.7676845927632812  0.5726965305735803  0.02564144432114551  1.0000
  H   H25       1.0  0.8845356514786928  0.6475790164218367  0.4646476546357333  1.0000
  H   H26       1.0  0.3845384411205187  0.352423831199296  0.035353273504767906  1.0000
  H   H27       1.0  0.1154647255562722  0.3524198028768524  0.5353544808556236  1.0000
  H   H28       1.0  0.6154634249941039  0.6475790164218367  0.9646459951050518  1.0000
  C   C1        1.0  0.7651903843405563  0.8804019543598045  0.7692170180540004  1.0000
  C   C2        1.0  0.265188706743416  0.11959787201949719  0.7307846773054295  1.0000
  C   C3        1.0  0.2348129708537243  0.1195998861807155  0.2307849033953389  1.0000
  C   C4        1.0  0.7348042248932742  0.8804019543598045  0.269216464877104  1.0000
  C   C5        1.0  0.5754429201766484  0.8293661302792756  0.7812302813052483  1.0000
  C   C6        1.0  0.0754427316591588  0.1706286606969769  0.7187686361218084  1.0000
  C   C7        1.0  0.4245589459379815  0.1706296677775896  0.2187693023436594  1.0000
  C   C8        1.0  0.9245546672164977  0.8293671373598812  0.2812292879964176  1.0000
  C   C9        1.0  0.4774942386063755  0.7528390817946402  0.7175641568602772  1.0000
  C   C10       1.0  0.9774914489645494  0.2471607445846615  0.7824375384991455  1.0000
  C   C11       1.0  0.5225120947472206  0.24716275874587978  0.2824383177659584  1.0000
  C   C12       1.0  0.022505949911114  0.7528380747140275  0.21756293746152983  1.0000
  C   C13       1.0  0.4898014819579259  0.8666301270160162  0.858471243324246  1.0000
  C   C14       1.0  0.9898001813957507  0.1333696993632856  0.6415298988582805  1.0000
  C   C15       1.0  0.5102018732363547  0.1333727206051165  0.1415291316393663  1.0000
  C   C16       1.0  0.0101942393205974  0.8666291199354035  0.3584700239254985  1.0000
  C   C17       1.0  0.1991405786299225  0.6166707054157498  0.6639733947024098  1.0000
  C   C18       1.0  0.6991392780677471  0.3833281138829463  0.8360265280813763  1.0000
  C   C19       1.0  0.8008627765643581  0.3833291209635519  0.33602608794943484  1.0000
  C   C20       1.0  0.3008581208079093  0.6166737266575808  0.1639726274834885  1.0000
  C   C21       1.0  0.8550176254704949  0.8589279745095908  0.6989660523926631  1.0000
  C   C22       1.0  0.3550159478733548  0.14106883062788  0.8010330911243103  1.0000
  C   C23       1.0  0.1449857297237855  0.14106782354726727  0.30103187172556295  1.0000
  C   C24       1.0  0.6449784728429933  0.8589269674289852  0.1989664925245975  1.0000
  C   C25       1.0  0.023561707386761593  0.5478911280649967  0.6925545568527199  1.0000
  C   C26       1.0  0.5235574286652778  0.452108698314305  0.8074476916835991  1.0000
  C   C27       1.0  0.9764446259668276  0.45210769123369937  0.3074442595772737  1.0000
  C   C28       1.0  0.4764399702103788  0.547890120984384  0.19254946521570562  1.0000
  C   C29       1.0  0.7541354569791636  0.7827302413844777  0.6369449788822052  1.0000
  C   C30       1.0  0.2541337793820233  0.21726958499482407  0.8630567164772174  1.0000
  C   C31       1.0  0.245867898215117  0.2172705920754296  0.36305738269906845  1.0000
  C   C32       1.0  0.7458621304139823  0.7827302413844777  0.1369433193515235  1.0000
  C   C33       1.0  0.5662150935523798  0.729346912401688  0.6462767981304438  1.0000
  C   C34       1.0  0.0662119268755816  0.2706529139776137  0.853723237698297  1.0000
  C   C35       1.0  0.4337897507215586  0.2706529139776137  0.3537232376982971  1.0000
  C   C36       1.0  0.9337884501593833  0.7293509407241316  0.1462755907795881  1.0000
  C   C37       1.0  0.7669877034845739  0.6677840747032633  0.5077744274249198  1.0000
  C   C38       1.0  0.26699049312639994  0.3322167587566511  0.9922251682718864  1.0000
  C   C39       1.0  0.2330126735503981  0.3322157516760385  0.492225608403821  1.0000
  C   C40       1.0  0.733009883908565  0.667785081783876  0.007774540469874614  1.0000
  C   C41       1.0  0.5829285236041386  0.7186547375637318  0.4719029133377433  1.0000
  C   C42       1.0  0.08292982416631389  0.2813531454604501  0.028098026850656797  1.0000
  C   C43       1.0  0.4170733425104842  0.2813521383798374  0.5280979138056949  1.0000
  C   C44       1.0  0.9170720419483159  0.7186587658861754  0.9719039186944658  1.0000
  O   O1        1.0  0.2907472699480138  0.7036673639234934  0.7270019738384548  1.0000
  O   O2        1.0  0.7907459693858454  0.2963304482945901  0.7729983890772659  1.0000
  O   O3        1.0  0.709254596166609  0.296333469536421  0.2729987282121371  1.0000
  O   O4        1.0  0.2092529185694687  0.7036703851653243  0.2270006534426443  1.0000
  O   O5        1.0  0.9954006099795618  0.5568642163014275  0.7627111119929284  1.0000
  O   O6        1.0  0.4953959542231131  0.4431346029972687  0.7372893639677544  1.0000
  O   O7        1.0  0.0045997670554101  0.4431376242390996  0.23728970310262554  1.0000
  O   O8        1.0  0.5045969774135841  0.5568622021402021  0.2627108859030116  1.0000
  O   O9        1.0  0.3184024573073643  0.8194010676418486  0.8747547364028705  1.0000
  O   O10       1.0  0.8184056239841553  0.1805987587374602  0.6252441930720778  1.0000
  O   O11       1.0  0.6815964306479498  0.1806017799792841  0.1252450853838454  1.0000
  O   O12       1.0  0.1815887967321927  0.8193980464000176  0.37475660997557725  1.0000
  O   O13       1.0  0.5808750827593983  0.9498945447825448  0.9079810958003806  1.0000
  O   O14       1.0  0.0808778724012242  0.0501012532743133  0.5920195942023199  1.0000
  O   O15       1.0  0.41912380519591597  0.0501052815967569  0.0920194932052496  1.0000
  O   O16       1.0  0.9191180373947745  0.9498975660243758  0.40797977540457  1.0000
  O   O17       1.0  0.9149977539883949  0.47983262043110386  0.6409484790337814  1.0000
  O   O18       1.0  0.41499458731160377  0.5201651917869725  0.8590518838819392  1.0000
  O   O19       1.0  0.0850070902855364  0.5201672059481979  0.3590537695025375  1.0000
  O   O20       1.0  0.5849998334047442  0.4798386629147656  0.1409480509497314  1.0000
  O   O21       1.0  0.8507752375323747  0.7633530033645997  0.5690065520622697  1.0000
  O   O22       1.0  0.350775049014885  0.2366478300953148  0.9309930436345369  1.0000
  O   O23       1.0  0.14922662858224806  0.2366468230147021  0.4309940369433676  1.0000
  O   O24       1.0  0.6492223498607714  0.7633530033645997  0.069005445708477  1.0000
  O   O25       1.0  0.49590521946524285  0.6249559575954464  0.42442524945783333  1.0000
  O   O26       1.0  0.9959098752216917  0.3750438687838553  0.0755742331940112  1.0000
  O   O27       1.0  0.5040966466493798  0.3750418546226371  0.5755734539271984  1.0000
  O   O28       1.0  0.0040964581318974  0.6249579717566647  0.9244260287246462  1.0000
  O   O29       1.0  0.5333555727975464  0.8400351422631971  0.48919710524545224  1.0000
  O   O30       1.0  0.0333583624393725  0.1599626699548864  0.010804917200950092  1.0000
  O   O31       1.0  0.4666448042374185  0.1599596487130555  0.5108051312429751  1.0000
  O   O32       1.0  0.9666405255159346  0.8400361493438026  0.9891961119366214  1.0000
