data_image0
_chemical_formula_structural       Gd4Cu6H48C48O60
_chemical_formula_sum              "Gd4 Cu6 H48 C48 O60"
_cell_length_a       12.662930874276148
_cell_length_b       12.668155580348438
_cell_length_c       16.367432003388565
_cell_angle_alpha    90.00093254838373
_cell_angle_beta     90.00079628635429
_cell_angle_gamma    119.98412444490012

_space_group_name_H-M_alt    "P 1"
_space_group_IT_number       1

loop_
  _space_group_symop_operation_xyz
  'x, y, z'

loop_
  _atom_site_type_symbol
  _atom_site_label
  _atom_site_symmetry_multiplicity
  _atom_site_fract_x
  _atom_site_fract_y
  _atom_site_fract_z
  _atom_site_occupancy
  Gd  Gd1       1.0  0.33337114991048367  0.6667221521612986  0.2499890362565864  1.0000
  Gd  Gd2       1.0  0.6666481276403929  0.33327578999639235  0.2500146478789631  1.0000
  Gd  Gd3       1.0  0.6666353288768008  0.33327878445420805  0.7499751789338447  1.0000
  Gd  Gd4       1.0  0.3333345771349201  0.6667092341251574  0.7500491547028219  1.0000
  Cu  Cu1       1.0  0.5000266121076321  0.5000174339807727  1.79110463066e-05  1.0000
  Cu  Cu2       1.0  0.9999947516275399  0.4999777768154485  1.7696798792600002e-05  1.0000
  Cu  Cu3       1.0  0.4999747894051155  0.9999970590453842  0.9999921478867009  1.0000
  Cu  Cu4       1.0  0.9999936693129358  0.49997889625119984  0.499992891389347  1.0000
  Cu  Cu5       1.0  0.500008188362095  0.5000211444657693  0.5000163220731793  1.0000
  Cu  Cu6       1.0  0.49997072892684  0.9999817788279516  0.5000040805479955  1.0000
  H   H1        1.0  0.8534574357862399  0.19933659180416205  0.857875083639776  1.0000
  H   H2        1.0  0.7694848184411995  0.06342783745399316  0.7976591281611505  1.0000
  H   H3        1.0  0.34587537026747134  0.14657336235623572  0.8578500610539237  1.0000
  H   H4        1.0  0.2940007808744697  0.2306669559719126  0.7976313849006402  1.0000
  H   H5        1.0  0.8007086994045309  0.654170734591176  0.8578363825681165  1.0000
  H   H6        1.0  0.9366779346474914  0.7059032376197506  0.7976244743214025  1.0000
  H   H7        1.0  0.14652166686362716  0.800970608714607  0.8579045390534503  1.0000
  H   H8        1.0  0.2306495260567089  0.9366507615274671  0.797528580457744  1.0000
  H   H9        1.0  0.6542962219914161  0.8534854035009686  0.8579173459023437  1.0000
  H   H10       1.0  0.7059524778355739  0.7693064710048674  0.7976070295152908  1.0000
  H   H11       1.0  0.1992213716522998  0.3456909951336513  0.8578827513816875  1.0000
  H   H12       1.0  0.063354557086683  0.29407814794922166  0.7975876703128009  1.0000
  H   H13       1.0  0.6540717217999514  0.8006167711700413  0.6421416993471637  1.0000
  H   H14       1.0  0.7059735395948226  0.9365406992870079  0.7023605624299663  1.0000
  H   H15       1.0  0.1994335581697867  0.8534898043865836  0.6421219771422173  1.0000
  H   H16       1.0  0.0633974402537092  0.7694879302326569  0.7022787796309373  1.0000
  H   H17       1.0  0.14653232732925398  0.3459022618155102  0.6421372161583605  1.0000
  H   H18       1.0  0.23068605706696133  0.294096430870205  0.7023286679105213  1.0000
  H   H19       1.0  0.34577538107269845  0.19927958333741452  0.6420570818910888  1.0000
  H   H20       1.0  0.2940069717252243  0.06349991699600815  0.7023757631257084  1.0000
  H   H21       1.0  0.8007747602469594  0.14648713324475426  0.6420786458366337  1.0000
  H   H22       1.0  0.9366250659679809  0.2306404984311072  0.7023897296331825  1.0000
  H   H23       1.0  0.8534722656218392  0.6542169232749515  0.642088452264268  1.0000
  H   H24       1.0  0.7693184428519902  0.7058876435336003  0.7023844411705014  1.0000
  H   H25       1.0  0.14649480257963177  0.8006496222719193  0.14208302052093558  1.0000
  H   H26       1.0  0.2304693968581688  0.936518072579787  0.2023374669720397  1.0000
  H   H27       1.0  0.6541985190324693  0.8534759385634627  0.14213309595677262  1.0000
  H   H28       1.0  0.7060221809010584  0.7693921538402858  0.2024073691562904  1.0000
  H   H29       1.0  0.1993286669105245  0.3457917207618735  0.1421260003049909  1.0000
  H   H30       1.0  0.06342399571111904  0.29408260765505634  0.2023886206226209  1.0000
  H   H31       1.0  0.8534648997664009  0.19933204081608108  0.14209511298429328  1.0000
  H   H32       1.0  0.7694889491326792  0.06343574598925246  0.20232138688707116  1.0000
  H   H33       1.0  0.3458517059345851  0.14654449337896833  0.1421195780951976  1.0000
  H   H34       1.0  0.2940031549188263  0.2306473202102524  0.20235474042454626  1.0000
  H   H35       1.0  0.8006162252547783  0.6540994379139206  0.1421352243596132  1.0000
  H   H36       1.0  0.9365985069032589  0.705941103520615  0.2023521049053514  1.0000
  H   H37       1.0  0.34574016164157945  0.1992256886429402  0.3579013257198298  1.0000
  H   H38       1.0  0.29402929300872677  0.0634206487530662  0.2975804356938596  1.0000
  H   H39       1.0  0.8007927407631287  0.1464873781481729  0.3578850110170038  1.0000
  H   H40       1.0  0.9366490439473979  0.23063191108521855  0.2975944024966211  1.0000
  H   H41       1.0  0.8534874492226905  0.6542290408780502  0.3579009271154661  1.0000
  H   H42       1.0  0.769281791443035  0.7058780712254628  0.29762332688290627  1.0000
  H   H43       1.0  0.6541955221447254  0.8007596634395282  0.3579156861685391  1.0000
  H   H44       1.0  0.7059674174241268  0.936575995610582  0.297625720710684  1.0000
  H   H45       1.0  0.19924398995809153  0.8534591367336121  0.3578867913846366  1.0000
  H   H46       1.0  0.06334451257042416  0.769343124973858  0.2976123647244506  1.0000
  H   H47       1.0  0.1465672562381498  0.34583879901525444  0.35787393099776205  1.0000
  H   H48       1.0  0.23076148281047892  0.2941190452304809  0.297645760471802  1.0000
  C   C1        1.0  0.11830757131220092  0.6590193833523088  0.3663839793897666  1.0000
  C   C2        1.0  0.8518331754247797  0.2265660654585842  0.68212246628147  1.0000
  C   C3        1.0  0.5406953656348107  0.8817385572883935  0.3664088254725044  1.0000
  C   C4        1.0  0.3747360406817606  0.14819296471966942  0.6821237323818677  1.0000
  C   C5        1.0  0.34106730267727403  0.45932992421484886  0.3663934103786772  1.0000
  C   C6        1.0  0.7733655668664525  0.6251816390554623  0.6821385516259468  1.0000
  C   C7        1.0  0.8816875797374735  0.3409201941708132  0.3664057634854245  1.0000
  C   C8        1.0  0.14816206568649182  0.7734057479112761  0.6821285834936218  1.0000
  C   C9        1.0  0.45928333667195187  0.11828731373788051  0.3664077999797826  1.0000
  C   C10       1.0  0.6252012871971003  0.8518229450611441  0.6821743608270268  1.0000
  C   C11       1.0  0.6589962568805349  0.5407031896033061  0.3663993892998363  1.0000
  C   C12       1.0  0.226670693948769  0.37485123884005117  0.6821534342896172  1.0000
  C   C13       1.0  0.4592766049529118  0.34097464895694424  0.1335999413609628  1.0000
  C   C14       1.0  0.6252444548300533  0.773393574423551  0.817883210266686  1.0000
  C   C15       1.0  0.6589914604204594  0.1182560444162418  0.13359469174305616  1.0000
  C   C16       1.0  0.22657318822933079  0.8519315179930657  0.8178355777856439  1.0000
  C   C17       1.0  0.8817346880119458  0.5406778174537475  0.1336247057048112  1.0000
  C   C18       1.0  0.14814363060668972  0.37476350227339583  0.8178460466642221  1.0000
  C   C19       1.0  0.540757355939597  0.6590306505765468  0.1336097410247277  1.0000
  C   C20       1.0  0.37478504786973593  0.2266731627185052  0.8178410931389664  1.0000
  C   C21       1.0  0.3409713754219086  0.8817274680758729  0.1335844404123705  1.0000
  C   C22       1.0  0.7733987975566095  0.14812360071782385  0.8178422905441138  1.0000
  C   C23       1.0  0.1182967162328126  0.4592853236757577  0.13360636039643484  1.0000
  C   C24       1.0  0.8518828923197646  0.6251769301183783  0.8178220470291181  1.0000
  C   C25       1.0  0.8816600738352633  0.34091995472596176  0.6335826785368681  1.0000
  C   C26       1.0  0.1481327570214149  0.7733779693434498  0.3178515232544115  1.0000
  C   C27       1.0  0.4592505023153138  0.11827521203011308  0.6335816600152882  1.0000
  C   C28       1.0  0.6252395747140016  0.8518648768918595  0.31786369912199314  1.0000
  C   C29       1.0  0.658984711358805  0.5407201134680475  0.6336092971380722  1.0000
  C   C30       1.0  0.22670844564007092  0.3748429492623514  0.3178519369308361  1.0000
  C   C31       1.0  0.11830351636725571  0.6590292116763904  0.633608550644837  1.0000
  C   C32       1.0  0.8518565731570149  0.2265744466027825  0.3178521280827766  1.0000
  C   C33       1.0  0.540650296479441  0.8816919271826362  0.633626674889939  1.0000
  C   C34       1.0  0.3747379644016747  0.14815097404919436  0.3178436179826321  1.0000
  C   C35       1.0  0.34103918586666276  0.4593410234752822  0.6336228688245953  1.0000
  C   C36       1.0  0.7733581699498869  0.6251807592405566  0.3178590481247028  1.0000
  C   C37       1.0  0.5407535211391375  0.6590669138062706  0.8664443115263154  1.0000
  C   C38       1.0  0.37478331228879114  0.22663638791572532  0.1821439353797629  1.0000
  C   C39       1.0  0.3409638015701758  0.8817718849483069  0.8664061804978402  1.0000
  C   C40       1.0  0.7734141625441424  0.14813826614820855  0.1821384127123054  1.0000
  C   C41       1.0  0.11826920241573906  0.4592579315540348  0.8664164913317691  1.0000
  C   C42       1.0  0.8518296318784805  0.6251705143281255  0.18216337923347942  1.0000
  C   C43       1.0  0.45929761514921114  0.34101043718683133  0.8663874678049623  1.0000
  C   C44       1.0  0.6252479126976594  0.7733841625380292  0.1821567261985493  1.0000
  C   C45       1.0  0.6589791256259618  0.11824501913479674  0.8663852720760019  1.0000
  C   C46       1.0  0.2265433934932092  0.8518275505224437  0.1821274216704651  1.0000
  C   C47       1.0  0.8817328138474494  0.5406599582987467  0.8663853487600477  1.0000
  C   C48       1.0  0.14819997279374758  0.3748069907756316  0.1821598880181057  1.0000
  O   O1        1.0  0.17677987304526244  0.6050312383742451  0.3509624658546996  1.0000
  O   O2        1.0  0.03581574576516992  0.6299204493856222  0.4202455962335563  1.0000
  O   O3        1.0  0.42824475968387776  0.8232138162100568  0.3509441522352077  1.0000
  O   O4        1.0  0.5940647317510825  0.9641815989839202  0.4202832232797604  1.0000
  O   O5        1.0  0.39494695641180744  0.5717385129001328  0.3509723912121032  1.0000
  O   O6        1.0  0.3701279062494933  0.40592869590105346  0.420277738644792  1.0000
  O   O7        1.0  0.8231981878919469  0.39490030513919533  0.3509947061529743  1.0000
  O   O8        1.0  0.9641886492401213  0.37002751434059167  0.4202580509344287  1.0000
  O   O9        1.0  0.5717360738179451  0.1768042614454544  0.35096169872254984  1.0000
  O   O10       1.0  0.4058910145385184  0.0358447279528704  0.42028029802250433  1.0000
  O   O11       1.0  0.605097024513654  0.42829507324485405  0.3509743962442258  1.0000
  O   O12       1.0  0.6299558366587946  0.5941147390821299  0.42028884059272537  1.0000
  O   O13       1.0  0.5717391389921432  0.3949624633804163  0.1490157208888192  1.0000
  O   O14       1.0  0.40590096500933737  0.3700918328892228  0.07973999995086699  1.0000
  O   O15       1.0  0.6050621190104765  0.17679387556409404  0.1490157182066199  1.0000
  O   O16       1.0  0.6298836550628479  0.035784016593382165  0.0797391965416949  1.0000
  O   O17       1.0  0.823260160733753  0.42826821220735667  0.1490505039837871  1.0000
  O   O18       1.0  0.9642085917760358  0.5940989968978272  0.0797491242752884  1.0000
  O   O19       1.0  0.42829442941898316  0.6050643559698867  0.149018589397798  1.0000
  O   O20       1.0  0.5941779982657778  0.6299244089492149  0.079773497607043  1.0000
  O   O21       1.0  0.39491187442496334  0.8232017530702365  0.1490075931093244  1.0000
  O   O22       1.0  0.37006072716000216  0.9641982961323733  0.0797321408231539  1.0000
  O   O23       1.0  0.17679161687925674  0.5717044645378165  0.1490198537313674  1.0000
  O   O24       1.0  0.03580995916866667  0.4058438048627053  0.0797429876593796  1.0000
  O   O25       1.0  0.823169168615152  0.3949011260294027  0.6489883064025861  1.0000
  O   O26       1.0  0.9641672256104385  0.37002896670583835  0.5797375582655775  1.0000
  O   O27       1.0  0.5717078294445769  0.1768012729979062  0.6490249494875187  1.0000
  O   O28       1.0  0.4058517148077386  0.03579854961175498  0.5797304782275248  1.0000
  O   O29       1.0  0.6050874023958882  0.4283128760718709  0.6490339817084702  1.0000
  O   O30       1.0  0.6299220870330727  0.5941294047656523  0.5797335224249024  1.0000
  O   O31       1.0  0.17674270226047636  0.6050136465692049  0.6490446564068931  1.0000
  O   O32       1.0  0.0358168434882487  0.6299374621903838  0.5797397674190137  1.0000
  O   O33       1.0  0.42819885233492994  0.8232075736329918  0.6490972150715847  1.0000
  O   O34       1.0  0.5940210213367652  0.9641088537720606  0.5797401239475591  1.0000
  O   O35       1.0  0.39494903169990897  0.571740623187644  0.6490808544475185  1.0000
  O   O36       1.0  0.3700852612606767  0.4059517876302081  0.5797211983583992  1.0000
  O   O37       1.0  0.42828679775812634  0.6051015143665737  0.8510431952460707  1.0000
  O   O38       1.0  0.5941547939147327  0.6299546571436564  0.9202914232030537  1.0000
  O   O39       1.0  0.3948471383862893  0.8231853965601345  0.8510089805765944  1.0000
  O   O40       1.0  0.37007975698291773  0.9642623259029718  0.9202506785095396  1.0000
  O   O41       1.0  0.17677733919151015  0.5716787429107272  0.8510187984801405  1.0000
  O   O42       1.0  0.03579277931223857  0.4058222289745999  0.9202865739245568  1.0000
  O   O43       1.0  0.5717593097697248  0.3949901967408707  0.8509670110330916  1.0000
  O   O44       1.0  0.4059014962522627  0.37011035864243524  0.9202444847389373  1.0000
  O   O45       1.0  0.605050047585415  0.1767814370956627  0.850962119687857  1.0000
  O   O46       1.0  0.6298847717623274  0.03577278030306976  0.9202400154194095  1.0000
  O   O47       1.0  0.8232505851639333  0.42825187294479145  0.8509461950502555  1.0000
  O   O48       1.0  0.9641759438192634  0.5940782379675509  0.9202829346674193  1.0000
  O   O49       1.0  0.7787555930177846  0.2209805372258059  0.7499493183377268  1.0000
  O   O50       1.0  0.44227835559703976  0.22123823738679232  0.7499517502388783  1.0000
  O   O51       1.0  0.7789273825864811  0.5576389425628463  0.7499499313449007  1.0000
  O   O52       1.0  0.22098728628466788  0.778782879930439  0.7500603458519206  1.0000
  O   O53       1.0  0.5576972783990114  0.7789441964166739  0.7500676964825529  1.0000
  O   O54       1.0  0.22122174921184984  0.4423484030895537  0.7500353044856851  1.0000
  O   O55       1.0  0.22114996402881798  0.7789176928803768  0.24999656501258732  1.0000
  O   O56       1.0  0.5577121676998756  0.7788669727071137  0.2500106320439741  1.0000
  O   O57       1.0  0.22122348551127402  0.44236818623046054  0.2500002349857979  1.0000
  O   O58       1.0  0.7787821958876721  0.22101826987042  0.2500254459204001  1.0000
  O   O59       1.0  0.4423034375548056  0.22118978824626365  0.2500187129324019  1.0000
  O   O60       1.0  0.7788928330941687  0.557634680468098  0.2500382767174044  1.0000
