data_image0
_chemical_formula_structural       Gd4H12C4S4O28
_chemical_formula_sum              "Gd4 H12 C4 S4 O28"
_cell_length_a       6.8750476307486394
_cell_length_b       6.875471223748019
_cell_length_c       11.524096167002645
_cell_angle_alpha    90.00003046400866
_cell_angle_beta     90.00007150273134
_cell_angle_gamma    90.00168981585558

_space_group_name_H-M_alt    "P 1"
_space_group_IT_number       1

loop_
  _space_group_symop_operation_xyz
  'x, y, z'

loop_
  _atom_site_type_symbol
  _atom_site_label
  _atom_site_symmetry_multiplicity
  _atom_site_fract_x
  _atom_site_fract_y
  _atom_site_fract_z
  _atom_site_occupancy
  Gd  Gd1       1.0  0.12335683905065051  0.6176570309796361  0.2101311576577842  1.0000
  Gd  Gd2       1.0  0.8766417636149769  0.38234194186939163  0.7101306988304258  1.0000
  Gd  Gd3       1.0  0.3824476533081692  0.12349265044016282  0.46009871758644044  1.0000
  Gd  Gd4       1.0  0.6175529270263526  0.8765065431222825  0.96009995967448  1.0000
  H   H1        1.0  0.6279164047607961  0.5263718367564891  0.2522526384312798  1.0000
  H   H2        1.0  0.37208374065779276  0.4736315366400916  0.7522535688455677  1.0000
  H   H3        1.0  0.4737330549369646  0.6282245107893802  0.5021889011143301  1.0000
  H   H4        1.0  0.5262665670419935  0.37177136960251306  0.0021904487938471003  1.0000
  H   H5        1.0  0.9576650896934281  0.8905103463169796  0.3898818340587624  1.0000
  H   H6        1.0  0.0423353437120539  0.109490239697891  0.8898824024837282  1.0000
  H   H7        1.0  0.1095718525226701  0.9575900814989922  0.6397683713981978  1.0000
  H   H8        1.0  0.8904280574245648  0.04240882925020631  0.1397692168703131  1.0000
  H   H9        1.0  0.9005700266036457  0.677692109915384  0.43189288251851815  1.0000
  H   H10       1.0  0.09943049472170881  0.3223085131898458  0.9318926938296173  1.0000
  H   H11       1.0  0.32241757733667953  0.9003360716689741  0.6817014479749659  1.0000
  H   H12       1.0  0.677582420367891  0.0996628761020162  0.1817021533842791  1.0000
  C   C1        1.0  0.6253402308618661  0.6175538780188177  0.17379964483298954  1.0000
  C   C2        1.0  0.37465975036947435  0.38244942611282806  0.6737996802209595  1.0000
  C   C3        1.0  0.3825233873600524  0.6258131147837532  0.42373672729917183  1.0000
  C   C4        1.0  0.6174756622566167  0.37418022887163  0.9237395439810356  1.0000
  S   S1        1.0  0.11234687885561101  0.7262839108594434  0.9029534005048206  1.0000
  S   S2        1.0  0.8876521273906518  0.2737181411197582  0.4029525824818876  1.0000
  S   S3        1.0  0.27358101561882353  0.11255929535393963  0.1527930134624782  1.0000
  S   S4        1.0  0.7264203761427906  0.8874410813614801  0.6527934723211999  1.0000
  O   O1        1.0  0.11529381628727722  0.5960510297865724  0.005151084582586  1.0000
  O   O2        1.0  0.8847058119746549  0.4039506710027467  0.5051506386745929  1.0000
  O   O3        1.0  0.4037897235815536  0.11584830763894163  0.25504056045686246  1.0000
  O   O4        1.0  0.5962104276066427  0.8841507048814846  0.7550409213630758  1.0000
  O   O5        1.0  0.0708253576721631  0.6110678768237108  0.7983447289744704  1.0000
  O   O6        1.0  0.9291734296063935  0.38893117390714593  0.298343978742473  1.0000
  O   O7        1.0  0.38895403870920825  0.07095216577392452  0.04826858355578171  1.0000
  O   O8        1.0  0.6110456797469296  0.9290466641917875  0.5482689698779027  1.0000
  O   O9        1.0  0.30215638472109413  0.8201246336399707  0.8859560577091586  1.0000
  O   O10       1.0  0.6978425859109834  0.1798744944413997  0.3859559361326745  1.0000
  O   O11       1.0  0.17954517351600432  0.30219872128260766  0.1356411214202211  1.0000
  O   O12       1.0  0.8204561823492541  0.6978016402893845  0.6356407217892085  1.0000
  O   O13       1.0  0.9579912901797413  0.879077186337547  0.9185497566460938  1.0000
  O   O14       1.0  0.04200774872911241  0.1209263338575823  0.4185499958817118  1.0000
  O   O15       1.0  0.1209181968033377  0.9580670989208783  0.1684012575049749  1.0000
  O   O16       1.0  0.87908177306619  0.04193183710746241  0.668401559241076  1.0000
  O   O17       1.0  0.4619370078669006  0.6704845491345779  0.1309424353947151  1.0000
  O   O18       1.0  0.538061429116219  0.32951726269215686  0.6309425754349293  1.0000
  O   O19       1.0  0.3295438460766462  0.4624984175898845  0.3807649817222868  1.0000
  O   O20       1.0  0.6704580227645708  0.5375007059522332  0.8807670223785635  1.0000
  O   O21       1.0  0.78453830977017  0.6641086495199744  0.1257464853105219  1.0000
  O   O22       1.0  0.21546157087490767  0.3358931577410829  0.6257472550664573  1.0000
  O   O23       1.0  0.33603146357972247  0.7851222161104732  0.3758049938749153  1.0000
  O   O24       1.0  0.6639674857889163  0.2148754485638733  0.8758069263982193  1.0000
  O   O25       1.0  0.926672765518205  0.7572710098755379  0.3629148273436016  1.0000
  O   O26       1.0  0.0733276114713775  0.2427310067761326  0.8629145937486769  1.0000
  O   O27       1.0  0.2427908076320335  0.926583249983999  0.6127710710063782  1.0000
  O   O28       1.0  0.7572105003711231  0.07341709139662811  0.1127709595217183  1.0000
