data_image0
_chemical_formula_structural       Cd3H16C22S6N30
_chemical_formula_sum              "Cd3 H16 C22 S6 N30"
_cell_length_a       6.9793876734815
_cell_length_b       10.60646263245336
_cell_length_c       13.803735334939718
_cell_angle_alpha    88.31843542838105
_cell_angle_beta     80.9486411396184
_cell_angle_gamma    81.18722398980859

_space_group_name_H-M_alt    "P 1"
_space_group_IT_number       1

loop_
  _space_group_symop_operation_xyz
  'x, y, z'

loop_
  _atom_site_type_symbol
  _atom_site_label
  _atom_site_symmetry_multiplicity
  _atom_site_fract_x
  _atom_site_fract_y
  _atom_site_fract_z
  _atom_site_occupancy
  Cd  Cd1       1.0  0.7441753999138216  0.37527979056095256  0.4094731566082642  1.0000
  Cd  Cd2       1.0  0.255803022880258  0.6247315144182294  0.5905300958988845  1.0000
  Cd  Cd3       1.0  8.106842913600017e-07  0.999999377810191  1.589222619863659e-08  1.0000
  H   H1        1.0  0.5684779098695857  0.27709541288933787  0.6544560417206569  1.0000
  H   H2        1.0  0.4315213801795893  0.7229061098926977  0.3455436610537035  1.0000
  H   H3        1.0  0.16255758848297575  0.09571150091925057  0.5300140344961193  1.0000
  H   H4        1.0  0.8374381124675736  0.9042862717665161  0.4699875074152615  1.0000
  H   H5        1.0  0.0985902962724126  0.21811141494639946  0.8004667425438186  1.0000
  H   H6        1.0  0.901409373046718  0.7818882290676613  0.19953588112290532  1.0000
  H   H7        1.0  0.5105219079849802  0.915944945521204  0.6599497903968371  1.0000
  H   H8        1.0  0.4894800908549117  0.0840575116850317  0.3400511203631425  1.0000
  H   H9        1.0  0.6593843453323984  0.36035379334454376  0.04078159416003759  1.0000
  H   H10       1.0  0.34061805954036833  0.6396467124164502  0.9592149927981597  1.0000
  H   H11       1.0  0.28465582555805474  0.33206318271548707  0.3122386874659924  1.0000
  H   H12       1.0  0.7153469666135523  0.6679354224743433  0.68775864697632  1.0000
  H   H13       1.0  0.3279762136977241  0.10222309102722704  0.1233410382556741  1.0000
  H   H14       1.0  0.6720333609682357  0.8977707055748991  0.8766587927093424  1.0000
  H   H15       1.0  0.14291944550517152  0.4935922189228703  0.06133690014790011  1.0000
  H   H16       1.0  0.8570812014280662  0.506402648226242  0.9386650565861602  1.0000
  C   C1        1.0  0.48688229123526133  0.24734491256100444  0.6003659086994588  1.0000
  C   C2        1.0  0.5131155442484782  0.7526566272363836  0.39963390879782423  1.0000
  C   C3        1.0  0.2763127657601032  0.15356147307876  0.5352024634917002  1.0000
  C   C4        1.0  0.723689625731197  0.8464390690208676  0.4647977458135699  1.0000
  C   C5        1.0  0.19059842173121672  0.12612389774305643  0.7882280975430902  1.0000
  C   C6        1.0  0.8094023148545092  0.8738776298268147  0.21177366391658844  1.0000
  C   C7        1.0  0.4042887038240795  0.9689308368769647  0.7159062357417554  1.0000
  C   C8        1.0  0.595713690343523  0.031069697954940488  0.2840932490940986  1.0000
  C   C9        1.0  0.6062815228454568  0.3650902361748506  0.1190117804199744  1.0000
  C   C10       1.0  0.39371961174427383  0.6349093617529532  0.8809878306461628  1.0000
  C   C11       1.0  0.4095613681835105  0.3505984767767174  0.2592956317676709  1.0000
  C   C12       1.0  0.5904445307828041  0.6493991331952458  0.7407007602667195  1.0000
  C   C13       1.0  0.24716924557858996  0.18803285476019477  0.09609020252744223  1.0000
  C   C14       1.0  0.7528285952577395  0.8119686705017345  0.903908166031016  1.0000
  C   C15       1.0  0.15258532763840554  0.3902978062601504  0.0620668328238807  1.0000
  C   C16       1.0  0.8474183207544785  0.6097036800113003  0.9379339747205224  1.0000
  C   C17       1.0  0.33939322199273675  0.8037250479981067  0.10205177951498004  1.0000
  C   C18       1.0  0.6606183948776376  0.19626586256260484  0.8979472467797506  1.0000
  C   C19       1.0  0.03529214049750351  0.09495137236483228  0.3569883111195438  1.0000
  C   C20       1.0  0.9646878265144994  0.9050665760197629  0.6430146313902867  1.0000
  C   C21       1.0  0.08565193130313993  0.5606447815085289  0.38791807376681225  1.0000
  C   C22       1.0  0.914348531347706  0.43935101048911906  0.6120809735822377  1.0000
  S   S1        1.0  0.4464450371526641  0.6780898669532148  0.15276717304771384  1.0000
  S   S2        1.0  0.5535595915306147  0.3219068351855583  0.8472322430946164  1.0000
  S   S3        1.0  0.145486729937936  0.9497741420844645  0.34218517707373763  1.0000
  S   S4        1.0  0.8545069345359554  0.0502407332618588  0.6578109716964775  1.0000
  S   S5        1.0  0.9441184633463493  0.5453269968542146  0.30667469004237097  1.0000
  S   S6        1.0  0.05588597302566004  0.45467065193627576  0.6933239901231971  1.0000
  N   N1        1.0  0.490849778558328  0.2839098435705268  0.508215185563941  1.0000
  N   N2        1.0  0.5091438855403965  0.7160908006211884  0.4917857120789009  1.0000
  N   N3        1.0  0.3592551628810128  0.22488480183985618  0.4668334004543837  1.0000
  N   N4        1.0  0.6407419926349721  0.7751129538305576  0.5331680267340673  1.0000
  N   N5        1.0  0.3526922400748874  0.16476110144020592  0.6200755249319343  1.0000
  N   N6        1.0  0.6473059800313978  0.8352385450537483  0.3799257645188874  1.0000
  N   N7        1.0  0.3188418851474496  0.09319602367813222  0.7038484575118391  1.0000
  N   N8        1.0  0.6811575945367069  0.9068045597199157  0.2961527057086997  1.0000
  N   N9        1.0  0.2007015117372077  0.027393355624724298  0.8477845681603428  1.0000
  N   N10       1.0  0.7992994198360823  0.9726072180257078  0.15221720480668208  1.0000
  N   N11       1.0  0.33474223039538503  0.9281417575085483  0.8028010634245251  1.0000
  N   N12       1.0  0.6652590938293204  0.07185690103526811  0.1972000080877905  1.0000
  N   N13       1.0  0.7014167653691816  0.38933293663685475  0.1891180338203711  1.0000
  N   N14       1.0  0.298587671002828  0.6106647121536353  0.810880646345197  1.0000
  N   N15       1.0  0.577478362230174  0.379803646526966  0.2769396638191921  1.0000
  N   N16       1.0  0.4225229780522923  0.6201949684104805  0.7230570608766343  1.0000
  N   N17       1.0  0.4220249856049848  0.3418641271687548  0.15985228046704242  1.0000
  N   N18       1.0  0.5779792504268714  0.658134490076634  0.8401478371300044  1.0000
  N   N19       1.0  0.28084879577171773  0.30941270179262403  0.1103124531446937  1.0000
  N   N20       1.0  0.719157677452124  0.6905820754919105  0.8896868712894133  1.0000
  N   N21       1.0  0.10507533828302235  0.19531425165464367  0.043283650597274494  1.0000
  N   N22       1.0  0.8949338383789399  0.8046814745895504  0.9567183307612838  1.0000
  N   N23       1.0  0.04597321118296803  0.3222534749121663  0.020814391784547602  1.0000
  N   N24       1.0  0.9540261842012827  0.6777404335296637  0.9791855177715549  1.0000
  N   N25       1.0  0.26480572333993285  0.8949886693596197  0.062385369762630205  1.0000
  N   N26       1.0  0.7351939620369522  0.1050109310480778  0.9376129070875977  1.0000
  N   N27       1.0  0.9571500624066831  0.20211889939929512  0.3685515839715521  1.0000
  N   N28       1.0  0.042831269518259815  0.797892371549196  0.6314514390897444  1.0000
  N   N29       1.0  0.19572535224524767  0.5669676455307451  0.44392536106251873  1.0000
  N   N30       1.0  0.8042678322258681  0.43302824607909685  0.5560757088400052  1.0000
