data_image0
_chemical_formula_structural       Co2H32C24N4O18
_chemical_formula_sum              "Co2 H32 C24 N4 O18"
_cell_length_a       6.36036002781286
_cell_length_b       7.626813854397304
_cell_length_c       16.380725895101932
_cell_angle_alpha    105.52506669397319
_cell_angle_beta     90.71460893133758
_cell_angle_gamma    88.79112824858402

_space_group_name_H-M_alt    "P 1"
_space_group_IT_number       1

loop_
  _space_group_symop_operation_xyz
  'x, y, z'

loop_
  _atom_site_type_symbol
  _atom_site_label
  _atom_site_symmetry_multiplicity
  _atom_site_fract_x
  _atom_site_fract_y
  _atom_site_fract_z
  _atom_site_occupancy
  Co  Co1       1.0  0.9999948725211995  0.4999991956260956  3.704597233233431e-07  1.0000
  Co  Co2       1.0  0.9999938136488354  5.869116115798145e-06  8.393621584000367e-07  1.0000
  H   H1        1.0  0.4599684361314119  0.20457597828687568  0.7864923336094449  1.0000
  H   H2        1.0  0.45171517218956586  0.2880360983770771  0.2094391117859331  1.0000
  H   H3        1.0  0.5400335250647998  0.7954254607975032  0.21351165162415242  1.0000
  H   H4        1.0  0.5482755823031553  0.7119707641648175  0.7905557396058142  1.0000
  H   H5        1.0  0.2048927054905221  0.2114529807115773  0.740789276059793  1.0000
  H   H6        1.0  0.1970789685172321  0.29193301614435546  0.2549680270473473  1.0000
  H   H7        1.0  0.7950983764728151  0.7885376768767999  0.2592145838930904  1.0000
  H   H8        1.0  0.8029214436623775  0.7080643391425101  0.7450342339253098  1.0000
  H   H9        1.0  0.585273518953187  0.3284716352053039  0.6850801116330487  1.0000
  H   H10       1.0  0.5810958708628818  0.16091267434350706  0.3113310562555042  1.0000
  H   H11       1.0  0.414717338400358  0.6715366797478168  0.31492285398601877  1.0000
  H   H12       1.0  0.41893404652517324  0.8391033436351665  0.6886613528875428  1.0000
  H   H13       1.0  0.7475170241770498  0.4333642936916108  0.607633472179117  1.0000
  H   H14       1.0  0.7432722453297631  0.07842393945740161  0.3973688341148076  1.0000
  H   H15       1.0  0.252467566536474  0.5666399769568855  0.39236776179219385  1.0000
  H   H16       1.0  0.2567610665082185  0.921582645026554  0.6026328088857297  1.0000
  H   H17       1.0  0.11831339200299602  0.5171208907887888  0.5243649656010447  1.0000
  H   H18       1.0  0.1190161391349136  0.9790225439033052  0.4712375585553019  1.0000
  H   H19       1.0  0.8816743998177331  0.4828751666418611  0.47563344107269495  1.0000
  H   H20       1.0  0.881021919423816  0.020975793095374198  0.52875942548426  1.0000
  H   H21       1.0  0.22003845208698894  0.7963123889270707  0.053666192700468726  1.0000
  H   H22       1.0  0.21934295930608275  0.7109771319822045  0.9449295925352033  1.0000
  H   H23       1.0  0.7799540517843512  0.2036877400412465  0.946335165909197  1.0000
  H   H24       1.0  0.7806463815312557  0.28902300924595886  0.0550705383994767  1.0000
  H   H25       1.0  0.21193312220064803  0.3422318254937125  0.09740962533062  1.0000
  H   H26       1.0  0.2239329242453323  0.14438719331984373  0.8973825185215744  1.0000
  H   H27       1.0  0.7880578001536876  0.6577683096045277  0.9025911194415528  1.0000
  H   H28       1.0  0.7760596024272955  0.8556115817184919  0.10261928511391011  1.0000
  H   H29       1.0  0.20870517463863794  0.5574792035260357  0.1411954121412933  1.0000
  H   H30       1.0  0.2006544306476314  0.9330477202369706  0.8544045919300485  1.0000
  H   H31       1.0  0.7912873699857245  0.44251958558104587  0.8588076142446397  1.0000
  H   H32       1.0  0.7993301974158415  0.0669510924853611  0.14559475389318516  1.0000
  C   C1        1.0  0.34325559257128196  0.29348471852002683  0.7664832164397382  1.0000
  C   C2        1.0  0.3351657965289051  0.20482639627019245  0.2303505088096642  1.0000
  C   C3        1.0  0.6567337531156099  0.7065140547094018  0.2335161367703051  1.0000
  C   C4        1.0  0.6648392621904408  0.7951681202169495  0.7696447017235357  1.0000
  C   C5        1.0  0.41675791134699125  0.4682732394981245  0.573960529397965  1.0000
  C   C6        1.0  0.4147432499973434  0.0357043187225656  0.4260172244647507  1.0000
  C   C7        1.0  0.5832188981668693  0.5317284172494042  0.42604402781451256  1.0000
  C   C8        1.0  0.5852869167583634  0.9643022920899826  0.5739844136112423  1.0000
  C   C9        1.0  0.6349008802046185  0.46074056911625416  0.5615270801552796  1.0000
  C   C10       1.0  0.6324235393152547  0.0452157844259204  0.4411165046443059  1.0000
  C   C11       1.0  0.36507906686214403  0.5392555682046379  0.43847253695754757  1.0000
  C   C12       1.0  0.3676128499243917  0.9547920924875443  0.5588816413788393  1.0000
  C   C13       1.0  0.3098153028567197  0.4298247083542747  0.6483030940392283  1.0000
  C   C14       1.0  0.3053101815473127  0.07668778644461581  0.3511569266034655  1.0000
  C   C15       1.0  0.6901443547013458  0.5701511434309268  0.35169032757161733  1.0000
  C   C16       1.0  0.6947513089225622  0.9233239486643897  0.6488405351137984  1.0000
  C   C17       1.0  0.2714180710571625  0.43537513293478725  0.8460699365112345  1.0000
  C   C18       1.0  0.26200493749142595  0.060085582445374514  0.15219674551217105  1.0000
  C   C19       1.0  0.7285712697801757  0.564625008293376  0.15393019442344516  1.0000
  C   C20       1.0  0.7379922757507061  0.9399117569638379  0.8478018422846034  1.0000
  C   C21       1.0  0.2856769530190065  0.5086601939143166  0.511999762736572  1.0000
  C   C22       1.0  0.28610652783110885  0.9892100709544354  0.48542221361884696  1.0000
  C   C23       1.0  0.7143046163177758  0.491334597415417  0.4880021359900156  1.0000
  C   C24       1.0  0.7139346219546994  0.010788197509405998  0.5145711070939213  1.0000
  N   N1        1.0  0.4342544078106059  0.36375243124896184  0.7018074241834782  1.0000
  N   N2        1.0  0.4274472172970008  0.13603856201857667  0.2967251104668733  1.0000
  N   N3        1.0  0.5657365055678697  0.6362476968149056  0.298192709213474  1.0000
  N   N4        1.0  0.5725686335763882  0.8639735267175868  0.7032698343436294  1.0000
  O   O1        1.0  0.22622399868799903  0.46597236568117495  0.0873179094171377  1.0000
  O   O2        1.0  0.24179939802758815  0.0206134017445834  0.9068971532992478  1.0000
  O   O3        1.0  0.7737700956762126  0.5340277641915919  0.9126846744052486  1.0000
  O   O4        1.0  0.7581899794364447  0.9793840245892442  0.0931032563118421  1.0000
  O   O5        1.0  0.182895028306298  0.3644451870276201  0.899873405682605  1.0000
  O   O6        1.0  0.1678229165529643  0.1291772258646162  0.09702087409833379  1.0000
  O   O7        1.0  0.8171022014410808  0.6355576525140095  0.10013073851358463  1.0000
  O   O8        1.0  0.832171128082365  0.8708242368350056  0.9029794305725715  1.0000
  O   O9        1.0  0.29815050744325333  0.6026744339670601  0.8560668990503472  1.0000
  O   O10       1.0  0.2905726318135962  0.8930212697250896  0.14431863348174553  1.0000
  O   O11       1.0  0.7018372739551141  0.39732710249288067  0.1439352298971386  1.0000
  O   O12       1.0  0.7094277713901392  0.1069760785273957  0.8556830161156908  1.0000
  O   O13       1.0  0.11713132757837741  0.4534412018470704  0.6597981423398166  1.0000
  O   O14       1.0  0.11217195727013521  0.05945355338353409  0.33985218945973367  1.0000
  O   O15       1.0  0.882853579163232  0.5465221624926643  0.3401913760218136  1.0000
  O   O16       1.0  0.8878408865620245  0.9405627852617827  0.6601554769789145  1.0000
  O   O17       1.0  0.1306369587031568  0.7581964960517454  0.9990599591006911  1.0000
  O   O18       1.0  0.86935560459618  0.24179956409226125  0.0009421232112032138  1.0000
