data_image0
_chemical_formula_structural       Zn8H32C20N32O8
_chemical_formula_sum              "Zn8 H32 C20 N32 O8"
_cell_length_a       6.86229397500619
_cell_length_b       10.09708121300648
_cell_length_c       13.933599981003836
_cell_angle_alpha    90.00002389242245
_cell_angle_beta     90.00008253405738
_cell_angle_gamma    90.00012846141188

_space_group_name_H-M_alt    "P 1"
_space_group_IT_number       1

loop_
  _space_group_symop_operation_xyz
  'x, y, z'

loop_
  _atom_site_type_symbol
  _atom_site_label
  _atom_site_symmetry_multiplicity
  _atom_site_fract_x
  _atom_site_fract_y
  _atom_site_fract_z
  _atom_site_occupancy
  Zn  Zn1       1.0  0.9690160927231587  0.6277724416439767  0.6284489420576876  1.0000
  Zn  Zn2       1.0  0.46901486353582555  0.37222882833762566  0.3715495734215396  1.0000
  Zn  Zn3       1.0  0.4690151860015491  0.12777317843995922  0.8715509724817  1.0000
  Zn  Zn4       1.0  0.9690157702632193  0.8722290819276922  0.12845041375613425  1.0000
  Zn  Zn5       1.0  0.9657936756804588  0.13423780273470237  0.8679174891366731  1.0000
  Zn  Zn6       1.0  0.465793371279169  0.8657644526907691  0.13208389478972293  1.0000
  Zn  Zn7       1.0  0.4657951721656275  0.6342382818426628  0.6320831427385871  1.0000
  Zn  Zn8       1.0  0.9657933320295344  0.3657639735833058  0.3679160881194862  1.0000
  H   H1        1.0  0.7551872863110346  0.04117405793111569  0.6753892658103101  1.0000
  H   H2        1.0  0.2551849291956927  0.9588249032854961  0.3246098139564496  1.0000
  H   H3        1.0  0.25518788235391554  0.5411746476306404  0.8246097514234594  1.0000
  H   H4        1.0  0.7551843331554622  0.4588253039713948  0.1753900460330655  1.0000
  H   H5        1.0  0.7493800317625626  0.8887100531371956  0.6131506309453982  1.0000
  H   H6        1.0  0.24937799171342334  0.1112879087870553  0.38684988003441845  1.0000
  H   H7        1.0  0.2493820837603735  0.38871079872292574  0.8868484873293955  1.0000
  H   H8        1.0  0.7493773969538041  0.6112881535872462  0.11315058827186422  1.0000
  H   H9        1.0  0.9210529114154726  0.061246277655271825  0.5196018790881995  1.0000
  H   H10       1.0  0.4210523963056758  0.9387529379857111  0.4803980373612975  1.0000
  H   H11       1.0  0.421052500762741  0.5612469568419841  0.980397263213945  1.0000
  H   H12       1.0  0.921051349719761  0.4387522587978765  0.0196026532350331  1.0000
  H   H13       1.0  0.07699114026555522  0.9262619546999245  0.5465165031773582  1.0000
  H   H14       1.0  0.5769915050901275  0.07373772356714882  0.4534817310625103  1.0000
  H   H15       1.0  0.5769928057198542  0.42626251513083  0.9534832204824185  1.0000
  H   H16       1.0  0.07699129687862441  0.5737371631381835  0.04651788451641892  1.0000
  H   H17       1.0  0.2281478079246142  0.051732151826278994  0.679840189348255  1.0000
  H   H18       1.0  0.7281462813255786  0.9482677583000979  0.3201588710207588  1.0000
  H   H19       1.0  0.7281492690827845  0.5517335059240622  0.8201588116839178  1.0000
  H   H20       1.0  0.22814627740812912  0.44826640420384223  0.17984168406484713  1.0000
  H   H21       1.0  0.25732898026599577  0.1306391038950707  0.5685746377426497  1.0000
  H   H22       1.0  0.7573260596296479  0.8693598606062737  0.4314244435603599  1.0000
  H   H23       1.0  0.7573278487304124  0.6306395315194067  0.9314251257995354  1.0000
  H   H24       1.0  0.257324276689424  0.36935844259510026  0.0685761085711292  1.0000
  H   H25       1.0  0.6968445584792492  0.6449276488529276  0.5002113490042462  1.0000
  H   H26       1.0  0.19684510117417633  0.3550702324880533  0.4997869712185549  1.0000
  H   H27       1.0  0.196845479862219  0.14492746892771896  0.9997883754723634  1.0000
  H   H28       1.0  0.6968441797980134  0.8550714027995171  0.00021353319866080004  1.0000
  H   H29       1.0  0.20764955043893002  0.6515311614271437  0.4971351568408196  1.0000
  H   H30       1.0  0.7076480439010029  0.3484677268713625  0.5028631711329298  1.0000
  H   H31       1.0  0.7076484554499275  0.1515314630102296  0.002865293711693101  1.0000
  H   H32       1.0  0.20764913889519224  0.8484674252893072  0.997136622710123  1.0000
  C   C1        1.0  0.9341493244861283  0.8893886433568031  0.7337383417451308  1.0000
  C   C2        1.0  0.4341469334731373  0.1106115827568672  0.26626230178885635  1.0000
  C   C3        1.0  0.4341495705013899  0.3893893196727801  0.7662609092883843  1.0000
  C   C4        1.0  0.9341466874563908  0.610611896825489  0.2337375811769108  1.0000
  C   C5        1.0  0.8461175304018341  0.9588066326476364  0.6500248509623533  1.0000
  C   C6        1.0  0.34611369676526493  0.0411924680469653  0.34997572941671257  1.0000
  C   C7        1.0  0.3461180185205635  0.4588073570509791  0.8499750756209539  1.0000
  C   C8        1.0  0.8461132086444607  0.5411917436432034  0.15002406937888685  1.0000
  C   C9        1.0  0.9980810906129493  0.010416812910726499  0.5782069975716484  1.0000
  C   C10       1.0  0.4980805725843923  0.9895825208842483  0.4217922564484626  1.0000
  C   C11       1.0  0.4980819677107675  0.51041745843429  0.9217921846039874  1.0000
  C   C12       1.0  0.9980796954859914  0.48958088497566626  0.07820778710558332  1.0000
  C   C13       1.0  0.14864378513416202  0.10403926990709071  0.6229295353803863  1.0000
  C   C14       1.0  0.6486407944708291  0.8959595278812245  0.3770701856411592  1.0000
  C   C15       1.0  0.6486424964020898  0.6040396663085588  0.8770701421383723  1.0000
  C   C16       1.0  0.1486391687266391  0.39595913147773126  0.12293029657174515  1.0000
  C   C17       1.0  0.0675370585147448  0.23018458419712573  0.6612455385236518  1.0000
  C   C18       1.0  0.5675350008960863  0.7698150795665911  0.33875340662257264  1.0000
  C   C19       1.0  0.5675371162126696  0.7301859489754392  0.8387548366860714  1.0000
  C   C20       1.0  0.06753348596366492  0.26981371478799326  0.16124697921809178  1.0000
  N   N1        1.0  0.9786459003258089  0.7596274168085841  0.7381047616804256  1.0000
  N   N2        1.0  0.47864246467899113  0.24037287755797368  0.261895913775149  1.0000
  N   N3        1.0  0.4786446764745592  0.25962809061525854  0.7618944819930038  1.0000
  N   N4        1.0  0.9786422312884753  0.7403722037495655  0.23810404039321048  1.0000
  N   N5        1.0  0.057744024755201906  0.736572548456877  0.8254709377131634  1.0000
  N   N6        1.0  0.5577442044570874  0.2634271002875578  0.17453015347715717  1.0000
  N   N7        1.0  0.5577448834629168  0.23657294864918302  0.6745287147153152  1.0000
  N   N8        1.0  0.057744802987109316  0.7634286808659851  0.3254695057173721  1.0000
  N   N9        1.0  0.06163073108380249  0.8476591233279435  0.873073872676976  1.0000
  N   N10       1.0  0.5616333235613098  0.1523415217656208  0.1269279389923099  1.0000
  N   N11       1.0  0.5616329093591617  0.34765850579180574  0.6269258161684448  1.0000
  N   N12       1.0  0.061634059758056005  0.6523421393029595  0.3730724070538118  1.0000
  N   N13       1.0  0.9851616329508345  0.9450156732096742  0.8175393963088597  1.0000
  N   N14       1.0  0.4851602745291147  0.05498463115301889  0.18246128382187277  1.0000
  N   N15       1.0  0.4851630938501259  0.44501630138951487  0.6824606258505528  1.0000
  N   N16       1.0  0.9851617281040106  0.5549840029747912  0.3175379012123757  1.0000
  N   N17       1.0  0.9843705721827263  0.25083583462034653  0.7483884612100413  1.0000
  N   N18       1.0  0.4843658596478805  0.7491654589113779  0.2516115006625058  1.0000
  N   N19       1.0  0.4843694998730114  0.7508363823866233  0.7516122192881484  1.0000
  N   N20       1.0  0.9843654747220614  0.2491649111445966  0.24838989565272843  1.0000
  N   N21       1.0  0.9374608216023435  0.379655205755121  0.7537072616152616  1.0000
  N   N22       1.0  0.43745567153708015  0.6203460158205731  0.24629123122471705  1.0000
  N   N23       1.0  0.43745827667181914  0.8796557504650268  0.7462934242256127  1.0000
  N   N24       1.0  0.9374553019965292  0.1203454711096654  0.25370937475101135  1.0000
  N   N25       1.0  0.9908321588699137  0.4342947758915941  0.6722602831199256  1.0000
  N   N26       1.0  0.4908314370087083  0.5657055371686254  0.3277368126310166  1.0000
  N   N27       1.0  0.4908298494871275  0.9342953673867528  0.8277404575503556  1.0000
  N   N28       1.0  0.9908293746848855  0.0657049456719747  0.17226309740554777  1.0000
  N   N29       1.0  0.07168302051438503  0.3446919223254028  0.6131280571335794  1.0000
  N   N30       1.0  0.5716821840432402  0.6553067574131504  0.3868694556080286  1.0000
  N   N31       1.0  0.5716803028925952  0.8446933147413986  0.8868723557133082  1.0000
  N   N32       1.0  0.0716790727203644  0.15530635537955112  0.11313089854327532  1.0000
  O   O1        1.0  0.717967358166547  0.6602142808728361  0.5696607475179649  1.0000
  O   O2        1.0  0.21796619268066314  0.33978660402253524  0.4303361524790007  1.0000
  O   O3        1.0  0.21796662145906254  0.1602130706677727  0.930338996739032  1.0000
  O   O4        1.0  0.7179654721545604  0.8397858334576895  0.06966364477402463  1.0000
  O   O5        1.0  0.2197709828344827  0.6640724387807635  0.5668199539037816  1.0000
  O   O6        1.0  0.7197706909076943  0.33592745849706057  0.4331783827664994  1.0000
  O   O7        1.0  0.7197711323328803  0.16407298754794652  0.9331805105052882  1.0000
  O   O8        1.0  0.2197705414144764  0.835926909730915  0.06682141461306662  1.0000
