data_image0
_chemical_formula_structural       Al6H26C60O31
_chemical_formula_sum              "Al6 H26 C60 O31"
_cell_length_a       10.111246276222438
_cell_length_b       12.314024661767402
_cell_length_c       23.851377270458038
_cell_angle_alpha    89.49714036791968
_cell_angle_beta     84.58578444523867
_cell_angle_gamma    65.11688996611583

_space_group_name_H-M_alt    "P 1"
_space_group_IT_number       1

loop_
  _space_group_symop_operation_xyz
  'x, y, z'

loop_
  _atom_site_type_symbol
  _atom_site_label
  _atom_site_symmetry_multiplicity
  _atom_site_fract_x
  _atom_site_fract_y
  _atom_site_fract_z
  _atom_site_occupancy
  Al  Al1       1.0  0.7827068259615831  0.5973704028521922  0.5078673807375222  1.0000
  Al  Al2       1.0  0.06529332798623957  0.34577429328953  0.49871670529583395  1.0000
  Al  Al3       1.0  0.1149863310463673  0.5696269122787071  0.494747634151821  1.0000
  Al  Al4       1.0  0.8851037984727343  0.009905430107444591  0.9871092082581326  1.0000
  Al  Al5       1.0  0.5533238244598593  0.0390113992730434  0.9964638694493145  1.0000
  Al  Al6       1.0  0.6049987874166761  0.2628287033644057  0.9968040190174818  1.0000
  H   H1        1.0  0.4222090569197834  0.39100311718112113  0.14724778539812178  1.0000
  H   H2        1.0  0.9826500150082682  0.2610772191641857  0.24260716054080683  1.0000
  H   H3        1.0  0.4910815094964535  0.3432104193278462  0.7323634706743788  1.0000
  H   H4        1.0  0.9412868007554138  0.9007509951167022  0.828442805334248  1.0000
  H   H5        1.0  0.5862802208912615  0.801101888716907  0.8654826587995784  1.0000
  H   H6        1.0  0.6086655187781744  0.731531797126479  0.7655826079292254  1.0000
  H   H7        1.0  0.07924752911120699  0.8106207851413884  0.627482078148624  1.0000
  H   H8        1.0  0.7247486796337838  0.7069825718088795  0.6672479632123824  1.0000
  H   H9        1.0  0.6528374153880991  0.3945175463133168  0.8488679232770335  1.0000
  H   H10       1.0  0.2899124628167726  0.10193892280135225  0.1427016113810424  1.0000
  H   H11       1.0  0.05895977872866347  0.078567036727037  0.8415902627084433  1.0000
  H   H12       1.0  0.570081218542896  0.5052339159469169  0.7611265016398787  1.0000
  H   H13       1.0  0.0974238041409308  0.0955374511667841  0.7364283961132967  1.0000
  H   H14       1.0  0.6154098797791365  0.5258565796892894  0.657292776596627  1.0000
  H   H15       1.0  0.01945047567770791  0.2080797419356912  0.6501889868867821  1.0000
  H   H16       1.0  0.4102301038678179  0.4911946093982279  0.23855790345056954  1.0000
  H   H17       1.0  0.35706123804576617  0.5076784055784246  0.3432246652464954  1.0000
  H   H18       1.0  0.22636183409580482  0.21762023909201383  0.33983982038218125  1.0000
  H   H19       1.0  0.9393509286620517  0.8678094898699767  0.24160169176312246  1.0000
  H   H20       1.0  0.7245482797580679  0.7478686548359972  0.2530930625126189  1.0000
  H   H21       1.0  0.6497808299037902  0.3332563428438818  0.26659293447863763  1.0000
  H   H22       1.0  0.16320827735608398  0.2413627360797931  0.7753983768244408  1.0000
  H   H23       1.0  0.04663115905285078  0.9277248254829328  0.7650188783079699  1.0000
  H   H24       1.0  0.21710001615155514  0.04796933720847821  0.22874890418876245  1.0000
  H   H25       1.0  0.5535282076247232  0.7419540011825486  0.5439869536235589  1.0000
  H   H26       1.0  0.11430740465631584  0.8739301191112288  0.0109283177165764  1.0000
  C   C1        1.0  0.8397424861672463  0.38985040172385516  0.4304055696589302  1.0000
  C   C2        1.0  0.34229048116761635  0.440224849355168  0.31862087360389063  1.0000
  C   C3        1.0  0.2684269201275313  0.2756743974046074  0.31736517451009405  1.0000
  C   C4        1.0  0.2971087278241384  0.26502218459421556  0.2580624590181628  1.0000
  C   C5        1.0  0.34920143705699763  0.3441215796613192  0.22882809296843473  1.0000
  C   C6        1.0  0.3786342209069532  0.3336887921788829  0.16954029871342868  1.0000
  C   C7        1.0  0.30412091641304073  0.16958248260384318  0.1675146503900393  1.0000
  C   C8        1.0  0.27541934205589064  0.17790340776713978  0.22542346833819235  1.0000
  C   C9        1.0  0.7581975975709697  0.8456144973160704  0.1260203336541252  1.0000
  C   C10       1.0  0.7876705955211566  0.7928366277959566  0.23219814120513854  1.0000
  C   C11       1.0  0.8769001191292248  0.8221715897003534  0.2624074016349951  1.0000
  C   C12       1.0  0.24392978431097853  0.38185777863152026  0.4087330976567003  1.0000
  C   C13       1.0  0.8932155458450668  0.7942535756009972  0.31913178000537096  1.0000
  C   C14       1.0  0.7718126908339757  0.819982916636611  0.17536302289513367  1.0000
  C   C15       1.0  0.9073488139948797  0.7665144590589247  0.3681787929715056  1.0000
  C   C16       1.0  0.8403814798221915  0.24239089183787138  0.1277883471074617  1.0000
  C   C17       1.0  0.8720391742222873  0.27914955948862286  0.2328549527402686  1.0000
  C   C18       1.0  0.7609442114734293  0.31614950311959683  0.2753464040524775  1.0000
  C   C19       1.0  0.7826966256611668  0.3360272333070781  0.3308123598613334  1.0000
  C   C20       1.0  0.8533505865583924  0.26038001572238295  0.17681563501948008  1.0000
  C   C21       1.0  0.8021069658971881  0.35610299030103204  0.3786567417876653  1.0000
  C   C22       1.0  0.3744004661424683  0.2551453128337755  0.8652795768555206  1.0000
  C   C23       1.0  0.9239527806201555  0.7143110229434767  0.4227357642025921  1.0000
  C   C24       1.0  0.32330193673663393  0.28794172947908686  0.7588992186371184  1.0000
  C   C25       1.0  0.40353663551238134  0.32278880171087815  0.7191937434248884  1.0000
  C   C26       1.0  0.37259100733412265  0.3358751504968963  0.6630670866968629  1.0000
  C   C27       1.0  0.35321267486182967  0.2723839284193588  0.8157826745426604  1.0000
  C   C28       1.0  0.34094072850303564  0.34835534296625775  0.6144424758564426  1.0000
  C   C29       1.0  0.7648543604969692  0.8545524972543533  0.8512717254334631  1.0000
  C   C30       1.0  0.9018813181138301  0.7550034721286778  0.642381541595526  1.0000
  C   C31       1.0  0.9855301525066555  0.8427634300122188  0.7135311244319097  1.0000
  C   C32       1.0  0.9973571558135605  0.8035084679150231  0.6584955674915774  1.0000
  C   C33       1.0  0.796628434447456  0.7448563192453435  0.6810185338664424  1.0000
  C   C34       1.0  0.854212122461057  0.39024390441338136  0.588376543244223  1.0000
  C   C35       1.0  0.7852172801722616  0.7809478046736089  0.7379043406550847  1.0000
  C   C36       1.0  0.8812940974250552  0.8306989523413578  0.755187294836574  1.0000
  C   C37       1.0  0.8696345770053998  0.8647729898196485  0.8123542432281636  1.0000
  C   C38       1.0  0.6683987102361967  0.8072914975414066  0.8342397948214  1.0000
  C   C39       1.0  0.6805505586642371  0.7699306797938303  0.7790420788937167  1.0000
  C   C40       1.0  0.8534572076821194  0.23696789431483714  0.8505017430781121  1.0000
  C   C41       1.0  0.8205330583285646  0.36751504984995614  0.6483946013430567  1.0000
  C   C42       1.0  0.6677573750929329  0.4400829802630567  0.7366577161793442  1.0000
  C   C43       1.0  0.6920288385359825  0.4519146628126762  0.6796299328707602  1.0000
  C   C44       1.0  0.9204600948717782  0.2711493028848934  0.6746351496323155  1.0000
  C   C45       1.0  0.27144332118298564  0.3796079340810081  0.5634910919781574  1.0000
  C   C46       1.0  0.8979646131512241  0.2569341533276344  0.7331275077496713  1.0000
  C   C47       1.0  0.7701418422568553  0.34370083660431305  0.7650769604727472  1.0000
  C   C48       1.0  0.7505866148561537  0.3308192703014683  0.8239568669121553  1.0000
  C   C49       1.0  0.980817077010805  0.1512010218851074  0.8189615633178134  1.0000
  C   C50       1.0  0.0013011874565692105  0.16083939016733234  0.7615332087450639  1.0000
  C   C51       1.0  0.7415955863881157  0.8950199025640013  0.0710134540520926  1.0000
  C   C52       1.0  0.4060437153149294  0.2281394187616428  0.07840288838015398  1.0000
  C   C53       1.0  0.8126524982323103  0.21319393614673737  0.0731530930358986  1.0000
  C   C54       1.0  0.7513186875563349  0.9007848876199914  0.9097308734749419  1.0000
  C   C55       1.0  0.42410327907833795  0.22677580622575982  0.9203520165394465  1.0000
  C   C56       1.0  0.917956587340534  0.7075020396522189  0.5837798000404532  1.0000
  C   C57       1.0  0.8243603159443043  0.2172846685759851  0.9110503460716685  1.0000
  C   C58       1.0  0.35697275685494406  0.24760208229188405  0.13953293739180586  1.0000
  C   C59       1.0  0.29009233295487763  0.3621203696748124  0.3472187465080125  1.0000
  C   C60       1.0  0.3710567065158373  0.430961019595756  0.26090112010725613  1.0000
  O   O1        1.0  0.8192762687881938  0.6936671638024591  0.4451503418718729  1.0000
  O   O2        1.0  0.22124765661654072  0.3089404058473377  0.5444972607879137  1.0000
  O   O3        1.0  0.2576707463001426  0.4791879659774451  0.542110430805451  1.0000
  O   O4        1.0  0.04123864390577136  0.682672056858614  0.5542392859060357  1.0000
  O   O5        1.0  0.9894720158855607  0.5035164809559446  0.5001868887026503  1.0000
  O   O6        1.0  0.8916613076933332  0.10968869424824129  0.05220012807173188  1.0000
  O   O7        1.0  0.8504684475845607  0.9066096264689845  0.04577223861500101  1.0000
  O   O8        1.0  0.6143783881971604  0.9279044322994635  0.053070017482916405  1.0000
  O   O9        1.0  0.4095656588266224  0.13491807310996506  0.05362636808109039  1.0000
  O   O10       1.0  0.4507617445954892  0.3018156205721921  0.054374002054167606  1.0000
  O   O11       1.0  0.7043273815154479  0.2958546783568393  0.051208305882653286  1.0000
  O   O12       1.0  0.7649528967002514  0.4957816403723567  0.4491456361344531  1.0000
  O   O13       1.0  0.9053233090849487  0.1181792904404944  0.930432601634429  1.0000
  O   O14       1.0  0.8534113706530778  0.9241430376037485  0.9246571873880071  1.0000
  O   O15       1.0  0.6319060022384166  0.9186243316647803  0.9412704839074875  1.0000
  O   O16       1.0  0.429542390997483  0.1291702297873769  0.9410191990698703  1.0000
  O   O17       1.0  0.46563387630808967  0.29960904069060484  0.942697795097139  1.0000
  O   O18       1.0  0.7130528834949248  0.3005869082851688  0.9392786345882981  1.0000
  O   O19       1.0  0.6783697192384253  0.10520545766483738  0.9942991493308637  1.0000
  O   O20       1.0  0.950835150109498  0.30938558856136916  0.45158907875451587  1.0000
  O   O21       1.0  0.20126760458616402  0.3081239536198196  0.43389246383338786  1.0000
  O   O22       1.0  0.2418234754805227  0.4755956456892107  0.432111130410611  1.0000
  O   O23       1.0  0.04780144285710732  0.6887296365396123  0.44266470840151567  1.0000
  O   O24       1.0  0.8123250850062508  0.6907714413465339  0.5673968061298778  1.0000
  O   O25       1.0  0.7718700724338774  0.48856094245691384  0.5688529504309656  1.0000
  O   O26       1.0  0.9704689255097562  0.3093750027177293  0.5614442561097377  1.0000
  O   O27       1.0  0.2103594446004068  0.26647885184459597  0.7433179037850122  1.0000
  O   O28       1.0  0.07752066513968028  0.8919451008025301  0.7270129215579713  1.0000
  O   O29       1.0  0.22523748984341552  0.10462462029943959  0.2549477295018505  1.0000
  O   O30       1.0  0.5927790578602697  0.6829872138257894  0.5132630161421972  1.0000
  O   O31       1.0  0.07545818115067962  0.9249912241570896  0.9799541926015748  1.0000
