data_image0
_chemical_formula_structural       Ag4H12C8N16
_chemical_formula_sum              "Ag4 H12 C8 N16"
_cell_length_a       6.434077642580915
_cell_length_b       8.624772012431551
_cell_length_c       8.624731354405728
_cell_angle_alpha    82.59256639475329
_cell_angle_beta     110.78349649137076
_cell_angle_gamma    110.78395438847078

_space_group_name_H-M_alt    "P 1"
_space_group_IT_number       1

loop_
  _space_group_symop_operation_xyz
  'x, y, z'

loop_
  _atom_site_type_symbol
  _atom_site_label
  _atom_site_symmetry_multiplicity
  _atom_site_fract_x
  _atom_site_fract_y
  _atom_site_fract_z
  _atom_site_occupancy
  Ag  Ag1       1.0  0.8830374298975413  0.7645445045635456  0.0068337141913730505  1.0000
  Ag  Ag2       1.0  0.6169589406735057  0.9931747296469524  0.23545130840143708  1.0000
  Ag  Ag3       1.0  0.11697342594255392  0.23545119499980424  0.9931662053566084  1.0000
  Ag  Ag4       1.0  0.38302816277953866  0.0068182210225415886  0.7645475593643666  1.0000
  H   H1        1.0  0.004160382572031663  0.6147233893551205  0.3524759607516187  1.0000
  H   H2        1.0  0.49579249993958296  0.647518037405007  0.38529649625728263  1.0000
  H   H3        1.0  0.9958283255206553  0.38528039076628323  0.6475232273098186  1.0000
  H   H4        1.0  0.5042082215090247  0.3524747957178749  0.6147073314952038  1.0000
  H   H5        1.0  0.939612934522714  0.6791764963928846  0.513675937385365  1.0000
  H   H6        1.0  0.5603302387179383  0.48630187417111176  0.32084085023581826  1.0000
  H   H7        1.0  0.06038357908233394  0.32083909047215553  0.48633179392285086  1.0000
  H   H8        1.0  0.43966952476624505  0.5136782313308644  0.6791592641823812  1.0000
  H   H9        1.0  0.2286892091983859  0.6832330390908368  0.5486755167963507  1.0000
  H   H10       1.0  0.2712374755417883  0.45132013288954215  0.31676802886145333  1.0000
  H   H11       1.0  0.7713150758426153  0.3167766084586462  0.4513301860053572  1.0000
  H   H12       1.0  0.7287453902330367  0.5486672909888385  0.6832229881459426  1.0000
  C   C1        1.0  0.1337755893719789  0.8754673454366256  0.3927541621694103  1.0000
  C   C2        1.0  0.36620994474531443  0.607241537104237  0.1245373033387551  1.0000
  C   C3        1.0  0.8662084534068767  0.12454308948293404  0.6072441368231267  1.0000
  C   C4        1.0  0.6337790254108666  0.3927530561703208  0.8754595814585497  1.0000
  C   C5        1.0  0.07318039867010388  0.7029616364725444  0.4540879899886292  1.0000
  C   C6        1.0  0.4267780536013746  0.5459021651909313  0.2970613087219291  1.0000
  C   C7        1.0  0.9268181472101983  0.29705259825516356  0.545913099925734  1.0000
  C   C8        1.0  0.5732275990023582  0.45408043919103874  0.7029540008210657  1.0000
  N   N1        1.0  0.07889490469387545  0.9226763851999779  0.23307740982189523  1.0000
  N   N2        1.0  0.4210816259237405  0.7669113298888849  0.07733494505047392  1.0000
  N   N3        1.0  0.9211124287600042  0.07733123414350024  0.7669183308890338  1.0000
  N   N4        1.0  0.5789223326787366  0.23307762529316292  0.9226648134945348  1.0000
  N   N5        1.0  0.1665242562106073  0.09117972153040202  0.23494112947685147  1.0000
  N   N6        1.0  0.3334798147467595  0.7650579789731042  0.9088323939767518  1.0000
  N   N7        1.0  0.8334749211956023  0.908826548450769  0.7650577295150924  1.0000
  N   N8        1.0  0.6665336467212909  0.23494180739594134  0.09116568728617121  1.0000
  N   N9        1.0  0.2695653257613415  0.14391893913635562  0.3889664575127583  1.0000
  N   N10       1.0  0.23046701332212655  0.6110346761963686  0.8560882087142474  1.0000
  N   N11       1.0  0.730423251299598  0.8560894344084817  0.6110338821807487  1.0000
  N   N12       1.0  0.7695362711945178  0.3889655666211669  0.14390557412158958  1.0000
  N   N13       1.0  0.25116768510932985  0.01073923042261531  0.4901671482403813  1.0000
  N   N14       1.0  0.24882723706000584  0.5098343914393129  0.9892747406078543  1.0000
  N   N15       1.0  0.7488318423682259  0.9892727295553956  0.509834127770354  1.0000
  N   N16       1.0  0.7512119745299798  0.4901651930052325  0.010721257836692588  1.0000
