data_image0
_chemical_formula_structural       Cd4H52C72N12O16
_chemical_formula_sum              "Cd4 H52 C72 N12 O16"
_cell_length_a       13.917442611198414
_cell_length_b       13.917404019870613
_cell_length_c       14.26990932402488
_cell_angle_alpha    90.00016155028099
_cell_angle_beta     89.99980250890418
_cell_angle_gamma    117.20555068725572

_space_group_name_H-M_alt    "P 1"
_space_group_IT_number       1

loop_
  _space_group_symop_operation_xyz
  'x, y, z'

loop_
  _atom_site_type_symbol
  _atom_site_label
  _atom_site_symmetry_multiplicity
  _atom_site_fract_x
  _atom_site_fract_y
  _atom_site_fract_z
  _atom_site_occupancy
  Cd  Cd1       1.0  0.3249325152489105  0.6274732835650594  0.6343729518657498  1.0000
  Cd  Cd2       1.0  0.6750660986532677  0.3725283120961435  0.1343730440611068  1.0000
  Cd  Cd3       1.0  0.3725271280824173  0.6750655483163897  0.36562631025993403  1.0000
  Cd  Cd4       1.0  0.6274717028895935  0.32493323599400253  0.8656250772631894  1.0000
  H   H1        1.0  0.6041355744863706  0.45739180297416476  0.6299917051398226  1.0000
  H   H2        1.0  0.3958638595328878  0.5426101653728067  0.1299931979746205  1.0000
  H   H3        1.0  0.5426089902527166  0.39586318407662446  0.37000759112256537  1.0000
  H   H4        1.0  0.4573930479087379  0.6041378395010356  0.8700090938616187  1.0000
  H   H5        1.0  0.28418263322644316  0.16207313036009902  0.6275552405773938  1.0000
  H   H6        1.0  0.7158160233348027  0.8379270281183365  0.1275550695429715  1.0000
  H   H7        1.0  0.8379249510899313  0.7158146724706071  0.3724483353146584  1.0000
  H   H8        1.0  0.162075441085193  0.2841870216528192  0.8724457457672941  1.0000
  H   H9        1.0  0.00014383412055000067  0.4797054254644877  0.8065117381012998  1.0000
  H   H10       1.0  0.9998560059665065  0.5202915037281598  0.30650904530558887  1.0000
  H   H11       1.0  0.5202932682952406  0.9998544912896817  0.19349086589828352  1.0000
  H   H12       1.0  0.47971254392770374  0.00014491342083994242  0.6934878364514249  1.0000
  H   H13       1.0  0.9505188274663607  0.4605189604275706  0.10568366341276202  1.0000
  H   H14       1.0  0.04948068658688947  0.5394822555030032  0.6056814493257294  1.0000
  H   H15       1.0  0.5394807552172977  0.049479239398180976  0.8943187927895836  1.0000
  H   H16       1.0  0.4605228890695513  0.9505190176967914  0.39431558023699864  1.0000
  H   H17       1.0  0.27268175518520366  0.5817285483362299  0.9912259800494925  1.0000
  H   H18       1.0  0.7273183503947677  0.4182704857150198  0.4912267233744743  1.0000
  H   H19       1.0  0.41827363197103995  0.7273170340029437  0.008774002650859801  1.0000
  H   H20       1.0  0.5817221152050819  0.2726821262188038  0.5087713781501294  1.0000
  H   H21       1.0  0.7732159683337796  0.6283769320831424  0.6272270977036885  1.0000
  H   H22       1.0  0.22678263037403915  0.3716267912373751  0.1272272867400375  1.0000
  H   H23       1.0  0.3716264556559067  0.22678275743226795  0.3727715035761392  1.0000
  H   H24       1.0  0.6283755864995937  0.7732175575425657  0.872771495429774  1.0000
  H   H25       1.0  0.46377437508385083  0.3230314816098952  0.6306813189923803  1.0000
  H   H26       1.0  0.5362234531275973  0.6769690152278685  0.1306820091395551  1.0000
  H   H27       1.0  0.6769668269612623  0.5362219876062893  0.36932290096188325  1.0000
  H   H28       1.0  0.32303441706856967  0.4637779420115037  0.8693216659830088  1.0000
  H   H29       1.0  0.5788994628461807  0.7981745293892002  0.6270447531804137  1.0000
  H   H30       1.0  0.42109594038523557  0.20182553531213182  0.127044527331897  1.0000
  H   H31       1.0  0.2018270263053877  0.42109808262217285  0.37295425552038364  1.0000
  H   H32       1.0  0.7981733761986403  0.5789028992483406  0.8729552489715433  1.0000
  H   H33       1.0  0.13954886017122448  0.37919254164911115  0.6233062786220602  1.0000
  H   H34       1.0  0.8604474083930213  0.6208050444791199  0.12330643020035843  1.0000
  H   H35       1.0  0.6208050652007058  0.8604479113933362  0.37669209130162784  1.0000
  H   H36       1.0  0.3791929151220613  0.13955122412514234  0.8766911817756695  1.0000
  H   H37       1.0  0.7623848010943772  0.8057563481647704  0.6246239785180165  1.0000
  H   H38       1.0  0.23761057367460833  0.19424585184082585  0.12462154311761253  1.0000
  H   H39       1.0  0.1942452051722156  0.23761109854974186  0.3753765971375316  1.0000
  H   H40       1.0  0.8057568296643038  0.7623892206422341  0.8753780677810142  1.0000
  H   H41       1.0  0.11611993935415649  0.18846667310722148  0.6244083761867572  1.0000
  H   H42       1.0  0.8838779534988247  0.8115309612786916  0.12440686940366423  1.0000
  H   H43       1.0  0.8115300350383945  0.8838772905080103  0.3755922876657821  1.0000
  H   H44       1.0  0.18846792486373684  0.11612326937964204  0.875591251744048  1.0000
  H   H45       1.0  0.23980910304586434  0.5840914251073668  0.15720532173010332  1.0000
  H   H46       1.0  0.7601894702361631  0.41590878135585985  0.657205995901201  1.0000
  H   H47       1.0  0.4159103116033193  0.7601891152109984  0.8427926658849431  1.0000
  H   H48       1.0  0.5840877756891273  0.23980925237095355  0.3427905968313639  1.0000
  H   H49       1.0  0.11496840596728927  0.5319886304406792  0.20398361224292225  1.0000
  H   H50       1.0  0.8850324476146908  0.46801350412542314  0.703984011155363  1.0000
  H   H51       1.0  0.46801513925511523  0.885032520253901  0.796016699078841  1.0000
  H   H52       1.0  0.531984695043917  0.11496653117821137  0.2960144625191248  1.0000
  C   C1        1.0  0.6005629197104267  0.533916811995489  0.6276000698215257  1.0000
  C   C2        1.0  0.3994357132140323  0.46608477270522997  0.12760064031464682  1.0000
  C   C3        1.0  0.4660841476118164  0.39943426487273825  0.3724001709939486  1.0000
  C   C4        1.0  0.533917087771428  0.6005656697271462  0.8724014077444694  1.0000
  C   C5        1.0  0.28956616004372643  0.2427619768280493  0.627020650516144  1.0000
  C   C6        1.0  0.7104325097742147  0.7572374677104962  0.12702027649408623  1.0000
  C   C7        1.0  0.7572356042282988  0.7104294502977451  0.3729824537936679  1.0000
  C   C8        1.0  0.24276478644404878  0.28957224469156256  0.8729817111727274  1.0000
  C   C9        1.0  0.21671014827181515  0.5717655529150392  0.807579483203881  1.0000
  C   C10       1.0  0.7832896770587323  0.428232091081682  0.30757866487168434  1.0000
  C   C11       1.0  0.42823486834232927  0.7832883326282453  0.1924192379773046  1.0000
  C   C12       1.0  0.5717676921224422  0.21671097739959308  0.69241929660884  1.0000
  C   C13       1.0  0.03216092020602449  0.4911833088729337  0.8772745885554232  1.0000
  C   C14       1.0  0.9678379133142483  0.5088133550647169  0.3772733730671121  1.0000
  C   C15       1.0  0.5088151954555399  0.967837664750739  0.12272655138239941  1.0000
  C   C16       1.0  0.4911907920118707  0.032163051588334164  0.6227242719791876  1.0000
  C   C17       1.0  0.14369117713613375  0.5354491088554596  0.8909311715390303  1.0000
  C   C18       1.0  0.8563075827589158  0.4645497164088965  0.3909323105394336  1.0000
  C   C19       1.0  0.46455196456578546  0.8563063768267722  0.1090676613452999  1.0000
  C   C20       1.0  0.5354516378256305  0.14369317808200308  0.6090648384646331  1.0000
  C   C21       1.0  0.005231425972063196  0.47974270486072623  0.045925256829853815  1.0000
  C   C22       1.0  0.9947682911876611  0.5202562751371216  0.5459240298914382  1.0000
  C   C23       1.0  0.5202563942738363  0.9947678256518984  0.9540752294736097  1.0000
  C   C24       1.0  0.4797478899867257  0.005230907925977012  0.4540735680157583  1.0000
  C   C25       1.0  0.501155247409933  0.53674878400367  0.627564500569278  1.0000
  C   C26       1.0  0.4988425778034085  0.4632524208630642  0.1275633289364393  1.0000
  C   C27       1.0  0.4632511753568732  0.4988423456463307  0.37243815374449  1.0000
  C   C28       1.0  0.5367508559796191  0.5011586818638136  0.8724384079512789  1.0000
  C   C29       1.0  0.11728155119192248  0.5196330255463764  0.060628791250373106  1.0000
  C   C30       1.0  0.8827189442410341  0.4803656449458414  0.560625727869244  1.0000
  C   C31       1.0  0.4803675863516758  0.8827183240983058  0.9393735777562642  1.0000
  C   C32       1.0  0.5196334726834451  0.11728100581042608  0.4393713888898674  1.0000
  C   C33       1.0  0.18561271229784634  0.5477884403294127  0.9815995290141475  1.0000
  C   C34       1.0  0.8143858164491244  0.4522091055175819  0.48159937301884537  1.0000
  C   C35       1.0  0.4522114629320554  0.8143848849451985  0.018399914612963603  1.0000
  C   C36       1.0  0.5477883315400899  0.18561405050586893  0.5183971652466042  1.0000
  C   C37       1.0  0.6958860190125689  0.6307129336419165  0.626543974435812  1.0000
  C   C38       1.0  0.30411016992880485  0.36928893617324837  0.1265438981726987  1.0000
  C   C39       1.0  0.369288542340719  0.3041103040790886  0.3734562708608138  1.0000
  C   C40       1.0  0.6307127018312709  0.6958889191553083  0.8734574446334522  1.0000
  C   C41       1.0  0.39058333822017477  0.33296293541874167  0.6281145151893244  1.0000
  C   C42       1.0  0.6094144972029908  0.6670375572636899  0.1281135315377782  1.0000
  C   C43       1.0  0.667035045250543  0.6094124775208838  0.37188855620053124  1.0000
  C   C44       1.0  0.3329645524347383  0.39058812284908834  0.8718884890516565  1.0000
  C   C45       1.0  0.3962265169307597  0.4362222234868937  0.6272639059435079  1.0000
  C   C46       1.0  0.6037705248223373  0.5637771749697292  0.1272633591282002  1.0000
  C   C47       1.0  0.5637781007884611  0.6037704991344909  0.372738060991729  1.0000
  C   C48       1.0  0.4362215180191454  0.3962286764620088  0.8727390651383901  1.0000
  C   C49       1.0  0.5883524294825903  0.7245972535764549  0.6266879419619544  1.0000
  C   C50       1.0  0.4116437708111888  0.275403903396068  0.1266865477436241  1.0000
  C   C51       1.0  0.2754033853961317  0.41164455815449225  0.3733129163598862  1.0000
  C   C52       1.0  0.7245978591783594  0.5883546648479835  0.8733141820363245  1.0000
  C   C53       1.0  0.20871513164709646  0.36214901784776293  0.6245605272839186  1.0000
  C   C54       1.0  0.7912827255120545  0.6378507560090937  0.12456025634067203  1.0000
  C   C55       1.0  0.6378490123432811  0.7912815602198647  0.375439682582126  1.0000
  C   C56       1.0  0.3621497910631887  0.20871723997356628  0.8754404211186044  1.0000
  C   C57       1.0  0.6900002545019743  0.7280972785017851  0.6256317082172274  1.0000
  C   C58       1.0  0.3099951291905823  0.27190421006064  0.12562994395803173  1.0000
  C   C59       1.0  0.2719055903609017  0.30999677954994803  0.3743695521597631  1.0000
  C   C60       1.0  0.728096470814826  0.6900021118626254  0.8743703837667596  1.0000
  C   C61       1.0  0.844744540948568  0.42212875332828753  0.9385629415233296  1.0000
  C   C62       1.0  0.15525564202382464  0.5778744739389906  0.4385583287574661  1.0000
  C   C63       1.0  0.5778760926778616  0.15525765500634475  0.06144112131264021  1.0000
  C   C64       1.0  0.42212843953925727  0.8447429156764911  0.5614391965008567  1.0000
  C   C65       1.0  0.9633749650862807  0.464331534072407  0.954824992364472  1.0000
  C   C66       1.0  0.03662441141185009  0.5356684874422866  0.4548241650540491  1.0000
  C   C67       1.0  0.5356690730798305  0.03662387472385822  0.0451760347624202  1.0000
  C   C68       1.0  0.464337155713359  0.9633752899623358  0.5451735928043462  1.0000
  C   C69       1.0  0.19661859375150198  0.2570249939227836  0.6251595664459232  1.0000
  C   C70       1.0  0.803379261725766  0.7429747809031538  0.1251588421678704  1.0000
  C   C71       1.0  0.7429728546513769  0.8033789982409444  0.3748410610643518  1.0000
  C   C72       1.0  0.25702673474062004  0.19662160690754857  0.874841417648341  1.0000
  N   N1        1.0  0.1603507437938417  0.5288233209704669  0.1494968507436596  1.0000
  N   N2        1.0  0.8396502980922873  0.47117658619188757  0.649495307937926  1.0000
  N   N3        1.0  0.4711785479070441  0.8396497811490348  0.850504013599469  1.0000
  N   N4        1.0  0.5288211333535741  0.1603493584625538  0.3505019119369024  1.0000
  N   N5        1.0  0.4967460484724738  0.631624499569547  0.6275302998952699  1.0000
  N   N6        1.0  0.5032501612093867  0.3683759456921577  0.1275295544079285  1.0000
  N   N7        1.0  0.3683762979235539  0.5032527034380649  0.3724712550454187  1.0000
  N   N8        1.0  0.631626541134892  0.49674870389982556  0.8724704787525044  1.0000
  N   N9        1.0  0.3058662796716334  0.4487445717014467  0.6255317578135335  1.0000
  N   N10       1.0  0.6941307669460313  0.5512548239522558  0.1255315749459243  1.0000
  N   N11       1.0  0.551253745149445  0.6941311448705959  0.3744684199266929  1.0000
  N   N12       1.0  0.44874586879753037  0.30586803352655767  0.874469835414466  1.0000
  O   O1        1.0  0.3189525738239282  0.6113932566578197  0.8186635292539252  1.0000
  O   O2        1.0  0.6810463655404673  0.3886068778007469  0.3186636454697478  1.0000
  O   O3        1.0  0.3886085286725276  0.681045376594227  0.1813350013540216  1.0000
  O   O4        1.0  0.6113940511713237  0.31895462856903123  0.681333805814532  1.0000
  O   O5        1.0  0.17348396306138614  0.5613818826139648  0.7267177801515531  1.0000
  O   O6        1.0  0.8265160658763051  0.4386170566689671  0.22671614476457347  1.0000
  O   O7        1.0  0.43861802184841275  0.826513677386167  0.27328314331266773  1.0000
  O   O8        1.0  0.5613835389477017  0.17348324450758656  0.7732817167586532  1.0000
  O   O9        1.0  0.7851411476084492  0.42745144491949105  0.0037414111764562004  1.0000
  O   O10       1.0  0.21486413114066485  0.5725629605764196  0.5037387339829708  1.0000
  O   O11       1.0  0.5725653562137222  0.21486595068080291  0.9962614477005687  1.0000
  O   O12       1.0  0.42744611514234504  0.7851341299217011  0.4962613967793885  1.0000
  O   O13       1.0  0.8081279179717455  0.3853193573228069  0.8567327197500063  1.0000
  O   O14       1.0  0.19187009490816817  0.6146811720394822  0.3567266836629344  1.0000
  O   O15       1.0  0.6146815755793041  0.19186983603815105  0.14327344482562412  1.0000
  O   O16       1.0  0.3853194485232123  0.8081322002754234  0.6432708421894517  1.0000
