data_image0
_chemical_formula_structural       Cd4H40C68N16O16
_chemical_formula_sum              "Cd4 H40 C68 N16 O16"
_cell_length_a       10.434138922000253
_cell_length_b       10.667047478329918
_cell_length_c       13.564332329806286
_cell_angle_alpha    90.50735939259425
_cell_angle_beta     90.00000767594265
_cell_angle_gamma    90.0000238852216

_space_group_name_H-M_alt    "P 1"
_space_group_IT_number       1

loop_
  _space_group_symop_operation_xyz
  'x, y, z'

loop_
  _atom_site_type_symbol
  _atom_site_label
  _atom_site_symmetry_multiplicity
  _atom_site_fract_x
  _atom_site_fract_y
  _atom_site_fract_z
  _atom_site_occupancy
  Cd  Cd1       1.0  0.6116031270728897  0.821851911464094  0.18093565115695753  1.0000
  Cd  Cd2       1.0  0.11160295005605286  0.1781473535860911  0.3190640044697163  1.0000
  Cd  Cd3       1.0  0.3883963178260927  0.17814765584309103  0.8190641820025635  1.0000
  Cd  Cd4       1.0  0.8883964948429934  0.8218522092151445  0.6809365658774952  1.0000
  H   H1        1.0  0.8766551484713361  0.6697701714858652  0.1271327805293936  1.0000
  H   H2        1.0  0.3766540872745594  0.33022920183738336  0.3728669033046117  1.0000
  H   H3        1.0  0.12334525482010147  0.3302293958215187  0.872867052630177  1.0000
  H   H4        1.0  0.6233453576241601  0.6697694324832996  0.6271321825955385  1.0000
  H   H5        1.0  0.9519042401569138  0.4468445526898391  0.09686073927263553  1.0000
  H   H6        1.0  0.4519032793226287  0.5531548558784891  0.4031382153818441  1.0000
  H   H7        1.0  0.048096163134324896  0.5531540771250788  0.9031390838152549  1.0000
  H   H8        1.0  0.5480952071837776  0.44684472044040996  0.596860143402239  1.0000
  H   H9        1.0  0.7885049983736323  0.27697939738534677  0.08536034759323742  1.0000
  H   H10       1.0  0.28850507040212386  0.723020886433332  0.4146378625559991  1.0000
  H   H11       1.0  0.21149444652548513  0.7230211119202536  0.9146387584502663  1.0000
  H   H12       1.0  0.7114943744970006  0.27697962287226824  0.5853612434875046  1.0000
  H   H13       1.0  0.5581103139105538  0.2124700744356858  0.08427582638186952  1.0000
  H   H14       1.0  0.05811137204398159  0.7875291642570801  0.4157245607397471  1.0000
  H   H15       1.0  0.44188913098829363  0.7875285508730837  0.9157247338936685  1.0000
  H   H16       1.0  0.9418890312474557  0.2124704030502969  0.5842752724198235  1.0000
  H   H17       1.0  0.3279763400219906  0.27149872448678286  0.1001796058827864  1.0000
  H   H18       1.0  0.8279755567436099  0.7285015574318691  0.39982155721779833  1.0000
  H   H19       1.0  0.6720240632697738  0.7285017713011468  0.8998217117238455  1.0000
  H   H20       1.0  0.17202388815569952  0.27149893835586164  0.6001797603887838  1.0000
  H   H21       1.0  0.1643299069129327  0.4312394753685281  0.1303427179468883  1.0000
  H   H22       1.0  0.6643309670350845  0.5687607532191095  0.36965621617513034  1.0000
  H   H23       1.0  0.8356695379859856  0.5687600964446133  0.869656378024942  1.0000
  H   H24       1.0  0.33566943625649504  0.43123975608668264  0.6303428898684232  1.0000
  H   H25       1.0  0.1090843838193152  0.6616866169408623  0.15716494181209842  1.0000
  H   H26       1.0  0.60908246579028  0.3383145265709402  0.3428339965020939  1.0000
  H   H27       1.0  0.8909179362573028  0.3383148343637359  0.8428334371155374  1.0000
  H   H28       1.0  0.3909160207165954  0.6616869202269272  0.6571651196130334  1.0000
  H   H29       1.0  0.28758405394871994  0.816783290162462  0.16868729622942175  1.0000
  H   H30       1.0  0.7875830261393729  0.18321698426787952  0.33131238819713366  1.0000
  H   H31       1.0  0.7124173077353078  0.18321721914352912  0.8313118098141814  1.0000
  H   H32       1.0  0.21241641875980827  0.8167835205317645  0.6686874550340606  1.0000
  H   H33       1.0  0.3760291428483739  0.08039386819840641  0.15071210583008826  1.0000
  H   H34       1.0  0.8760293907455078  0.9196036298844703  0.3492875577940141  1.0000
  H   H35       1.0  0.6239703020501466  0.9196038286298174  0.8492869699983816  1.0000
  H   H36       1.0  0.12397005415307658  0.08039406243779722  0.6507122552221531  1.0000
  H   H37       1.0  0.3889053497396517  0.8868540107443009  0.5227383710068737  1.0000
  H   H38       1.0  0.8889024005376668  0.11314679651965061  0.977261649811176  1.0000
  H   H39       1.0  0.6110969703369591  0.1131464895499761  0.4772622094121673  1.0000
  H   H40       1.0  0.1110951275766112  0.8868537082796022  0.022738193419918704  1.0000
  C   C1        1.0  0.809128715963709  0.5916116809555163  0.12302788544867133  1.0000
  C   C2        1.0  0.30912768882632957  0.408386731796817  0.376971043939662  1.0000
  C   C3        1.0  0.19087264571965784  0.40838602037905497  0.8769704531922076  1.0000
  C   C4        1.0  0.690871756072191  0.5916109650314069  0.6230280318888077  1.0000
  C   C5        1.0  0.8504363612186622  0.46800110971083336  0.1056473345483298  1.0000
  C   C6        1.0  0.3504353898350416  0.5319991949005214  0.3943516193794068  1.0000
  C   C7        1.0  0.14956500046537258  0.5319993995951579  0.8943517714952733  1.0000
  C   C8        1.0  0.6495640550640189  0.46800131891103547  0.6056467494763993  1.0000
  C   C9        1.0  0.7599554674138388  0.37363250569368484  0.0993622702363552  1.0000
  C   C10       1.0  0.2599535789914711  0.6263668244637515  0.4006366639904969  1.0000
  C   C11       1.0  0.24004589426998987  0.6263670661198474  0.9006368257355748  1.0000
  C   C12       1.0  0.7400449075147362  0.37363181436268883  0.599361684721913  1.0000
  C   C13       1.0  0.6285799952408836  0.4023600842484285  0.10871677687477903  1.0000
  C   C14       1.0  0.1285809681180865  0.5976410582159701  0.3912836378897141  1.0000
  C   C15       1.0  0.3714194496583616  0.5976404160452586  0.8912838035441126  1.0000
  C   C16       1.0  0.8714194351738768  0.4023603750644185  0.6087176897885982  1.0000
  C   C17       1.0  0.530204822840048  0.3092230465098496  0.09988599661955533  1.0000
  C   C18       1.0  0.030203920201799392  0.6907771092637276  0.40011587197925996  1.0000
  C   C19       1.0  0.46979462205932515  0.6907774447719248  0.9001160581747245  1.0000
  C   C20       1.0  0.9697945663049196  0.3092224445253962  0.5998861727432897  1.0000
  C   C21       1.0  0.4039337494793287  0.3409856218753688  0.1087585183211104  1.0000
  C   C22       1.0  0.90393293506596  0.6590146955776888  0.3912419156753231  1.0000
  C   C23       1.0  0.596067612204621  0.6590139409262505  0.8912420520262004  1.0000
  C   C24       1.0  0.09606650983329248  0.34098580471599854  0.6087586647435687  1.0000
  C   C25       1.0  0.3671190489304621  0.4683317740725883  0.12715309046659232  1.0000
  C   C26       1.0  0.8671191353867866  0.5316694658343764  0.3728473496836742  1.0000
  C   C27       1.0  0.632880395968989  0.5316696637135577  0.8728475000239799  1.0000
  C   C28       1.0  0.1328812679048568  0.46833103896546646  0.6271524935475769  1.0000
  C   C29       1.0  0.23726071354435868  0.5044360745432782  0.13603981765331244  1.0000
  C   C30       1.0  0.737260783055099  0.4955623178632465  0.36395762971135076  1.0000
  C   C31       1.0  0.762740648139143  0.4955625687897082  0.8639577938715491  1.0000
  C   C32       1.0  0.2627396202359479  0.5044363254695414  0.6360399818134612  1.0000
  C   C33       1.0  0.2077537546488841  0.6293049127286919  0.15126198942002136  1.0000
  C   C34       1.0  0.7077556850292268  0.370697208582598  0.3487369694666499  1.0000
  C   C35       1.0  0.792243773465465  0.3706965385749257  0.8487363895073659  1.0000
  C   C36       1.0  0.292246635047725  0.6293051712025528  0.6512628939080544  1.0000
  C   C37       1.0  0.3077658601057749  0.7173716458350154  0.1581008419418666  1.0000
  C   C38       1.0  0.8077639181546205  0.2826267573484955  0.3418995616767689  1.0000
  C   C39       1.0  0.6922364599705728  0.2826279214727592  0.8418989912178035  1.0000
  C   C40       1.0  0.19223360995925276  0.71737187246584  0.6581002614109722  1.0000
  C   C41       1.0  0.46186095595749777  0.5635778303932356  0.1356017855416241  1.0000
  C   C42       1.0  0.9618610003104281  0.4364225107231476  0.36439865461959203  1.0000
  C   C43       1.0  0.5381394473344016  0.43642360739310243  0.8643988049489977  1.0000
  C   C44       1.0  0.03813844458881729  0.5635779895705397  0.6356019257992997  1.0000
  C   C45       1.0  0.5956180323507779  0.5299006849226585  0.1265900005841658  1.0000
  C   C46       1.0  0.0956170309272792  0.4700985555736564  0.37341260209207416  1.0000
  C   C47       1.0  0.40438332933310045  0.4700979313745961  0.8734120340668599  1.0000
  C   C48       1.0  0.9043824139718949  0.5299009982156662  0.6265894426305323  1.0000
  C   C49       1.0  0.3820401789243419  0.043713811728387994  0.22497278414949315  1.0000
  C   C50       1.0  0.8820413879969491  0.9562846263026402  0.2750268901860409  1.0000
  C   C51       1.0  0.6179592659743774  0.9562848225922947  0.775026301750657  1.0000
  C   C52       1.0  0.1179590152942893  0.04371400351228519  0.7249729329018494  1.0000
  C   C53       1.0  0.5131934940985942  0.8303481732894512  0.4014782117029157  1.0000
  C   C54       1.0  0.013192316850037897  0.16965479251830828  0.09852294811284423  1.0000
  C   C55       1.0  0.4868078675860232  0.16965419748359523  0.5985231260471268  1.0000
  C   C56       1.0  0.9868061696571575  0.8303475827601049  0.9014776524493514  1.0000
  C   C57       1.0  0.4404716493569367  0.9280263859425376  0.3482367815077367  1.0000
  C   C58       1.0  0.940472459755661  0.0719730134500125  0.1517629091178492  1.0000
  C   C59       1.0  0.5595277955421097  0.0719731768586982  0.6517637888394747  1.0000
  C   C60       1.0  0.0595279435357767  0.9280265538573715  0.8482369240417215  1.0000
  C   C61       1.0  0.33627598535763065  0.0028594722208055  0.3771999901084798  1.0000
  C   C62       1.0  0.8362743103069902  0.9971389426090909  0.12280041654427275  1.0000
  C   C63       1.0  0.6637253763261198  0.9971391530883551  0.622800570167158  1.0000
  C   C64       1.0  0.163724176199139  0.0028587497129776993  0.8771993964718376  1.0000
  C   C65       1.0  0.2632148631762092  0.010933308330059795  0.4694449243361164  1.0000
  C   C66       1.0  0.7632160438743085  0.98906600964159  0.03055622180085041  1.0000
  C   C67       1.0  0.7367845817228443  0.9890662544711688  0.530555646011095  1.0000
  C   C68       1.0  0.23678531780964815  0.0109335531600294  0.9694443485464675  1.0000
  N   N1        1.0  0.6859120390229805  0.6208791337102256  0.1342489764081733  1.0000
  N   N2        1.0  0.1859109974540232  0.3791210946813309  0.3657514343859277  1.0000
  N   N3        1.0  0.3140902810533674  0.3791204335975494  0.8657508567514968  1.0000
  N   N4        1.0  0.8140884474451653  0.6208794101183129  0.6342484088452665  1.0000
  N   N5        1.0  0.4306355987323869  0.6854727298616935  0.1505199674558781  1.0000
  N   N6        1.0  0.9306365468833132  0.3145285359918333  0.34948047945399463  1.0000
  N   N7        1.0  0.5693638461671284  0.3145287034184959  0.8494813602223845  1.0000
  N   N8        1.0  0.0693648148008421  0.6854719643022449  0.6505201009650038  1.0000
  N   N9        1.0  0.4674187675022878  0.9556333290584718  0.2518020954203807  1.0000
  N   N10       1.0  0.9674195828315887  0.044365139343504695  0.24819832518899432  1.0000
  N   N11       1.0  0.5325806773965596  0.0443652962502981  0.7481984648551574  1.0000
  N   N12       1.0  0.032580820459713805  0.955633485965464  0.7518022350865936  1.0000
  N   N13       1.0  0.30140296779817527  0.0753326388010862  0.2984720923566543  1.0000
  N   N14       1.0  0.8014041506440038  0.9246657662897843  0.20152757339730704  1.0000
  N   N15       1.0  0.6985955187079538  0.924665053520982  0.7015277206594633  1.0000
  N   N16       1.0  0.19859721103969014  0.0753328635253325  0.79847224969064  1.0000
  O   O1        1.0  0.5965477433456599  0.7666751819917791  0.3551496649100586  1.0000
  O   O2        1.0  0.0965475596843461  0.23332500989481283  0.1448507363737619  1.0000
  O   O3        1.0  0.4034526599459767  0.23332532280805657  0.6448501783211926  1.0000
  O   O4        1.0  0.9034528436071553  0.7666745529066148  0.8551498339735064  1.0000
  O   O5        1.0  0.48561767216864377  0.8125215442856586  0.4930453121942975  1.0000
  O   O6        1.0  0.9856146731900921  0.18748348498505862  0.006956655228762501  1.0000
  O   O7        1.0  0.5143856063012819  0.187482701472689  0.506956045699198  1.0000
  O   O8        1.0  0.0143828549253158  0.8125216982645753  0.9930447127361008  1.0000
  O   O9        1.0  0.30339375550649816  0.9439722653147342  0.5439599607312431  1.0000
  O   O10       1.0  0.8033936534334956  0.0560275650200595  0.9560407781026543  1.0000
  O   O11       1.0  0.6966056893925554  0.056027297486494376  0.4560406096159683  1.0000
  O   O12       1.0  0.196606749858141  0.9439729397797835  0.043959065128589714  1.0000
  O   O13       1.0  0.16482918406255456  0.07843835731944182  0.47600094045048286  1.0000
  O   O14       1.0  0.6648284180366628  0.9215599874749502  0.02399944795659791  1.0000
  O   O15       1.0  0.8351712192287407  0.9215602679895267  0.523999619825105  1.0000
  O   O16       1.0  0.33517102686231937  0.078439579832235  0.9760003852029231  1.0000
