data_image0
_chemical_formula_structural       Cu2H16C12N24Cl4O8
_chemical_formula_sum              "Cu2 H16 C12 N24 Cl4 O8"
_cell_length_a       6.484702549140155
_cell_length_b       9.89050641660125
_cell_length_c       11.19033982967054
_cell_angle_alpha    90.58570820937288
_cell_angle_beta     89.99926255300434
_cell_angle_gamma    90.00014738260106

_space_group_name_H-M_alt    "P 1"
_space_group_IT_number       1

loop_
  _space_group_symop_operation_xyz
  'x, y, z'

loop_
  _atom_site_type_symbol
  _atom_site_label
  _atom_site_symmetry_multiplicity
  _atom_site_fract_x
  _atom_site_fract_y
  _atom_site_fract_z
  _atom_site_occupancy
  Cu  Cu1       1.0  0.5000028876438024  3.67672875299743e-07  0.9999999143527418  1.0000
  Cu  Cu2       1.0  8.012003363000012e-07  0.5000007543601656  0.9999995020519704  1.0000
  H   H1        1.0  0.9966460915318013  0.7965281152590366  0.38179673388781055  1.0000
  H   H2        1.0  0.4966419428050558  0.7034764542636369  0.618201958472774  1.0000
  H   H3        1.0  0.0033553595753516995  0.2034737177207759  0.61820363672458  1.0000
  H   H4        1.0  0.5033548820100365  0.2965253731348129  0.3818001993555669  1.0000
  H   H5        1.0  0.8576466098006821  0.7897053452730702  0.2448807920060005  1.0000
  H   H6        1.0  0.35764871994516056  0.7102949750395382  0.7551180016230674  1.0000
  H   H7        1.0  0.1423532992216039  0.21029446825542666  0.7551186618122615  1.0000
  H   H8        1.0  0.6423481048738467  0.289703821789189  0.244883227805083  1.0000
  H   H9        1.0  0.6797395267928508  0.010819419511918203  0.3004737404704301  1.0000
  H   H10       1.0  0.17974402742150636  0.4891728401173624  0.6995340546310658  1.0000
  H   H11       1.0  0.32026038219785147  0.9891793745301668  0.6995283825454734  1.0000
  H   H12       1.0  0.8202527973994834  0.5108269678309298  0.3004671863973769  1.0000
  H   H13       1.0  0.8005607376391313  0.005077577535679701  0.444509929199981  1.0000
  H   H14       1.0  0.3005699837007755  0.49491791815282926  0.5554898467773199  1.0000
  H   H15       1.0  0.19944071347195091  0.9949212248744035  0.5554895130122119  1.0000
  H   H16       1.0  0.6994283832129753  0.5050829009161718  0.4445114058456454  1.0000
  C   C1        1.0  0.920416799206727  0.8577956862398963  0.3135401850332329  1.0000
  C   C2        1.0  0.420417056596115  0.6422006805196858  0.6864589855680592  1.0000
  C   C3        1.0  0.07958156771689323  0.142205135618056  0.6864601739904188  1.0000
  C   C4        1.0  0.5795843944972036  0.35779912743205955  0.3135422554430535  1.0000
  C   C5        1.0  0.1543636396155037  0.9228498851853075  0.1424673433117363  1.0000
  C   C6        1.0  0.65435637229988  0.5771471094170766  0.857529364016223  1.0000
  C   C7        1.0  0.8456378114975609  0.07714992834434041  0.857532110500749  1.0000
  C   C8        1.0  0.3456419946197756  0.42285169020176033  0.1424709718068371  1.0000
  C   C9        1.0  0.7496298337597268  0.9449319142781153  0.36731927483685217  1.0000
  C   C10       1.0  0.24962474628647163  0.5550621724654123  0.6326820456064581  1.0000
  C   C11       1.0  0.25037007524872484  0.055065874222314896  0.6326810493801389  1.0000
  C   C12       1.0  0.7503736206272793  0.44493864660358895  0.36731920701650006  1.0000
  N   N1        1.0  0.07829263610626923  0.9383662556659618  0.2548115650552276  1.0000
  N   N2        1.0  0.5782939521511498  0.5616346614806177  0.7451884393134734  1.0000
  N   N3        1.0  0.9217088149949434  0.0616325439551773  0.745188770756279  1.0000
  N   N4        1.0  0.4217044147704884  0.43836514925776987  0.254811908109879  1.0000
  N   N5        1.0  0.07631134618557671  0.828261001642204  0.0673870908940017  1.0000
  N   N6        1.0  0.5763012741481293  0.6717358736374878  0.9326110947600625  1.0000
  N   N7        1.0  0.9236901049373502  0.17173881467639518  0.9326114693191769  1.0000
  N   N8        1.0  0.42369555067087833  0.32826292319124667  0.0673901346680807  1.0000
  N   N9        1.0  0.1864523702990155  0.03665932050277831  0.3120800570160043  1.0000
  N   N10       1.0  0.6864520001025198  0.46334612716677975  0.6879171154276236  1.0000
  N   N11       1.0  0.8135506229068099  0.9633415041475788  0.6879194083910036  1.0000
  N   N12       1.0  0.313547908919766  0.5366536863617172  0.3120823383906384  1.0000
  N   N13       1.0  0.1409397989536032  0.8244930832662689  0.9568436723759534  1.0000
  N   N14       1.0  0.6409370387494777  0.6755059023810689  0.0431567330955218  1.0000
  N   N15       1.0  0.8590631942423458  0.17550773859513674  0.0431566866303683  1.0000
  N   N16       1.0  0.3590628702649142  0.32449491947803477  0.9568436259223461  1.0000
  N   N17       1.0  0.30917542703763706  0.012880857113025002  0.1326632047437926  1.0000
  N   N18       1.0  0.8091650274071825  0.4871197098092497  0.8673356711736844  1.0000
  N   N19       1.0  0.6908275661642237  0.9871179452982162  0.8673362374626237  1.0000
  N   N20       1.0  0.1908348816249728  0.5128801065081986  0.1326628890452639  1.0000
  N   N21       1.0  0.324158897769472  0.0809817076670214  0.23844166146826504  1.0000
  N   N22       1.0  0.8241520909681912  0.419022928895359  0.7615562549913478  1.0000
  N   N23       1.0  0.6758440954363466  0.9190191169833357  0.7615578039387431  1.0000
  N   N24       1.0  0.17584781805409483  0.580976884633138  0.2384431988269142  1.0000
  Cl  Cl1       1.0  0.5531003550490682  0.8330751833431694  0.4189968772850037  1.0000
  Cl  Cl2       1.0  0.0530953327826822  0.6669175932855183  0.5810076910255901  1.0000
  Cl  Cl3       1.0  0.4469010960205609  0.166922596791558  0.5810061277241445  1.0000
  Cl  Cl4       1.0  0.9468999499593809  0.333083228570132  0.4189926680096079  1.0000
  O   O1        1.0  0.0713072482864803  0.7338945175449184  0.8891217531700022  1.0000
  O   O2        1.0  0.5713203342798181  0.7660983141695895  0.11087374268560518  1.0000
  O   O3        1.0  0.9286942028404115  0.2661073210127967  0.1108768302437682  1.0000
  O   O4        1.0  0.4286842010207437  0.23390453272103426  0.8891257459162105  1.0000
  O   O5        1.0  0.2693457688956826  0.9111647993763654  0.9100604465709664  1.0000
  O   O6        1.0  0.7693416145078943  0.588823272397903  0.08993350777379308  1.0000
  O   O7        1.0  0.7306587663752354  0.08883298633855931  0.0899407712280009  1.0000
  O   O8        1.0  0.23065675242361297  0.4111765411294429  0.9100659460502527  1.0000
