data_image0
_chemical_formula_structural       Zr6H15C52S10O34F5
_chemical_formula_sum              "Zr6 H15 C52 S10 O34 F5"
_cell_length_a       16.45220836208781
_cell_length_b       16.452351781007156
_cell_length_c       16.52532090973882
_cell_angle_alpha    61.76643107115151
_cell_angle_beta     59.84484995480742
_cell_angle_gamma    60.30279316178796

_space_group_name_H-M_alt    "P 1"
_space_group_IT_number       1

loop_
  _space_group_symop_operation_xyz
  'x, y, z'

loop_
  _atom_site_type_symbol
  _atom_site_label
  _atom_site_symmetry_multiplicity
  _atom_site_fract_x
  _atom_site_fract_y
  _atom_site_fract_z
  _atom_site_occupancy
  Zr  Zr1       1.0  0.8876310341721376  0.9027578432978985  0.5974063052202396  1.0000
  Zr  Zr2       1.0  0.11182376254399885  0.10221032843618624  0.3980387360628512  1.0000
  Zr  Zr3       1.0  0.10198169283832914  0.8933295038556964  0.607162882574869  1.0000
  Zr  Zr4       1.0  0.8975475242725893  0.11157760850814916  0.38895143357373024  1.0000
  Zr  Zr5       1.0  0.1088530326986967  0.8931565787489221  0.3890120466596514  1.0000
  Zr  Zr6       1.0  0.8905209046081453  0.11126589700025125  0.6073066993701702  1.0000
  H   H1        1.0  0.07713529044811915  0.7525678147336308  0.5771391166182127  1.0000
  H   H2        1.0  0.0928550235142254  0.08156078467846585  0.24798705741044813  1.0000
  H   H3        1.0  0.08310674249948849  0.08145300230211915  0.5899647301938558  1.0000
  H   H4        1.0  0.7448367449825638  0.09429564074640238  0.5771042141478518  1.0000
  H   H5        1.0  0.12549160247369445  0.6115681065751771  0.36207674612041535  1.0000
  H   H6        1.0  0.6099113290279377  0.12773861501172223  0.8982992339486062  1.0000
  H   H7        1.0  0.8680818293282044  0.12537137353019998  0.11681059933582115  1.0000
  H   H8        1.0  0.6214155705269065  0.39502635491004406  0.3640250686811299  1.0000
  H   H9        1.0  0.09959283055362532  0.6396561737460758  0.8678060938362862  1.0000
  H   H10       1.0  0.8410270381148807  0.6539153708985876  0.8516406019826519  1.0000
  H   H11       1.0  0.892476682057925  0.3726616545330971  0.13483554444206902  1.0000
  H   H12       1.0  0.15305031129916805  0.3560817499545763  0.14910798670689474  1.0000
  H   H13       1.0  0.6211216304225005  0.8768091080422878  0.6105894229623133  1.0000
  H   H14       1.0  0.1834051011155325  0.5606149740743972  0.9400576438330434  1.0000
  H   H15       1.0  0.8168443234495654  0.44402127375548867  0.05564435195330466  1.0000
  C   C1        1.0  0.9941842034560648  0.7388916715417083  0.48464680955026307  1.0000
  C   C2        1.0  0.28172807871919775  0.9881981531992422  0.23497121714148514  1.0000
  C   C3        1.0  0.9975985901427933  0.2721271920265237  0.5051118824521765  1.0000
  C   C4        1.0  0.7243415622879823  0.008654756094543267  0.7679915151031268  1.0000
  C   C5        1.0  0.9800251044096341  0.7407203681933227  0.7656785223602967  1.0000
  C   C6        1.0  0.7310863239513593  0.006943142972957652  0.48580153630348377  1.0000
  C   C7        1.0  0.012877613151729831  0.2703685820414067  0.23597268662464901  1.0000
  C   C8        1.0  0.27557871283077867  0.9911840091631492  0.5014829948536815  1.0000
  C   C9        1.0  0.2721634397160173  0.7300299363153542  0.4968111223335541  1.0000
  C   C10       1.0  0.9907347520356354  0.9965457855172628  0.7776085876994119  1.0000
  C   C11       1.0  0.7339551497353226  0.2815665925742509  0.4929658601636859  1.0000
  C   C12       1.0  0.0003413755490910898  0.0003784121264160789  0.22606472400845234  1.0000
  C   C13       1.0  0.9275302250229273  0.42217459285415504  0.5630126315325797  1.0000
  C   C14       1.0  0.061953770328401006  0.5924893685416208  0.4237414873193828  1.0000
  C   C15       1.0  0.995251303339195  0.36382481898846214  0.5013745432346397  1.0000
  C   C16       1.0  0.9936358932218781  0.6489794498685338  0.48662216491460697  1.0000
  C   C17       1.0  0.03715967891831434  0.5098497053597555  0.4517979521927842  1.0000
  C   C18       1.0  0.9502184918555869  0.5057034797785036  0.5358610535776266  1.0000
  C   C19       1.0  0.42297531053927856  0.9272232087834525  0.08766680587108769  1.0000
  C   C20       1.0  0.5890215190000276  0.0659290202883155  0.917666788795117  1.0000
  C   C21       1.0  0.3706279108568323  0.9888515920594473  0.1460323705678234  1.0000
  C   C22       1.0  0.6390274224910757  0.0038295835222257307  0.8604931148977428  1.0000
  C   C23       1.0  0.5102491267768485  0.03734356662683067  0.0008596626831404554  1.0000
  C   C24       1.0  0.5027165694656618  0.9537235513295739  0.004654725498667622  1.0000
  C   C25       1.0  0.05697751084719718  0.9297846179669308  0.917047924626715  1.0000
  C   C26       1.0  0.9293000731914345  0.0633486299626896  0.09233443332946216  1.0000
  C   C27       1.0  0.990598041598922  0.9951464729976891  0.8671609764095791  1.0000
  C   C28       1.0  0.9973913765977828  0.9976752241009519  0.13973190036854533  1.0000
  C   C29       1.0  0.9512009418381169  0.03805364853071303  0.01118656793180865  1.0000
  C   C30       1.0  0.035853046804966586  0.9531236597777094  0.9990074581985623  1.0000
  C   C31       1.0  0.41431780272426255  0.5938237230189073  0.560505215492107  1.0000
  C   C32       1.0  0.5963436198358636  0.4195087523952949  0.42599935734389754  1.0000
  C   C33       1.0  0.3633698388783911  0.643669169083914  0.49516851196667494  1.0000
  C   C34       1.0  0.6452248359090689  0.37110879312120915  0.49258644148360275  1.0000
  C   C35       1.0  0.5122816262454108  0.5011181328888981  0.45089699020253693  1.0000
  C   C36       1.0  0.49924514305040896  0.5126520969554561  0.5364257332311554  1.0000
  C   C37       1.0  0.04189156429132613  0.6075567433931468  0.8991595307424519  1.0000
  C   C38       1.0  0.8946626094804059  0.6173085196867307  0.8887152932748068  1.0000
  C   C39       1.0  0.8875740991032829  0.5355747008476824  0.969459040131426  1.0000
  C   C40       1.0  0.9573664211519028  0.4866453539499601  0.01930863225140202  1.0000
  C   C41       1.0  0.9509863596667645  0.4039639908160242  0.10270934361324882  1.0000
  C   C42       1.0  0.09889947550001213  0.39325453705624375  0.11254733054569499  1.0000
  C   C43       1.0  0.10705965831880349  0.4741472771581173  0.030827757434337848  1.0000
  C   C44       1.0  0.03630445543151221  0.5241063701962929  0.9818698394343103  1.0000
  C   C45       1.0  0.9721876489434892  0.6532576340904299  0.8537434269880536  1.0000
  C   C46       1.0  0.020352512929953437  0.35838749261075986  0.14849489234300253  1.0000
  C   C47       1.0  0.41700237343336966  0.05745332163802882  0.4309954031656177  1.0000
  C   C48       1.0  0.5958979614373023  0.9359220029971167  0.5514903624054668  1.0000
  C   C49       1.0  0.36650579227912733  0.9911878639321899  0.4973597857225798  1.0000
  C   C50       1.0  0.6438324263802144  0.0037268911228236956  0.4850819050265258  1.0000
  C   C51       1.0  0.5131490695944124  0.9555977990916418  0.5312552538593638  1.0000
  C   C52       1.0  0.500597638357128  0.03830585854763057  0.4492778705330809  1.0000
  S   S1        1.0  0.08874814657152537  0.4118041692484411  0.4080426350677868  1.0000
  S   S2        1.0  0.8989148218194032  0.6029065203078686  0.5801418504075712  1.0000
  S   S3        1.0  0.41997175783396307  0.08113780187452585  0.09890553469712422  1.0000
  S   S4        1.0  0.5919427833343676  0.9101654477471826  0.9067774884054103  1.0000
  S   S5        1.0  0.8999099036317375  0.08714726650987356  0.9220003110890079  1.0000
  S   S6        1.0  0.0882015465447951  0.9044800473790175  0.08681884684519754  1.0000
  S   S7        1.0  0.42081348136342445  0.5901423612157259  0.40189735875394933  1.0000
  S   S8        1.0  0.5900350332604706  0.42402956548755794  0.5857721260156694  1.0000
  S   S9        1.0  0.42265326719650165  0.9031994675281754  0.5837118646122124  1.0000
  S   S10       1.0  0.5898496588663847  0.09160085072421956  0.3972192900152934  1.0000
  O   O1        1.0  0.9225807064667892  0.7771958505788134  0.5521424523377193  1.0000
  O   O2        1.0  0.2475024804343064  0.05653691592270604  0.27220724721325235  1.0000
  O   O3        1.0  0.07064414282614705  0.2333037670328793  0.43850345188128875  1.0000
  O   O4        1.0  0.7567204639553538  0.942852787572079  0.728205167462214  1.0000
  O   O5        1.0  0.05163655071931555  0.7710167532054939  0.7347086491701944  1.0000
  O   O6        1.0  0.7662978811696065  0.07512484231273212  0.41977977041111086  1.0000
  O   O7        1.0  0.9417775163844555  0.2394630743984507  0.26624325668932164  1.0000
  O   O8        1.0  0.23884362169334847  0.9248018782822881  0.5699087279625346  1.0000
  O   O9        1.0  0.239649829879717  0.7625721427172393  0.4273860216124562  1.0000
  O   O10       1.0  0.9229479628542948  0.06736771270504968  0.7435486280838504  1.0000
  O   O11       1.0  0.7652573007875603  0.24681815237723  0.5636103046354749  1.0000
  O   O12       1.0  0.06926139086467493  0.9312931281207214  0.25922507173049064  1.0000
  O   O13       1.0  0.05972301603744511  0.9277292896330213  0.7401527995209564  1.0000
  O   O14       1.0  0.770998964788646  0.2452354715020986  0.4232955520357748  1.0000
  O   O15       1.0  0.9341785341575529  0.07250753750268753  0.2597371367566481  1.0000
  O   O16       1.0  0.23212883312969954  0.764957512270165  0.5680941105367978  1.0000
  O   O17       1.0  0.9144078386879289  0.7784119138315474  0.7262137736171682  1.0000
  O   O18       1.0  0.23964649086316586  0.06017185588483195  0.4355523356399402  1.0000
  O   O19       1.0  0.08012028869295311  0.23085890087102706  0.27372025647015624  1.0000
  O   O20       1.0  0.7632518018558585  0.9404883599807548  0.5550352297423587  1.0000
  O   O21       1.0  0.7582636480708587  0.07777902939243822  0.7346106099161105  1.0000
  O   O22       1.0  0.0660760194616399  0.7701271599837655  0.41792911518031417  1.0000
  O   O23       1.0  0.24452620796689206  0.9218476027927026  0.2669232800647663  1.0000
  O   O24       1.0  0.9282647907190125  0.23800609458481148  0.5739175370720702  1.0000
  O   O25       1.0  0.8172283547735475  0.0691763715592302  0.554034845777487  1.0000
  O   O26       1.0  0.058836430130050084  0.05850117963095155  0.5647930604386957  1.0000
  O   O27       1.0  0.06647942305755808  0.05845585124801291  0.3190039097470603  1.0000
  O   O28       1.0  0.05532194499541299  0.8235829037502568  0.5538604564246442  1.0000
  O   O29       1.0  0.13360320628468253  0.9531763717270039  0.4566378979495767  1.0000
  O   O30       1.0  0.9559396102430494  0.9611311756981636  0.44838271736166746  1.0000
  O   O31       1.0  0.9581100462674359  0.13413934019499146  0.45698203653272873  1.0000
  O   O32       1.0  0.9501752303283124  0.9613389303515378  0.6296557261491244  1.0000
  O   O33       1.0  0.18477995620217066  0.5043066455316064  0.9987150792013254  1.0000
  O   O34       1.0  0.8118404624661222  0.5031030227035559  0.9999212859377593  1.0000
  F   F1        1.0  0.8481307348235203  0.40253168174823634  0.641196513840228  1.0000
  F   F2        1.0  0.4008996368397534  0.8502026146025655  0.10627126891782265  1.0000
  F   F3        1.0  0.13476810814754708  0.8517219947727598  0.8912484240928505  1.0000
  F   F4        1.0  0.3869754490892062  0.6184749072471334  0.6397112363506922  1.0000
  F   F5        1.0  0.39059599135757844  0.13330014241935834  0.35658920930676896  1.0000
