data_image0
_chemical_formula_structural       Zn2H70C70N18O12
_chemical_formula_sum              "Zn2 H70 C70 N18 O12"
_cell_length_a       16.798486187006826
_cell_length_b       17.860325567694545
_cell_length_c       23.59968496231228
_cell_angle_alpha    92.63366292234929
_cell_angle_beta     89.99992080110655
_cell_angle_gamma    90.00006811208696

_space_group_name_H-M_alt    "P 1"
_space_group_IT_number       1

loop_
  _space_group_symop_operation_xyz
  'x, y, z'

loop_
  _atom_site_type_symbol
  _atom_site_label
  _atom_site_symmetry_multiplicity
  _atom_site_fract_x
  _atom_site_fract_y
  _atom_site_fract_z
  _atom_site_occupancy
  Zn  Zn1       1.0  0.4111452071402724  0.49999988283186536  0.5000001037970065  1.0000
  Zn  Zn2       1.0  0.5907465096868307  0.4999999836942879  0.5000004422794362  1.0000
  H   H1        1.0  0.5368240694655667  0.6872761429561154  0.9505268257091191  1.0000
  H   H2        1.0  0.32047879333539003  0.7284915241894511  0.5540186505886525  1.0000
  H   H3        1.0  0.22614167994878187  0.7108729474025992  0.5856015279161042  1.0000
  H   H4        1.0  0.2356634420623251  0.7080998849780968  0.5105805142314637  1.0000
  H   H5        1.0  0.653691457508053  0.3915681033098295  0.44059401848254254  1.0000
  H   H6        1.0  0.6924182190554262  0.34531934312249757  0.3512915822475621  1.0000
  H   H7        1.0  0.7897109306072848  0.3845914801497443  0.3597586139393769  1.0000
  H   H8        1.0  0.7068618487388534  0.4437236191169803  0.345753392923875  1.0000
  H   H9        1.0  0.3487210982900351  0.38818825281269653  0.4610155168848138  1.0000
  H   H10       1.0  0.32047980532273357  0.2715087037895785  0.4459816599407774  1.0000
  H   H11       1.0  0.22614158423339598  0.2891266252235383  0.4143997032565068  1.0000
  H   H12       1.0  0.5368110167740667  0.3127287885623744  0.049471717696150115  1.0000
  H   H13       1.0  0.2356649906216859  0.2918996943241866  0.4894202840365054  1.0000
  H   H14       1.0  0.6536908816793029  0.6084319431320183  0.5594080777934494  1.0000
  H   H15       1.0  0.6924169325800946  0.6546840972293496  0.648709306117226  1.0000
  H   H16       1.0  0.7897108024376819  0.6154120764450897  0.6402434534887932  1.0000
  H   H17       1.0  0.7068610249546482  0.5562804191584122  0.654250041564751  1.0000
  H   H18       1.0  0.6312939074176427  0.43711883393913814  0.7737462639072348  1.0000
  H   H19       1.0  0.6312885616224334  0.5628923760544498  0.22625364541874404  1.0000
  H   H20       1.0  0.6141763962172107  0.4380687278502434  0.6681506795822189  1.0000
  H   H21       1.0  0.6141738215578271  0.5619385329801788  0.33184828110797343  1.0000
  H   H22       1.0  0.3726809267713093  0.5599509708141567  0.6420251110112717  1.0000
  H   H23       1.0  0.4501174599265311  0.12852396713798703  0.5791390590432144  1.0000
  H   H24       1.0  0.2836263840128553  0.576854184568873  0.7456264478955533  1.0000
  H   H25       1.0  0.28580464996875327  0.6407834546007223  0.6898651694170539  1.0000
  H   H26       1.0  0.3552668128307843  0.6507926055763918  0.7465703166193194  1.0000
  H   H27       1.0  0.372681127083453  0.4400487532039109  0.3579751331489334  1.0000
  H   H28       1.0  0.2836285495524606  0.4231454357615761  0.2543730332200553  1.0000
  H   H29       1.0  0.28580603322743053  0.3592156003391126  0.31013344518091673  1.0000
  H   H30       1.0  0.3552694839021271  0.34920877012760343  0.2534287227687743  1.0000
  H   H31       1.0  0.40837387216291887  0.5532533581325226  0.794764592617625  1.0000
  H   H32       1.0  0.40837318547568907  0.44674921056662253  0.20523612517997952  1.0000
  H   H33       1.0  0.4206607675013601  0.3306779565373503  0.5756921426909544  1.0000
  H   H34       1.0  0.5588229559139251  0.8864965738783681  0.5861073885712145  1.0000
  H   H35       1.0  0.39069367186067433  0.2935488529438217  0.6653517894936343  1.0000
  H   H36       1.0  0.45406005579106085  0.21438493180914264  0.6561883392353779  1.0000
  H   H37       1.0  0.35428084907975693  0.20976545434165672  0.6301770428057055  1.0000
  H   H38       1.0  0.5854913253519597  0.7841511754554275  0.6291892875723378  1.0000
  H   H39       1.0  0.5445535978058942  0.673140359352246  0.6720365093395628  1.0000
  H   H40       1.0  0.4887009882870288  0.6466130941683732  0.6112852418950894  1.0000
  H   H41       1.0  0.4573797199477667  0.7251119570400989  0.6550257607349012  1.0000
  H   H42       1.0  0.42066171886126824  0.6693212662172529  0.4243088868171086  1.0000
  H   H43       1.0  0.39069662842327085  0.7064497732515636  0.33464882790658385  1.0000
  H   H44       1.0  0.454063092696856  0.7856143307425186  0.3438130823724066  1.0000
  H   H45       1.0  0.45011926364594507  0.8714752947783994  0.42086279016515254  1.0000
  H   H46       1.0  0.3542832461301089  0.7902336892751479  0.3698232021022463  1.0000
  H   H47       1.0  0.5854882466761921  0.21584766528072663  0.37081156849717445  1.0000
  H   H48       1.0  0.5445555018073804  0.3268601185041433  0.32796443587531604  1.0000
  H   H49       1.0  0.48870221240732553  0.35338788369575275  0.3887157731600652  1.0000
  H   H50       1.0  0.457379145522431  0.27489065381610095  0.344973638919143  1.0000
  H   H51       1.0  0.06266025733300748  0.6152023329183082  0.550146736973794  1.0000
  H   H52       1.0  0.0936183349253312  0.6536719249840744  0.6463055531957168  1.0000
  H   H53       1.0  0.18738331113568304  0.6079373824593546  0.6380831017164041  1.0000
  H   H54       1.0  0.09881220004795917  0.5533443491693861  0.6392032181505699  1.0000
  H   H55       1.0  0.93930649230699  0.4032694145034271  0.43473559334677964  1.0000
  H   H56       1.0  0.5588155001343509  0.1135022307130527  0.413892645148934  1.0000
  H   H57       1.0  0.9016655403714748  0.27655060208097393  0.4158152720646911  1.0000
  H   H58       1.0  0.8029691381006855  0.298447540230022  0.43909819620423474  1.0000
  H   H59       1.0  0.8822053961779871  0.2987063550623219  0.4893427849462455  1.0000
  H   H60       1.0  0.06266021158033648  0.38479818003121125  0.44985425924810585  1.0000
  H   H61       1.0  0.09361723683785068  0.34632750052269046  0.35369538010950663  1.0000
  H   H62       1.0  0.1873816585114128  0.3920621409335823  0.3619173185989339  1.0000
  H   H63       1.0  0.09881002192042838  0.4466545178457225  0.360797269622303  1.0000
  H   H64       1.0  0.9393064859521087  0.5967326153510017  0.5652654339335257  1.0000
  H   H65       1.0  0.9016632732343978  0.7234508374396994  0.5841870458127403  1.0000
  H   H66       1.0  0.8029680794347342  0.7015521109900789  0.5609041652688802  1.0000
  H   H67       1.0  0.5314149226221546  0.6896950057565122  0.05778747078532122  1.0000
  H   H68       1.0  0.8822026484540189  0.7012956238687876  0.5106595681746671  1.0000
  H   H69       1.0  0.5314031174874073  0.31030991990609647  0.9422110777615915  1.0000
  H   H70       1.0  0.34872116142091164  0.6118120130123048  0.5389856145002342  1.0000
  C   C1        1.0  0.4986466270641826  0.6466435397421506  0.5081135328318425  1.0000
  C   C2        1.0  0.4422547399164642  0.4708539361846178  0.29308673095371773  1.0000
  C   C3        1.0  0.4528594401205766  0.5280114055269108  0.7663451550275225  1.0000
  C   C4        1.0  0.4528587297592424  0.4719923250300369  0.23365470626245613  1.0000
  C   C5        1.0  0.5199904472378876  0.4958150176852527  0.7890849746522265  1.0000
  C   C6        1.0  0.519989225429569  0.5041910274768284  0.2109148897929174  1.0000
  C   C7        1.0  0.47308446305274293  0.15653740652087586  0.5426000382662366  1.0000
  C   C8        1.0  0.5354256224740581  0.8519740284992139  0.5505999159584718  1.0000
  C   C9        1.0  0.47308794730719234  0.8434607593021894  0.4574017556209143  1.0000
  C   C10       1.0  0.5354193313953103  0.14802474712614364  0.44939971615199437  1.0000
  C   C11       1.0  0.4662922357671631  0.23481618346593797  0.539560752683471  1.0000
  C   C12       1.0  0.4986470563950149  0.3533552069680255  0.49188740579541007  1.0000
  C   C13       1.0  0.5310519620851862  0.7739951579946265  0.554438871338526  1.0000
  C   C14       1.0  0.4662914501424282  0.7651842169225844  0.46044111463617554  1.0000
  C   C15       1.0  0.5310487514766463  0.22600418791378732  0.4455624770794344  1.0000
  C   C16       1.0  0.4972415222867922  0.27032815940659566  0.4907474224303385  1.0000
  C   C17       1.0  0.4972441700549409  0.7296705857834453  0.509253517531633  1.0000
  C   C18       1.0  0.5072173172808975  0.1134241023584153  0.4977160988842683  1.0000
  C   C19       1.0  0.5072219587506623  0.886574093153186  0.5022848148498582  1.0000
  C   C20       1.0  0.5002072910698345  0.4952979420636368  0.6086590999477793  1.0000
  C   C21       1.0  0.5002069116697497  0.5047036087380904  0.3913419209129573  1.0000
  C   C22       1.0  0.5094877089809842  0.0341368066154857  0.4996548832262989  1.0000
  C   C23       1.0  0.579447007761054  0.4627553763219082  0.7549288350157753  1.0000
  C   C24       1.0  0.5094894759527547  0.9658625123136344  0.5003460618375328  1.0000
  C   C25       1.0  0.16161737156950554  0.5576055667382251  0.5306958177143744  1.0000
  C   C26       1.0  0.8379967646116314  0.4458280699864972  0.46577879267980665  1.0000
  C   C27       1.0  0.16161735955849107  0.44239504245119593  0.4693038128775414  1.0000
  C   C28       1.0  0.8379961702615617  0.5541727364855261  0.5342231451286352  1.0000
  C   C29       1.0  0.2454731465127793  0.5584413860899887  0.5264841588226049  1.0000
  C   C30       1.0  0.753879665683577  0.45046157228940603  0.4640938838556537  1.0000
  C   C31       1.0  0.24547253003184008  0.4415587570444828  0.4735157991602109  1.0000
  C   C32       1.0  0.753879657627209  0.5495380257814588  0.535908524284153  1.0000
  C   C33       1.0  0.12036483886058848  0.49999972178193997  0.49999981816108635  1.0000
  C   C34       1.0  0.5794433797042728  0.5372524146546099  0.24507102313783952  1.0000
  C   C35       1.0  0.8793885900524856  0.5000007004329988  0.5000003218231583  1.0000
  C   C36       1.0  0.0363090504834958  0.5000007972386913  0.4999998916018456  1.0000
  C   C37       1.0  0.9633485364607067  0.5000013099998027  0.5000007225099381  1.0000
  C   C38       1.0  0.5349775231746038  0.4323429995697694  0.12099350066827701  1.0000
  C   C39       1.0  0.5349834224723864  0.5676624904401494  0.8790050612267637  1.0000
  C   C40       1.0  0.5257779688786002  0.5728952676236929  0.12395407434302541  1.0000
  C   C41       1.0  0.5257717939647861  0.42710965557285624  0.8760449034119518  1.0000
  C   C42       1.0  0.5320458546775484  0.5703847635943192  0.06119175049118302  1.0000
  C   C43       1.0  0.5320407521218583  0.42962184419639027  0.9388068476827984  1.0000
  C   C44       1.0  0.5339537514631161  0.5006574414009678  0.030200150009960708  1.0000
  C   C45       1.0  0.5694664030686596  0.46302404504650246  0.6966001152104014  1.0000
  C   C46       1.0  0.5339540329879853  0.4993491684583589  0.969798446347703  1.0000
  C   C47       1.0  0.5349972284887556  0.43223163806548126  0.05814055626047581  1.0000
  C   C48       1.0  0.5350018158297373  0.5677738483309728  0.9418575817645163  1.0000
  C   C49       1.0  0.5331049473051409  0.636860523474411  0.032785448022600916  1.0000
  C   C50       1.0  0.5330955404471283  0.36314552861429666  0.9672135562551746  1.0000
  C   C51       1.0  0.5355238982869466  0.6355413766712206  0.9732720081959698  1.0000
  C   C52       1.0  0.5355127395273411  0.3644641066528537  0.026725705483890708  1.0000
  C   C53       1.0  0.26590242981479406  0.6948692938896812  0.5502578228277458  1.0000
  C   C54       1.0  0.7261623448914919  0.3939551688456646  0.36818144507965667  1.0000
  C   C55       1.0  0.2659028808860953  0.3051308822666813  0.44974338728916063  1.0000
  C   C56       1.0  0.5694638524968311  0.5369820500490263  0.30339927834883446  1.0000
  C   C57       1.0  0.7261610308226097  0.606047197982747  0.6318206492752055  1.0000
  C   C58       1.0  0.3231585639144114  0.609654888512118  0.718729061470505  1.0000
  C   C59       1.0  0.32316004153343403  0.39034589558085747  0.2812704155506367  1.0000
  C   C60       1.0  0.4068225054748211  0.24662548512522173  0.6359842383351691  1.0000
  C   C61       1.0  0.5098076571343525  0.6949768907378129  0.6370329672311004  1.0000
  C   C62       1.0  0.4068254633858146  0.7533748436084977  0.3640168378140629  1.0000
  C   C63       1.0  0.5098076805418259  0.30502466682448676  0.3629676206508634  1.0000
  C   C64       1.0  0.12472291464817431  0.6062144415162793  0.6249621457628579  1.0000
  C   C65       1.0  0.8661242357711456  0.3118872405124621  0.4455011295890827  1.0000
  C   C66       1.0  0.12472123879130241  0.39378445355296793  0.3750383173776086  1.0000
  C   C67       1.0  0.5027485306814583  0.49514895493286565  0.6714707899208677  1.0000
  C   C68       1.0  0.8661237681288371  0.6881130359331709  0.5545007647364031  1.0000
  C   C69       1.0  0.5027476776079214  0.5048542727932103  0.32852943105042  1.0000
  C   C70       1.0  0.4422549712935222  0.5291492260446375  0.7069135475258221  1.0000
  N   N1        1.0  0.5275971121320708  0.5031057607471326  0.14988672525528562  1.0000
  N   N2        1.0  0.37735242095618554  0.43664212882471537  0.3148023922413827  1.0000
  N   N3        1.0  0.4339381132063949  0.27672578196534664  0.5837137935019214  1.0000
  N   N4        1.0  0.5606515860942309  0.7429191101430703  0.6038063118995609  1.0000
  N   N5        1.0  0.433939146902837  0.7232729019525835  0.4162880543444417  1.0000
  N   N6        1.0  0.5606485094194226  0.25707914321832703  0.3961945510406366  1.0000
  N   N7        1.0  0.12033270193413868  0.6131702822413345  0.563378410745166  1.0000
  N   N8        1.0  0.8801541315954324  0.3907914718634231  0.4337823378034075  1.0000
  N   N9        1.0  0.12033208898776587  0.38682972540195243  0.4366216662031307  1.0000
  N   N10       1.0  0.8801535435612992  0.6092099370993013  0.5662191528192936  1.0000
  N   N11       1.0  0.5275994078836277  0.49689917169178704  0.8501130984701677  1.0000
  N   N12       1.0  0.2856118717833239  0.49999981487358264  0.5000001634665027  1.0000
  N   N13       1.0  0.7140772656210641  0.500000618208823  0.5000012481041197  1.0000
  N   N14       1.0  0.2903468449527792  0.6160012560697368  0.550837463539608  1.0000
  N   N15       1.0  0.7110722409396929  0.40199518121307426  0.42893049272570494  1.0000
  N   N16       1.0  0.29034620425415614  0.3839989429182325  0.44916329948765826  1.0000
  N   N17       1.0  0.7110716296467814  0.5980054878361188  0.5710715657442691  1.0000
  N   N18       1.0  0.37735214140030127  0.5633587175777918  0.6851974571128352  1.0000
  O   O1        1.0  0.43528138986296483  0.6123086807024694  0.48992414606619417  1.0000
  O   O2        1.0  0.5400517972748416  0.6255489209613216  0.853025309018179  1.0000
  O   O3        1.0  0.5181141921825584  0.6318628254760412  0.15231145761112694  1.0000
  O   O4        1.0  0.5181014508415416  0.36814263899746896  0.8476862726201164  1.0000
  O   O5        1.0  0.5606693474344197  0.3877715081747652  0.4770306327031477  1.0000
  O   O6        1.0  0.4352812312673179  0.38769055788147  0.5100768695432194  1.0000
  O   O7        1.0  0.5606694420414157  0.6122284411852805  0.5229719758564642  1.0000
  O   O8        1.0  0.4350580040553069  0.5164867442558361  0.5851620428865516  1.0000
  O   O9        1.0  0.5625750175835195  0.5247408575679559  0.41860918035736466  1.0000
  O   O10       1.0  0.43505814827472716  0.48351304366458686  0.4148377181226195  1.0000
  O   O11       1.0  0.5625736390027355  0.4752585152036986  0.5813912903882681  1.0000
  O   O12       1.0  0.5400481572160273  0.3744565672692346  0.14697240035363282  1.0000
