data_image0
_chemical_formula_structural       Zn4H16C54N22O12
_chemical_formula_sum              "Zn4 H16 C54 N22 O12"
_cell_length_a       18.55213247264971
_cell_length_b       18.494928260747127
_cell_length_c       18.536988514732112
_cell_angle_alpha    100.25801706751986
_cell_angle_beta     111.8149782332547
_cell_angle_gamma    110.25937928016575

_space_group_name_H-M_alt    "P 1"
_space_group_IT_number       1

loop_
  _space_group_symop_operation_xyz
  'x, y, z'

loop_
  _atom_site_type_symbol
  _atom_site_label
  _atom_site_symmetry_multiplicity
  _atom_site_fract_x
  _atom_site_fract_y
  _atom_site_fract_z
  _atom_site_occupancy
  Zn  Zn1       1.0  0.8628217885027921  0.0025079855344287082  0.3601332955728294  1.0000
  Zn  Zn2       1.0  0.12801997531469309  0.9986398281220658  0.6327701863710046  1.0000
  Zn  Zn3       1.0  0.09424703468928189  0.10914707940135318  0.48767429998409983  1.0000
  Zn  Zn4       1.0  0.8957968357734816  0.9161105183247855  0.5203237866818924  1.0000
  H   H1        1.0  0.8709226804542994  0.02170123963147562  0.1921950262993447  1.0000
  H   H2        1.0  0.14102746539887787  0.10614361691748538  0.7995206395691525  1.0000
  H   H3        1.0  0.1280015946601338  0.011434990257669097  0.3629464259178333  1.0000
  H   H4        1.0  0.7087007884311092  0.8670819548197812  0.5223147921882115  1.0000
  H   H5        1.0  0.8459348707417504  0.7347913615323378  0.41249156338754017  1.0000
  H   H6        1.0  0.24553830812321564  0.31277377757486846  0.6231143150118399  1.0000
  H   H7        1.0  0.1950966430668402  0.8941697457682591  0.5430429586696518  1.0000
  H   H8        1.0  0.6619376165735034  0.965995636210323  0.3235639727714458  1.0000
  H   H9        1.0  0.8370675693013608  0.7263828268672368  0.5475374915276203  1.0000
  H   H10       1.0  0.09866975792859731  0.25863341596362227  0.6240670148572888  1.0000
  H   H11       1.0  0.14574276791081783  0.1822514740534444  0.35459024925572175  1.0000
  H   H12       1.0  0.8700619808131975  0.032950854174906355  0.6376025415034475  1.0000
  H   H13       1.0  0.6281971720717506  0.5740329861316267  0.01379830889909771  1.0000
  H   H14       1.0  0.37041833083767983  0.43289094691700575  0.04549558555907402  1.0000
  H   H15       1.0  0.4679819235865708  0.5823561424676739  0.9385646258522937  1.0000
  H   H16       1.0  0.5293706708087457  0.42346803315816584  0.12062357338546555  1.0000
  C   C1        1.0  0.9363256683327279  0.0576714403308855  0.24351185353695107  1.0000
  C   C2        1.0  0.0772361768643748  0.08358974235854078  0.7472822800824729  1.0000
  C   C3        1.0  0.04848132719056509  0.8165372026058365  0.6228981533950416  1.0000
  C   C4        1.0  0.9032636690153736  0.1653686907544055  0.4659653518267033  1.0000
  C   C5        1.0  0.1371370573085073  0.9876840354447792  0.413467140254582  1.0000
  C   C6        1.0  0.7114148420924381  0.8938866773089486  0.4752315804342757  1.0000
  C   C7        1.0  0.8385996551054051  0.7736297808748988  0.37558449642068575  1.0000
  C   C8        1.0  0.24513554955743896  0.26357368516334384  0.6475918272947466  1.0000
  C   C9        1.0  0.1704210044939245  0.9270703628865321  0.5053244784761404  1.0000
  C   C10       1.0  0.687672464747614  0.9444319889146726  0.3734410116507547  1.0000
  C   C11       1.0  0.8010108134923825  0.8275711355589193  0.2801117354666402  1.0000
  C   C12       1.0  0.2617160919789683  0.18507608848700832  0.7221375233210735  1.0000
  C   C13       1.0  0.9063051266568748  0.7640843399907878  0.5714520465008306  1.0000
  C   C14       1.0  0.03562839000873909  0.21979588738585676  0.5701810487882141  1.0000
  C   C15       1.0  0.0769324979246804  0.14027691155703784  0.3265608880099933  1.0000
  C   C16       1.0  0.9380500769146849  0.04575935606401058  0.6652938358345607  1.0000
  C   C17       1.0  0.012642882246389299  0.10983477295757643  0.24307898406523518  1.0000
  C   C18       1.0  0.0024904077094162996  0.08563714787270985  0.7490819191093506  1.0000
  C   C19       1.0  0.9743591133199132  0.7415351112893732  0.5992998904005091  1.0000
  C   C20       1.0  0.9661444498048795  0.239044019113784  0.5347051657602222  1.0000
  C   C21       1.0  0.1787475281457489  0.9380863009499903  0.4348443368809143  1.0000
  C   C22       1.0  0.6476242869330376  0.9087998270895242  0.4185208932586304  1.0000
  C   C23       1.0  0.7793962219046832  0.7506227093743973  0.29191335784302186  1.0000
  C   C24       1.0  0.2838601013967762  0.2690583165084704  0.7308292168588152  1.0000
  C   C25       1.0  0.5219277988896704  0.4484367195632756  0.9986747832824959  1.0000
  C   C26       1.0  0.47799024328093515  0.5581246855882186  0.061398519580606645  1.0000
  C   C27       1.0  0.5701729187516094  0.5425568826777577  0.019879601731552905  1.0000
  C   C28       1.0  0.4281126560805717  0.4632013694330296  0.03838620646447303  1.0000
  C   C29       1.0  0.7088308090228778  0.6750411775649708  0.23487845579619893  1.0000
  C   C30       1.0  0.3294815245085587  0.33720614884057903  0.8045332189206817  1.0000
  C   C31       1.0  0.5163433750803533  0.45919996553086406  0.08086605801194925  1.0000
  C   C32       1.0  0.4822947800630503  0.5470316550569834  0.9784351800865281  1.0000
  C   C33       1.0  0.5686425920738927  0.5557024717176516  0.10625795795302638  1.0000
  C   C34       1.0  0.4307679382248608  0.45044368663653955  0.9524419508500798  1.0000
  C   C35       1.0  0.6422955859281813  0.6157953636992417  0.18021100788831731  1.0000
  C   C36       1.0  0.3687188060632494  0.39201377953013156  0.8723307005046335  1.0000
  C   C37       1.0  0.9694178852014943  0.6648354594033704  0.5996182327962243  1.0000
  C   C38       1.0  0.9640228406557158  0.31404550806777104  0.5562260259463727  1.0000
  C   C39       1.0  0.9659530369574227  0.596556529500155  0.5962313968646453  1.0000
  C   C40       1.0  0.9637824252826376  0.38153494209601035  0.5706661775349813  1.0000
  C   C41       1.0  0.9640167206134223  0.5228458782835261  0.5904280323621265  1.0000
  C   C42       1.0  0.9636572827761755  0.4548495522827239  0.5826457409815546  1.0000
  C   C43       1.0  0.5650042038427048  0.8952999122181782  0.4088617503640535  1.0000
  C   C44       1.0  0.22918720441421664  0.9141198269135061  0.4048862799421258  1.0000
  C   C45       1.0  0.49328969771899983  0.8887795295377574  0.39872406413155653  1.0000
  C   C46       1.0  0.28461330868288565  0.8993571888659131  0.39323969913122153  1.0000
  C   C47       1.0  0.4178118531619859  0.8866170270427604  0.39130421638724033  1.0000
  C   C48       1.0  0.3512694242300256  0.8898113261352808  0.3882684119304685  1.0000
  C   C49       1.0  0.0187778476764962  0.12514347584975374  0.17384622187768167  1.0000
  C   C50       1.0  0.9967832331923318  0.11140716286845269  0.8217435244403147  1.0000
  C   C51       1.0  0.016210826497548694  0.1326123175012768  0.10838450769018947  1.0000
  C   C52       1.0  0.0008881034509685001  0.1257719477765704  0.8910180387191459  1.0000
  C   C53       1.0  0.011934198178892103  0.1362888526098232  0.0354497804833471  1.0000
  C   C54       1.0  0.005722746571556999  0.13443376268382684  0.9662641169085474  1.0000
  N   N1        1.0  0.9539433429979739  0.0573894882145537  0.32025636419733405  1.0000
  N   N2        1.0  0.05803623722185589  0.04458931083662068  0.669497318859797  1.0000
  N   N3        1.0  0.026249956198967115  0.8762034125926589  0.6094733130719446  1.0000
  N   N4        1.0  0.9331726019069323  0.10918921798332079  0.462593156401084  1.0000
  N   N5        1.0  0.10867496231141868  0.005962717590079966  0.46832503539553016  1.0000
  N   N6        1.0  0.7826280079344912  0.9187622488633735  0.4639457749510995  1.0000
  N   N7        1.0  0.8886066648893377  0.8568691244002694  0.4094770604857914  1.0000
  N   N8        1.0  0.20346583221095224  0.1832994503900309  0.5968243911878871  1.0000
  N   N9        1.0  0.12936186371011618  0.9682239933336805  0.5247405759700712  1.0000
  N   N10       1.0  0.7679493665246041  0.9503460331133055  0.4012250316076304  1.0000
  N   N11       1.0  0.8656602302034955  0.8895297931510554  0.35041610101213627  1.0000
  N   N12       1.0  0.2136017635075902  0.13539286312730067  0.6426966505147645  1.0000
  N   N13       1.0  0.9391074055752497  0.8440666330878414  0.5778808990458018  1.0000
  N   N14       1.0  0.014532942903940702  0.14243734867960003  0.5252636115520843  1.0000
  N   N15       1.0  0.040885876602928306  0.10885881521257088  0.3719438316511585  1.0000
  N   N16       1.0  0.9721399478208639  0.020820592991604714  0.6185614908077781  1.0000
  N   N17       1.0  0.5391310058245579  0.3862193338512156  0.9573836439492707  1.0000
  N   N18       1.0  0.4569690526799519  0.6178671407867142  0.10187128399119413  1.0000
  N   N19       1.0  0.13794955588249988  0.8351431256350281  0.6551535911285739  1.0000
  N   N20       1.0  0.823612977985789  0.14920983237620788  0.3984415722830049  1.0000
  N   N21       1.0  0.7561511721312614  0.846375140556013  0.2111130496696205  1.0000
  N   N22       1.0  0.2788549973680716  0.14828066963644193  0.7833790943855873  1.0000
  O   O1        1.0  0.5342091385604775  0.3269862149708588  0.9810846916105617  1.0000
  O   O2        1.0  0.5531204805369682  0.3963893283040675  0.898553430432976  1.0000
  O   O3        1.0  0.44175396658091864  0.6666431799913681  0.06808361876745292  1.0000
  O   O4        1.0  0.4578918572001385  0.6148592578868132  0.16852816906727947  1.0000
  O   O5        1.0  0.159260605201041  0.7798109778013185  0.6640384450480495  1.0000
  O   O6        1.0  0.19095487762419341  0.9085573447454324  0.6721421215453205  1.0000
  O   O7        1.0  0.7927979433953922  0.19808274866721826  0.403864373879287  1.0000
  O   O8        1.0  0.790132488148295  0.0858423095894094  0.3349974089673962  1.0000
  O   O9        1.0  0.7049859787046059  0.7906566696088574  0.14317806369218286  1.0000
  O   O10       1.0  0.7697909902006048  0.9208464365519617  0.22412855138122714  1.0000
  O   O11       1.0  0.3261410032076171  0.19226585429853316  0.8570854591019169  1.0000
  O   O12       1.0  0.2424021162062218  0.0697880418549843  0.7588130628878885  1.0000
