data_image0
_chemical_formula_structural       Al6H48C84Cl20O28
_chemical_formula_sum              "Al6 H48 C84 Cl20 O28"
_cell_length_a       13.505225624413752
_cell_length_b       13.914206992313806
_cell_length_c       27.998020959232083
_cell_angle_alpha    88.99023222072952
_cell_angle_beta     88.89677185050641
_cell_angle_gamma    61.13924106782691

_space_group_name_H-M_alt    "P 1"
_space_group_IT_number       1

loop_
  _space_group_symop_operation_xyz
  'x, y, z'

loop_
  _atom_site_type_symbol
  _atom_site_label
  _atom_site_symmetry_multiplicity
  _atom_site_fract_x
  _atom_site_fract_y
  _atom_site_fract_z
  _atom_site_occupancy
  Al  Al1       1.0  0.17498666009702654  0.41413989878520846  0.497997040597582  1.0000
  Al  Al2       1.0  0.9415033643739078  0.6410776102593873  0.5015699430682758  1.0000
  Al  Al3       1.0  0.9288993057271923  0.431562149412713  0.4994153000332489  1.0000
  Al  Al4       1.0  0.15569912717079865  0.9095398543604534  0.99850554644366  1.0000
  Al  Al5       1.0  0.38287149290555084  0.9293733256962968  0.9986797107676821  1.0000
  Al  Al6       1.0  0.4053713565539852  0.7036551232464563  0.999738073153715  1.0000
  H   H1        1.0  0.7252782851940012  0.8099782418556246  0.2166343319372075  1.0000
  H   H2        1.0  0.3419088792210516  0.071458026231852  0.30977521313292294  1.0000
  H   H3        1.0  0.08380025574530243  0.34080283371664427  0.28348412632008285  1.0000
  H   H4        1.0  0.042915123308397106  0.10319560025385505  0.22097543387624088  1.0000
  H   H5        1.0  0.258798333376383  0.47598862017316185  0.280908713154723  1.0000
  H   H6        1.0  0.21454672752118836  0.7617435505109499  0.28355503198530835  1.0000
  H   H7        1.0  0.3156695742528298  0.6259622406253982  0.3003440217325561  1.0000
  H   H8        1.0  0.3477235078292509  0.5631671434090679  0.22105915128381073  1.0000
  H   H9        1.0  0.11466605546196024  0.5102891777860279  0.2829841046470634  1.0000
  H   H10       1.0  0.09163436804930565  0.5501514045679843  0.2006514570131728  1.0000
  H   H11       1.0  0.8299884641308494  0.5114919858183243  0.7392529027836972  1.0000
  H   H12       1.0  0.6798043662076552  0.5362199608727637  0.7941178563224156  1.0000
  H   H13       1.0  0.6173915445381656  0.8706311681084031  0.788971480019228  1.0000
  H   H14       1.0  0.8176682837087269  0.7022301107728596  0.7949270974439315  1.0000
  H   H15       1.0  0.5121294117555237  0.8377165715391683  0.7709187376488771  1.0000
  H   H16       1.0  0.25819813672057285  0.0075748568860519025  0.6945883104559343  1.0000
  H   H17       1.0  0.3227214200328916  0.09152509550647643  0.6986120000919911  1.0000
  H   H18       1.0  0.5423442961718337  0.6197213044547498  0.2967320601742784  1.0000
  H   H19       1.0  0.06815801371344321  0.073106836738738  0.7094936324408679  1.0000
  H   H20       1.0  0.045021595943183  0.35169575705213424  0.7207285100089749  1.0000
  H   H21       1.0  0.08260952979770053  0.3271997185563933  0.7994674085054498  1.0000
  H   H22       1.0  0.9924966278829432  0.6690518289034982  0.7230777522516265  1.0000
  H   H23       1.0  0.05167472948186706  0.8137287765800638  0.7170874469171481  1.0000
  H   H24       1.0  0.121603631797008  0.8211832926892981  0.7927987607883082  1.0000
  H   H25       1.0  0.30769756599350734  0.4749761675245736  0.703675729501839  1.0000
  H   H26       1.0  0.3428745209309199  0.5816554348935414  0.7056203565092574  1.0000
  H   H27       1.0  0.290196747839822  0.46811611149779264  0.7874000074237202  1.0000
  H   H28       1.0  0.09853196463080148  0.5303515414737987  0.7303938078232973  1.0000
  H   H29       1.0  0.086253600822758  0.5698618416932959  0.8122017379511205  1.0000
  H   H30       1.0  0.3746560895262833  0.5333689901941412  0.7869754296081269  1.0000
  H   H31       1.0  0.1718341792818308  0.9788018334667542  0.22106658273074942  1.0000
  H   H32       1.0  0.20408421440861704  0.9942399843511043  0.3029972239812011  1.0000
  H   H33       1.0  0.2966379413238017  0.202903149081223  0.2843575481930358  1.0000
  H   H34       1.0  0.3443504342074774  0.9922586133797611  0.2353110979591904  1.0000
  H   H35       1.0  0.056478407848636905  0.08382262413689291  0.30475015772091046  1.0000
  H   H36       1.0  0.18113354169371124  0.28252089622839094  0.21240118772077216  1.0000
  H   H37       1.0  0.5771874389868688  0.8905477271208255  0.2963959479558795  1.0000
  H   H38       1.0  0.9668191413011729  0.7226192451728366  0.2718948254432192  1.0000
  H   H39       1.0  0.013321433048872485  0.8197818781260726  0.2815790862423455  1.0000
  H   H40       1.0  0.9957450680514555  0.7342430447840584  0.1907661601947979  1.0000
  H   H41       1.0  0.8797351801907426  0.6040541050501744  0.7224057128086799  1.0000
  H   H42       1.0  0.33363628850083427  0.06985787077683632  0.7802125243115087  1.0000
  H   H43       1.0  0.011765420269128498  0.7133337729112768  0.8018822666573371  1.0000
  H   H44       1.0  0.18864239333481675  0.7812857979936114  0.6961704702134598  1.0000
  H   H45       1.0  0.4280452319252177  0.8278138678084588  0.2525740740037605  1.0000
  H   H46       1.0  0.263451979602671  0.7472812381198677  0.773167958566809  1.0000
  H   H47       1.0  0.36173878233060475  0.32903512071322183  0.5250408513618439  1.0000
  H   H48       1.0  0.9710471716696176  0.9730213100002915  0.0276274246102588  1.0000
  C   C1        1.0  0.10083218253635108  0.6075875410299504  0.4311248699700059  1.0000
  C   C2        1.0  0.7374785117748391  0.6471737593149598  0.3927937837071411  1.0000
  C   C3        1.0  0.5197386531396477  0.7787779484708822  0.2547428215479002  1.0000
  C   C4        1.0  0.6015941654801296  0.7349848267284788  0.20929454168619088  1.0000
  C   C5        1.0  0.581978379004859  0.6631639796323583  0.27892156035616017  1.0000
  C   C6        1.0  0.6643517913192342  0.696511845219085  0.3044828303776441  1.0000
  C   C7        1.0  0.6641199422609106  0.6181931918097662  0.2351857734458704  1.0000
  C   C8        1.0  0.7466702716439858  0.6529995052455462  0.2588165601328427  1.0000
  C   C9        1.0  0.5727765286410075  0.749695251163715  0.16038537837847852  1.0000
  C   C10       1.0  0.701640329570253  0.6718923187302864  0.35224302708029853  1.0000
  C   C11       1.0  0.13586006785336482  0.0704691132314323  0.2878432643712401  1.0000
  C   C12       1.0  0.7949146139000547  0.6138454131106813  0.4377084104531974  1.0000
  C   C13       1.0  0.282896525526148  0.13126242573940772  0.2841053485079712  1.0000
  C   C14       1.0  0.3045562969108246  0.08194642527683274  0.2337571538107923  1.0000
  C   C15       1.0  0.20725947434976183  0.07526670945404851  0.1158251100663819  1.0000
  C   C16       1.0  0.1595228099292072  0.16552781621182083  0.29998068855422844  1.0000
  C   C17       1.0  0.1307302842002471  0.06417042532115153  0.2331118428271779  1.0000
  C   C18       1.0  0.18959521651099454  0.12404749093938963  0.2079529393823947  1.0000
  C   C19       1.0  0.12208831191411208  0.2496663859875384  0.21726137024142392  1.0000
  C   C20       1.0  0.07987233451412118  0.2692601010630328  0.2698982213965095  1.0000
  C   C21       1.0  0.20270780154356058  0.09929002151024244  0.1575420908032896  1.0000
  C   C22       1.0  0.14015876039705696  0.19727982308975814  0.3497725813668566  1.0000
  C   C23       1.0  0.08941505016293413  0.29921025829980863  0.4327689769613627  1.0000
  C   C24       1.0  0.11820335022466107  0.23637917100077038  0.3895042801847879  1.0000
  C   C25       1.0  0.17416352880881908  0.5367649556385318  0.2689727171942735  1.0000
  C   C26       1.0  0.24302407325166797  0.6745194300902501  0.2772871723951909  1.0000
  C   C27       1.0  0.2765700826200971  0.6465280025590587  0.2247167388224014  1.0000
  C   C28       1.0  0.21511968463759953  0.6651917132321545  0.1046665764908496  1.0000
  C   C29       1.0  0.14461731592363952  0.6505272716912175  0.2896423640072854  1.0000
  C   C30       1.0  0.17044046944531036  0.5437429691926924  0.2140858418766598  1.0000
  C   C31       1.0  0.17682451361645238  0.648194700395088  0.19670975253200138  1.0000
  C   C32       1.0  0.058431190430056346  0.7441610458080845  0.21138317041332041  1.0000
  C   C33       1.0  0.036936271478659015  0.7402008240474985  0.2655023612453959  1.0000
  C   C34       1.0  0.10536649919621507  0.6021314934634675  0.5675783932296952  1.0000
  C   C35       1.0  0.19619462912178412  0.6504299525117647  0.1458741182407834  1.0000
  C   C36       1.0  0.1292776946653334  0.6474838414903843  0.3408236344853393  1.0000
  C   C37       1.0  0.1190286172289063  0.6364705753952365  0.38343315330441635  1.0000
  C   C38       1.0  0.809125476084091  0.5981106360802428  0.7391818750545269  1.0000
  C   C39       1.0  0.6161329210886494  0.6206332636526568  0.7269263652224396  1.0000
  C   C40       1.0  0.6173021540664295  0.6193010113244172  0.7829581877290223  1.0000
  C   C41       1.0  0.6013442931426314  0.7371650805532396  0.8932199410691908  1.0000
  C   C42       1.0  0.7003471210527367  0.6631969813241626  0.7084245297556464  1.0000
  C   C43       1.0  0.7881547858569959  0.6422288276822671  0.7904805613817061  1.0000
  C   C44       1.0  0.658918377224225  0.6992316171286604  0.8012702950760797  1.0000
  C   C45       1.0  0.8055522599518384  0.5968989761023807  0.5689860888813242  1.0000
  C   C46       1.0  0.6036566115140614  0.8079502042522367  0.7717854580382806  1.0000
  C   C47       1.0  0.6512561863976175  0.7888726446240852  0.7204924923686703  1.0000
  C   C48       1.0  0.6317723804658615  0.7209532460569011  0.8516687483071834  1.0000
  C   C49       1.0  0.7283579457019516  0.6412477264457196  0.6581421271397688  1.0000
  C   C50       1.0  0.7570572599991366  0.6217768829796457  0.616498517141693  1.0000
  C   C51       1.0  0.13131270540137052  0.28388833538730296  0.7252544286274443  1.0000
  C   C52       1.0  0.25307726984228657  0.07930789338688271  0.7124875336159134  1.0000
  C   C53       1.0  0.26309853452455917  0.060562264203106515  0.7668752920038243  1.0000
  C   C54       1.0  0.1878977125259099  0.10048269863337819  0.8860526430976137  1.0000
  C   C55       1.0  0.13950040026309551  0.18101998517757784  0.7001969447311183  1.0000
  C   C56       1.0  0.09188637949820594  0.29163012065296817  0.5633631607746565  1.0000
  C   C57       1.0  0.15297718190610243  0.2616859020499335  0.7799664717828207  1.0000
  C   C58       1.0  0.15652528380086042  0.1499686868472878  0.7936650595119161  1.0000
  C   C59       1.0  0.04228623737868281  0.15832228808225324  0.7757561956266414  1.0000
  C   C60       1.0  0.04480559420568401  0.15691926483496133  0.7200704963699709  1.0000
  C   C61       1.0  0.16935798589855017  0.12896274370403663  0.844561723590708  1.0000
  C   C62       1.0  0.12779690939764524  0.20167611945282007  0.6491875870528644  1.0000
  C   C63       1.0  0.1146197962677675  0.23060225007585447  0.6076206574093702  1.0000
  C   C64       1.0  0.07799140454381615  0.615710449986729  0.7365370632599024  1.0000
  C   C65       1.0  0.14208261208316475  0.7546189873091085  0.7208100410328626  1.0000
  C   C66       1.0  0.1814238440500164  0.7490465888154744  0.7725172329469032  1.0000
  C   C67       1.0  0.6016432298646421  0.8128172797801415  0.2786712984594145  1.0000
  C   C68       1.0  0.23132453296402397  0.6761075457702859  0.8879387097397213  1.0000
  C   C69       1.0  0.16240165826415878  0.6394146896422513  0.7067725215084337  1.0000
  C   C70       1.0  0.08511379326552061  0.636467366665059  0.7901475857854053  1.0000
  C   C71       1.0  0.19424604095116388  0.6437364629634104  0.798277950237356  1.0000
  C   C72       1.0  0.29394341524060513  0.5417965042342346  0.7751324854461359  1.0000
  C   C73       1.0  0.28486618945483855  0.5538237589582664  0.7203655895742572  1.0000
  C   C74       1.0  0.21359823546441706  0.6548979014440875  0.8481024510274082  1.0000
  C   C75       1.0  0.1438147052693212  0.6338821751536656  0.6564316517814106  1.0000
  C   C76       1.0  0.12900511649782226  0.6251965715201777  0.6143862352078316  1.0000
  C   C77       1.0  0.22108877550182632  0.0350113704751323  0.0678953740322328  1.0000
  C   C78       1.0  0.6839206472042534  0.7685503522348968  0.2348089637576436  1.0000
  C   C79       1.0  0.5128502535819451  0.7682143200402438  0.06959422659473803  1.0000
  C   C80       1.0  0.24161225800774128  0.7061219320843366  0.06145196006529831  1.0000
  C   C81       1.0  0.21816749256472429  0.04506021368813862  0.931758216334778  1.0000
  C   C82       1.0  0.5411817375769773  0.7615061425148539  0.9382802643267568  1.0000
  C   C83       1.0  0.2530018244709851  0.7159147070773315  0.9313464811212455  1.0000
  C   C84       1.0  0.5521184733764671  0.7545380061468807  0.1179214176378949  1.0000
  Cl  Cl1       1.0  0.4041229248319169  0.10951390238567882  0.20145620875898368  1.0000
  Cl  Cl2       1.0  0.9362756737273655  0.30010710228621224  0.2788394131619611  1.0000
  Cl  Cl3       1.0  0.013690563037769665  0.3240201161349746  0.1754092203569684  1.0000
  Cl  Cl4       1.0  0.28015874529262424  0.4199924752274954  0.1886508928828547  1.0000
  Cl  Cl5       1.0  0.3299504876677304  0.7318226355085002  0.1992763065646201  1.0000
  Cl  Cl6       1.0  0.8922703491821765  0.5733504862129736  0.2610870974963717  1.0000
  Cl  Cl7       1.0  0.0400191110588111  0.8758383114380451  0.1930464308401341  1.0000
  Cl  Cl8       1.0  0.8677851871467368  0.5344762923586047  0.8322348286227097  1.0000
  Cl  Cl9       1.0  0.479331507697168  0.6981484407767057  0.7025726906605386  1.0000
  Cl  Cl10      1.0  0.6678252848766065  0.4818848009013481  0.707823390628775  1.0000
  Cl  Cl11      1.0  0.4888036811529162  0.6405960910018679  0.8096706675553449  1.0000
  Cl  Cl12      1.0  0.7650566160244099  0.8227975272874352  0.714956228728063  1.0000
  Cl  Cl13      1.0  0.5477996319234677  0.8801085199607144  0.6794948127311072  1.0000
  Cl  Cl14      1.0  0.7027191318514099  0.49567848080806703  0.2073117941336946  1.0000
  Cl  Cl15      1.0  0.27534335570160107  0.26350896594095025  0.8015174581166846  1.0000
  Cl  Cl16      1.0  0.2207879706081286  0.3273849113726969  0.6957223222881339  1.0000
  Cl  Cl17      1.0  0.2980138214826411  0.9231391516291013  0.7830274410112992  1.0000
  Cl  Cl18      1.0  0.9116701905916147  0.24115009963735903  0.6937947931546162  1.0000
  Cl  Cl19      1.0  0.9277931085235308  0.28098160732152183  0.799783475935648  1.0000
  Cl  Cl20      1.0  0.022367574025437917  0.04773135973003659  0.7974910359347192  1.0000
  O   O1        1.0  0.16273459822226502  0.3208063747293579  0.44910984077542787  1.0000
  O   O2        1.0  0.8300518155166117  0.666882299632313  0.5499206491810966  1.0000
  O   O3        1.0  0.8247075972223216  0.5059128793318166  0.5506655118544757  1.0000
  O   O4        1.0  0.9972122032815635  0.3166783222312688  0.5432377751681301  1.0000
  O   O5        1.0  0.012847713438226467  0.49651790712827204  0.4998436000061801  1.0000
  O   O6        1.0  0.16800972999041633  0.7997775742211316  0.047275234827765196  1.0000
  O   O7        1.0  0.15718635418186708  0.998675770370426  0.0542467672641749  1.0000
  O   O8        1.0  0.3025158435293137  0.0361378447547551  0.0431197051940302  1.0000
  O   O9        1.0  0.4889011739053117  0.8592004180019119  0.0486978664140736  1.0000
  O   O10       1.0  0.5007429308011738  0.6904807319463446  0.05182359578041229  1.0000
  O   O11       1.0  0.34032154039289275  0.6465480324717987  0.042748943969158404  1.0000
  O   O12       1.0  0.16940370374393154  0.5124610103034897  0.4457519025160508  1.0000
  O   O13       1.0  0.1757798510035826  0.8060428159724469  0.947234834707757  1.0000
  O   O14       1.0  0.15257493325866991  0.0130287209116204  0.9494193693554112  1.0000
  O   O15       1.0  0.3128853106166432  0.028968305094714705  0.9489107071350489  1.0000
  O   O16       1.0  0.5039545212258716  0.8584378958520562  0.9543563148266969  1.0000
  O   O17       1.0  0.5242732633507928  0.6862351285395931  0.9570181692723382  1.0000
  O   O18       1.0  0.35218011619560485  0.6571951722561453  0.9495132782850533  1.0000
  O   O19       1.0  0.31679071785450946  0.8468458959379105  0.9987333213167203  1.0000
  O   O20       1.0  0.01286590222631641  0.6799623356412213  0.45370028959003855  1.0000
  O   O21       1.0  0.8261545273904504  0.6785448465027814  0.455845624586189  1.0000
  O   O22       1.0  0.8146262559501168  0.5207695719286107  0.4552459240878548  1.0000
  O   O23       1.0  0.9888551935132812  0.3315331819649857  0.4498775200339438  1.0000
  O   O24       1.0  0.1635824249806177  0.3199728396053772  0.5497594933689172  1.0000
  O   O25       1.0  0.17353368563960472  0.5107377348411718  0.5493641088576737  1.0000
  O   O26       1.0  0.012712479048730007  0.675944991597959  0.5483729821678197  1.0000
  O   O27       1.0  0.32271502731816076  0.3394372873464562  0.4952338183864954  1.0000
  O   O28       1.0  0.008093402975582262  0.9734322191301036  0.997798818039044  1.0000
