data_image0
_chemical_formula_structural       Cs4P4H12C8N12O16
_chemical_formula_sum              "Cs4 P4 H12 C8 N12 O16"
_cell_length_a       6.793593943158872
_cell_length_b       7.469436131078868
_cell_length_c       14.972425924024085
_cell_angle_alpha    89.99988842701596
_cell_angle_beta     90.00017934939083
_cell_angle_gamma    93.67863801388145

_space_group_name_H-M_alt    "P 1"
_space_group_IT_number       1

loop_
  _space_group_symop_operation_xyz
  'x, y, z'

loop_
  _atom_site_type_symbol
  _atom_site_label
  _atom_site_symmetry_multiplicity
  _atom_site_fract_x
  _atom_site_fract_y
  _atom_site_fract_z
  _atom_site_occupancy
  Cs  Cs1       1.0  0.541096851429181  0.7974140278249067  0.3720232121484344  1.0000
  Cs  Cs2       1.0  0.45890208535926297  0.7025837975613027  0.8720236696362491  1.0000
  Cs  Cs3       1.0  0.4589038649704379  0.20258206706338908  0.6279752837556883  1.0000
  Cs  Cs4       1.0  0.5410989785706876  0.297417663462049  0.1279768299488353  1.0000
  P   P1        1.0  0.7509459787047916  0.7134382493266003  0.637790620991261  1.0000
  P   P2        1.0  0.24905278797714914  0.7865590690921634  0.13779109452034533  1.0000
  P   P3        1.0  0.24905343900800153  0.28656052156072326  0.36220921069952533  1.0000
  P   P4        1.0  0.7509453310421677  0.21344237779773317  0.8622080692737839  1.0000
  H   H1        1.0  0.8736027726510613  0.9317549559773536  0.5364469721495909  1.0000
  H   H2        1.0  0.1263970540408508  0.568246752142272  0.03644681453705801  1.0000
  H   H3        1.0  0.12639829127666502  0.06824650504717769  0.4635528595410605  1.0000
  H   H4        1.0  0.8736024505528662  0.43175336027970695  0.9635530171531314  1.0000
  H   H5        1.0  0.3442880906742759  0.6459338262271785  0.6043054768590679  1.0000
  H   H6        1.0  0.655712012946303  0.8540649590910759  0.10430579544672719  1.0000
  H   H7        1.0  0.655712886370317  0.3540662932638766  0.395693686937733  1.0000
  H   H8        1.0  0.3442859323133974  0.1459338047283438  0.8956940362430146  1.0000
  H   H9        1.0  0.83214660497638  0.48486017508686524  0.7363853662254485  1.0000
  H   H10       1.0  0.16785557300347165  0.015140506915862797  0.2363853189293081  1.0000
  H   H11       1.0  0.16785584452131272  0.5151399514721077  0.2636137975723969  1.0000
  H   H12       1.0  0.8321439315902383  0.9848596055061093  0.7636145127608884  1.0000
  C   C1        1.0  0.115400136234399  0.7924024127195962  0.5620749458615677  1.0000
  C   C2        1.0  0.884601246245751  0.707597870391673  0.0620763994814126  1.0000
  C   C3        1.0  0.8846009276911105  0.20759904830611475  0.4379242179346505  1.0000
  C   C4        1.0  0.11540129014173323  0.29240359769723057  0.9379254358935968  1.0000
  C   C5        1.0  0.09735026061296992  0.557940509028782  0.6784930543528347  1.0000
  C   C6        1.0  0.9026488632772501  0.9420580071316349  0.1784929710669871  1.0000
  C   C7        1.0  0.9026507164338399  0.4420596104611007  0.3215067773384064  1.0000
  C   C8        1.0  0.0973463108358743  0.057943425622440294  0.8215061927250531  1.0000
  N   N1        1.0  0.9201940136270752  0.8173062792497346  0.5686789783145443  1.0000
  N   N2        1.0  0.0798059402575788  0.6826939734648078  0.0686793116470739  1.0000
  N   N3        1.0  0.07980705030287541  0.18269518177361718  0.4313215212705472  1.0000
  N   N4        1.0  0.920192091885255  0.31730613188807416  0.9313211879365113  1.0000
  N   N5        1.0  0.1927668381752596  0.6597991978714147  0.6117443706777764  1.0000
  N   N6        1.0  0.8072333148522192  0.8401995611662371  0.1117449181319188  1.0000
  N   N7        1.0  0.8072356982077835  0.3402022702198478  0.3882561289083597  1.0000
  N   N8        1.0  0.19276610286279802  0.15979920971990677  0.8882555814533006  1.0000
  N   N9        1.0  0.9003150524958273  0.5733981435079586  0.6893789613166632  1.0000
  N   N10       1.0  0.0996871754820177  0.9266016898647106  0.18937908699899  1.0000
  N   N11       1.0  0.0996873101209417  0.4266006415163587  0.3106202024817719  1.0000
  N   N12       1.0  0.9003125028713158  0.0734011056277453  0.810620076795594  1.0000
  O   O1        1.0  0.22712115777658687  0.8886784777616652  0.5116957012626244  1.0000
  O   O2        1.0  0.7728767714366143  0.61131928612491  0.011697089142352  1.0000
  O   O3        1.0  0.7728783468126893  0.11132163466266576  0.4883027946386918  1.0000
  O   O4        1.0  0.22711961448906953  0.3886781290919429  0.988302742546928  1.0000
  O   O5        1.0  0.19272300228414715  0.4552582332305234  0.724796289532236  1.0000
  O   O6        1.0  0.807280397417685  0.044739813712446584  0.22479645493812228  1.0000
  O   O7        1.0  0.8072808327879456  0.5447405588605251  0.2752035421616768  1.0000
  O   O8        1.0  0.19271763472071507  0.9552602916427942  0.7752027088565896  1.0000
  O   O9        1.0  0.5936572477641208  0.6092483059640015  0.5850996994329449  1.0000
  O   O10       1.0  0.4063442876321233  0.8907518958078737  0.08509962794727241  1.0000
  O   O11       1.0  0.40634372928047213  0.3907518135270607  0.4148994643638559  1.0000
  O   O12       1.0  0.5936538313849767  0.10924955108319517  0.9148988679524166  1.0000
  O   O13       1.0  0.6793269172267317  0.8509599060342976  0.7021695163495353  1.0000
  O   O14       1.0  0.3206767812660871  0.6490385476887183  0.2021675531594482  1.0000
  O   O15       1.0  0.32067527163930276  0.14903619591483153  0.2978329869222592  1.0000
  O   O16       1.0  0.6793230708535135  0.3509669308706691  0.7978329464228365  1.0000
