data_image0
_chemical_formula_structural       Zr6H52C108O44
_chemical_formula_sum              "Zr6 H52 C108 O44"
_cell_length_a       19.015189843945805
_cell_length_b       19.015185831622855
_cell_length_c       19.015171802259772
_cell_angle_alpha    59.99997543550779
_cell_angle_beta     60.00000895990577
_cell_angle_gamma    59.99996713532589

_space_group_name_H-M_alt    "P 1"
_space_group_IT_number       1

loop_
  _space_group_symop_operation_xyz
  'x, y, z'

loop_
  _atom_site_type_symbol
  _atom_site_label
  _atom_site_symmetry_multiplicity
  _atom_site_fract_x
  _atom_site_fract_y
  _atom_site_fract_z
  _atom_site_occupancy
  Zr  Zr1       1.0  0.907058328962762  0.4070578001265445  0.5929421800993637  1.0000
  Zr  Zr2       1.0  0.09294247211668241  0.5929430216736693  0.4070574748907133  1.0000
  Zr  Zr3       1.0  0.09294440154254612  0.4070564944563202  0.5929441200390713  1.0000
  Zr  Zr4       1.0  0.90705631060694  0.5929442384135657  0.40705635689947434  1.0000
  Zr  Zr5       1.0  0.907057517320951  0.5929432669562972  0.5929431606459513  1.0000
  Zr  Zr6       1.0  0.09294329133258838  0.40705651062629056  0.40705688690022146  1.0000
  H   H1        1.0  0.9268420246189065  0.4268425051501696  0.7194750522320132  1.0000
  H   H2        1.0  0.9268418888874805  0.7194750911382717  0.42684177670040657  1.0000
  H   H3        1.0  0.21947492867762716  0.4268418676004516  0.42684174282994275  1.0000
  H   H4        1.0  0.9268424247847092  0.42684197094627785  0.42684149826509094  1.0000
  H   H5        1.0  0.32171350382779446  0.3865849168850915  0.17691582316886917  1.0000
  H   H6        1.0  0.43666411582324843  0.3200016579257224  0.0634749331511557  1.0000
  H   H7        1.0  0.3176257633681061  0.6109599740641303  0.1809468563642013  1.0000
  H   H8        1.0  0.6769168975441958  0.6147864739950964  0.8217130430312592  1.0000
  H   H9        1.0  0.563477144686473  0.6798587949601612  0.9366650425226195  1.0000
  H   H10       1.0  0.6809491358417081  0.3904663527674474  0.8176252522086429  1.0000
  H   H11       1.0  0.8865845981950645  0.8217144291290026  0.6147845430480101  1.0000
  H   H12       1.0  0.8200001335097441  0.936665978799184  0.679857440744854  1.0000
  H   H13       1.0  0.11096034953200029  0.817627437751206  0.3904653703444935  1.0000
  H   H14       1.0  0.11478720984325716  0.1769164308434058  0.386584686227664  1.0000
  H   H15       1.0  0.17985888966850183  0.06347810061129171  0.31999903515939104  1.0000
  H   H16       1.0  0.8904669238326549  0.18094844943469507  0.6109587579652426  1.0000
  H   H17       1.0  0.3217123061972417  0.17691625782126166  0.6147868588882657  1.0000
  H   H18       1.0  0.43666504472167134  0.06347773958795976  0.6798584622956267  1.0000
  H   H19       1.0  0.3176262927621353  0.18095016354668303  0.3904650887901795  1.0000
  H   H20       1.0  0.6769168793967282  0.8217139991558968  0.3865843586908823  1.0000
  H   H21       1.0  0.5634784460896041  0.9366668238531589  0.31999839278443415  1.0000
  H   H22       1.0  0.6809475493715806  0.8176268535086566  0.6109593206640652  1.0000
  H   H23       1.0  0.1147860349738892  0.3865834188993279  0.821713383251577  1.0000
  H   H24       1.0  0.17985768354272852  0.3199980915747463  0.9366664307983609  1.0000
  H   H25       1.0  0.8904674673063651  0.6109602176142278  0.8176253103421656  1.0000
  H   H26       1.0  0.8865855672179351  0.6147861015583802  0.1769161015135835  1.0000
  H   H27       1.0  0.820001686717667  0.6798591957063851  0.06347584624236179  1.0000
  H   H28       1.0  0.11095984817909972  0.39046606797458605  0.18094837567896596  1.0000
  H   H29       1.0  0.11478622698451335  0.8217142468142743  0.17691661133817138  1.0000
  H   H30       1.0  0.179860612842873  0.9366646616142592  0.0634762359354468  1.0000
  H   H31       1.0  0.8904659002356751  0.8176275339989235  0.18094948763572213  1.0000
  H   H32       1.0  0.8865843418011893  0.17691747858688722  0.8217143292649636  1.0000
  H   H33       1.0  0.8200012041149098  0.06347695250501324  0.9366645984095779  1.0000
  H   H34       1.0  0.11095973022183624  0.18094881500542234  0.8176257320297606  1.0000
  H   H35       1.0  0.3217151418113461  0.6147852720372884  0.3865827968681685  1.0000
  H   H36       1.0  0.4366672282902541  0.6798572706120468  0.3199986120321156  1.0000
  H   H37       1.0  0.3176270377502491  0.39046559601669645  0.6109587270405114  1.0000
  H   H38       1.0  0.6769180840740391  0.3865826315091855  0.6147847505612416  1.0000
  H   H39       1.0  0.5634774602567275  0.3199992478853703  0.6798578271519061  1.0000
  H   H40       1.0  0.680949467420774  0.6109581284659741  0.39046575583046905  1.0000
  H   H41       1.0  0.6207767047134496  0.31469054375492084  0.8790358402225634  1.0000
  H   H42       1.0  0.3790384367342341  0.6854959008322012  0.12077706607148286  1.0000
  H   H43       1.0  0.8146899875679948  0.1207758309274285  0.6854971756693615  1.0000
  H   H44       1.0  0.18549686569887308  0.8790397606422861  0.3146877988161093  1.0000
  H   H45       1.0  0.6207771063245532  0.8790392527892341  0.6854962583115307  1.0000
  H   H46       1.0  0.3790390121551965  0.12077793805078581  0.31468814536594886  1.0000
  H   H47       1.0  0.1854973099811374  0.31468889759506175  0.12077621890916389  1.0000
  H   H48       1.0  0.8146916837565783  0.6854980134352009  0.879035295413672  1.0000
  H   H49       1.0  0.1854985882364488  0.12077631990422345  0.8790363219042162  1.0000
  H   H50       1.0  0.8146904498081894  0.8790383012191044  0.1207757994295875  1.0000
  H   H51       1.0  0.6207784196481825  0.685495290262459  0.3146877674995421  1.0000
  H   H52       1.0  0.379037773750973  0.31469010254432567  0.6854967774428784  1.0000
  C   C1        1.0  0.7616445809428571  0.5031931255454724  0.7345455068755554  1.0000
  C   C2        1.0  0.0006185040488162032  0.7345468860199632  0.5031913811025389  1.0000
  C   C3        1.0  0.2345460330488294  0.5006177389689201  0.26164386745395507  1.0000
  C   C4        1.0  0.0031922934129724645  0.2616446277271011  0.5006177945006057  1.0000
  C   C5        1.0  0.0006162235148395354  0.2616453522077864  0.7345463577725224  1.0000
  C   C6        1.0  0.7616445607855766  0.5006163088887379  0.5031927767369381  1.0000
  C   C7        1.0  0.0031934115209253165  0.7345471057529596  0.2616441181991007  1.0000
  C   C8        1.0  0.23454691200642255  0.5031933077858854  0.5006159044762696  1.0000
  C   C9        1.0  0.0031927457168733748  0.5006183402455948  0.7345451843531021  1.0000
  C   C10       1.0  0.2345460153172355  0.2616442702343562  0.5031919219207878  1.0000
  C   C11       1.0  0.0006183673066146423  0.5031916184183702  0.2616445819661095  1.0000
  C   C12       1.0  0.7616442982609399  0.7345460609278831  0.5006176468048336  1.0000
  C   C13       1.0  0.35126905622360033  0.43565017521094523  0.14766173824180118  1.0000
  C   C14       1.0  0.4256828614884185  0.4343739649603223  0.0743914154118315  1.0000
  C   C15       1.0  0.46460854980792016  0.37000323570985244  0.03576259015265041  1.0000
  C   C16       1.0  0.35023525761500446  0.5633935276895842  0.1486606013393299  1.0000
  C   C17       1.0  0.42435309258818416  0.5647253434032607  0.07570738893053164  1.0000
  C   C18       1.0  0.46372080482153427  0.6296652962181997  0.03664320478014092  1.0000
  C   C19       1.0  0.6476622314171863  0.5654194253780677  0.8512681770228452  1.0000
  C   C20       1.0  0.5743901063345974  0.565551772764856  0.925683294775588  1.0000
  C   C21       1.0  0.5357646744202712  0.629625340820198  0.9646078816882235  1.0000
  C   C22       1.0  0.6486607316552551  0.43771229635441244  0.8502342521724698  1.0000
  C   C23       1.0  0.5757075879936694  0.4352154536622451  0.9243523114826285  1.0000
  C   C24       1.0  0.536643946664249  0.3699716362341905  0.9637190107359428  1.0000
  C   C25       1.0  0.31379103729670993  0.4996384580194687  0.18410784707237576  1.0000
  C   C26       1.0  0.4628858443289944  0.4998386176487132  0.03744388698330431  1.0000
  C   C27       1.0  0.6841091158329391  0.5024636230863283  0.8137888930943544  1.0000
  C   C28       1.0  0.5374454087427908  0.4998321310494664  0.9628838740329683  1.0000
  C   C29       1.0  0.9356508420345478  0.8512689281791386  0.565418231608504  1.0000
  C   C30       1.0  0.934374504017207  0.9256837176785031  0.5655505502190366  1.0000
  C   C31       1.0  0.8700025213017497  0.9646091833767874  0.6296243333859759  1.0000
  C   C32       1.0  0.06339416644190968  0.850236131177269  0.4377103606499516  1.0000
  C   C33       1.0  0.06472502758102629  0.9243541254799511  0.43521409434734437  1.0000
  C   C34       1.0  0.12966522399266012  0.9637221671804002  0.36996973308632136  1.0000
  C   C35       1.0  0.0654198726133117  0.1476624631710593  0.4356501264624625  1.0000
  C   C36       1.0  0.06555152356312993  0.07439168502276784  0.4343752272409203  1.0000
  C   C37       1.0  0.12962558994915696  0.03576572059797202  0.3700016463515892  1.0000
  C   C38       1.0  0.9377110019070188  0.1486613474228877  0.5633928813136249  1.0000
  C   C39       1.0  0.9352155383862596  0.07570846902901732  0.5647234787664102  1.0000
  C   C40       1.0  0.8699708416791978  0.03664386255016459  0.6296648955319241  1.0000
  C   C41       1.0  0.9996390580013922  0.8137908642351023  0.5024610509146327  1.0000
  C   C42       1.0  0.9998390732535827  0.9628856497948776  0.499831453315316  1.0000
  C   C43       1.0  0.0024627467476748153  0.1841090539808193  0.49963823110492445  1.0000
  C   C44       1.0  0.9998324663460212  0.03744551025491198  0.49983821199108286  1.0000
  C   C45       1.0  0.3512674014341571  0.14766256362351282  0.5654194720117189  1.0000
  C   C46       1.0  0.4256832940202814  0.07439117510621447  0.5655509053234055  1.0000
  C   C47       1.0  0.4646087699778789  0.0357648943941981  0.6296250923862272  1.0000
  C   C48       1.0  0.3502352730757395  0.1486614955835393  0.437711324528294  1.0000
  C   C49       1.0  0.42435380975781806  0.07570910194805698  0.43521385032111215  1.0000
  C   C50       1.0  0.46372216503055347  0.03664540308913201  0.36996965739825777  1.0000
  C   C51       1.0  0.6476625214041576  0.8512694826375268  0.435650007795786  1.0000
  C   C52       1.0  0.5743928212092652  0.925683909114618  0.43437324313160974  1.0000
  C   C53       1.0  0.5357649128989902  0.9646098613018598  0.370001961618037  1.0000
  C   C54       1.0  0.6486609359246457  0.8502357850197559  0.5633931422375367  1.0000
  C   C55       1.0  0.5757080656898664  0.9243538460623528  0.56472443646917  1.0000
  C   C56       1.0  0.5366440834858465  0.9637219182404525  0.6296645362852968  1.0000
  C   C57       1.0  0.3137894321185187  0.18410872203545392  0.5024637098102429  1.0000
  C   C58       1.0  0.462884683152744  0.03744550821489417  0.4998313589214475  1.0000
  C   C59       1.0  0.6841092728448641  0.8137910537097287  0.4996380746623358  1.0000
  C   C60       1.0  0.5374454302042082  0.9628856779259892  0.499837748046822  1.0000
  C   C61       1.0  0.06541890869723929  0.43564922523549415  0.8512691840212624  1.0000
  C   C62       1.0  0.06555044070309185  0.43437448211632573  0.9256838553002207  1.0000
  C   C63       1.0  0.1296249678677128  0.37000107953509365  0.9646093365379469  1.0000
  C   C64       1.0  0.9377125159273307  0.5633936261374404  0.8502343442827608  1.0000
  C   C65       1.0  0.9352149078446601  0.564724508552857  0.9243530624585429  1.0000
  C   C66       1.0  0.8699724654157562  0.6296654200420737  0.9637198238749958  1.0000
  C   C67       1.0  0.9356509044591232  0.5654195577298964  0.14766203851511503  1.0000
  C   C68       1.0  0.934374616834724  0.5655516478717431  0.0743908768323394  1.0000
  C   C69       1.0  0.8700036920056179  0.6296254971692508  0.03576313413444854  1.0000
  C   C70       1.0  0.063393832518237  0.43771064035543367  0.14866092832436806  1.0000
  C   C71       1.0  0.06472481886654431  0.43521418703716114  0.07570796073132866  1.0000
  C   C72       1.0  0.12966466546098582  0.36996962767243974  0.036644722006343465  1.0000
  C   C73       1.0  0.002463049651730213  0.4996382856825579  0.8137902585614184  1.0000
  C   C74       1.0  0.9998319331017104  0.49983865751240614  0.9628845842790097  1.0000
  C   C75       1.0  0.999638936666628  0.5024626712944313  0.18410908870268364  1.0000
  C   C76       1.0  0.9998383541529564  0.49983177661646067  0.03744512743890753  1.0000
  C   C77       1.0  0.06541987390152551  0.851269064639361  0.14766281771167664  1.0000
  C   C78       1.0  0.06555156947403132  0.9256846206647895  0.07438952616939774  1.0000
  C   C79       1.0  0.12962658295677432  0.9646092368079525  0.03576257104442246  1.0000
  C   C80       1.0  0.9377121241220011  0.8502360075827726  0.1486606448450231  1.0000
  C   C81       1.0  0.9352152769531801  0.9243537897348731  0.07570769138986576  1.0000
  C   C82       1.0  0.8699715973817987  0.963721287257663  0.036643709597299776  1.0000
  C   C83       1.0  0.93565047495062  0.14766301356392847  0.8512687791555889  1.0000
  C   C84       1.0  0.934374732120553  0.07439210778361642  0.9256827917855399  1.0000
  C   C85       1.0  0.8700026172417807  0.03576465223280001  0.9646085445826954  1.0000
  C   C86       1.0  0.06339327059922793  0.1486616982756532  0.8502348536532833  1.0000
  C   C87       1.0  0.06472592125777528  0.07570838517744971  0.9243520458110479  1.0000
  C   C88       1.0  0.12966640327205428  0.0366424699967638  0.9637203642166483  1.0000
  C   C89       1.0  0.002463339329615622  0.8137910877219456  0.18410917368703386  1.0000
  C   C90       1.0  0.9998329859575604  0.962885006990938  0.03744413364310618  1.0000
  C   C91       1.0  0.9996383560527706  0.18410977460396816  0.8137904634251  1.0000
  C   C92       1.0  0.9998389847838994  0.03744448035338634  0.9628843871526696  1.0000
  C   C93       1.0  0.35126964600441796  0.5654185890122748  0.43564882410986144  1.0000
  C   C94       1.0  0.4256849011486211  0.565550045073522  0.43437481399435257  1.0000
  C   C95       1.0  0.46460952906168995  0.6296241033280554  0.37000138164501806  1.0000
  C   C96       1.0  0.350235837562245  0.4377111600792675  0.5633924487732925  1.0000
  C   C97       1.0  0.42435421801504697  0.4352139183808391  0.5647245452364159  1.0000
  C   C98       1.0  0.46372095650119866  0.36997051026187955  0.629664528371151  1.0000
  C   C99       1.0  0.647663184989014  0.43564939869752123  0.5654188890036664  1.0000
  C   C100      1.0  0.5743914067968703  0.4343748256694513  0.5655499268819708  1.0000
  C   C101      1.0  0.5357654579665124  0.37000202913524305  0.6296245615597653  1.0000
  C   C102      1.0  0.6486625548135335  0.5633918072275679  0.4377101482048429  1.0000
  C   C103      1.0  0.5757091190364036  0.5647232244544542  0.43521442029171425  1.0000
  C   C104      1.0  0.5366447268984375  0.6296631472306374  0.3699696343148771  1.0000
  C   C105      1.0  0.3137912629994587  0.5024626174625697  0.4996375172981684  1.0000
  C   C106      1.0  0.4628847195343867  0.4998309965643134  0.49983895358720054  1.0000
  C   C107      1.0  0.684109599064108  0.4996380673076858  0.5024625849626502  1.0000
  C   C108      1.0  0.5374452955965482  0.49983851445615846  0.4998317368599531  1.0000
  O   O1        1.0  0.7921752853364268  0.44356112698878997  0.703634556559656  1.0000
  O   O2        1.0  0.06063148241972272  0.7036346365223951  0.4435589268594383  1.0000
  O   O3        1.0  0.20363495108556154  0.5606308570399606  0.2921753520383773  1.0000
  O   O4        1.0  0.9435588315260546  0.2921760748408392  0.5606304745222556  1.0000
  O   O5        1.0  0.06063090018374594  0.29217624548459065  0.7036342700011459  1.0000
  O   O6        1.0  0.7921770044414629  0.5606294551033602  0.44355884964785697  1.0000
  O   O7        1.0  0.9435602226225583  0.7036352781017714  0.2921758566990461  1.0000
  O   O8        1.0  0.2036348303279567  0.4435599167452296  0.5606297263803625  1.0000
  O   O9        1.0  0.9435605043146252  0.5606306582828894  0.703634260934862  1.0000
  O   O10       1.0  0.20363523695137076  0.2921760105443882  0.4435593421225049  1.0000
  O   O11       1.0  0.0606299531634419  0.44355877157325113  0.29217627323376405  1.0000
  O   O12       1.0  0.792176129999298  0.703635373678033  0.5606300409414117  1.0000
  O   O13       1.0  0.2036868560463744  0.29281237794693055  0.5627438750892038  1.0000
  O   O14       1.0  0.9407587012049489  0.562742989023626  0.2928119978381644  1.0000
  O   O15       1.0  0.7928119771722704  0.7036864731092437  0.4407584600826267  1.0000
  O   O16       1.0  0.06274377168367805  0.4407584556769139  0.7036859767784235  1.0000
  O   O17       1.0  0.940758139571642  0.29281152734096605  0.70368804956324  1.0000
  O   O18       1.0  0.20368763335564913  0.5627439393861167  0.4407577560422595  1.0000
  O   O19       1.0  0.06274342152018852  0.7036882809119265  0.2928118843418943  1.0000
  O   O20       1.0  0.7928123187814505  0.4407578070310908  0.5627424419812356  1.0000
  O   O21       1.0  0.06274342002305389  0.2928121563408865  0.44075798657743087  1.0000
  O   O22       1.0  0.7928127795614585  0.5627439450517928  0.7036873340586849  1.0000
  O   O23       1.0  0.9407590462283013  0.703687502471354  0.5627424289880523  1.0000
  O   O24       1.0  0.20368709693738646  0.44075772853637585  0.2928117750524989  1.0000
  O   O25       1.0  0.9476537431900739  0.44765328978283514  0.4476528686451217  1.0000
  O   O26       1.0  0.15704118694830524  0.44765318629541195  0.4476530621565188  1.0000
  O   O27       1.0  0.9476537334782833  0.657040789248221  0.44765312985758476  1.0000
  O   O28       1.0  0.9476539587689106  0.44765342134323316  0.6570404021164719  1.0000
  O   O29       1.0  0.03858515643827324  0.5385845784897968  0.5385843246279121  1.0000
  O   O30       1.0  0.8842468279986804  0.5385851536512052  0.5385840734692167  1.0000
  O   O31       1.0  0.03858432294768473  0.5385848587197589  0.3842465609952015  1.0000
  O   O32       1.0  0.03858502271297235  0.38424665425274906  0.5385848053448895  1.0000
  O   O33       1.0  0.5703836924865372  0.3066247377639828  0.9298944556089663  1.0000
  O   O34       1.0  0.4298969388265023  0.6930963611640238  0.0703839821548443  1.0000
  O   O35       1.0  0.8066241570611012  0.07038484964294171  0.6930955410866202  1.0000
  O   O36       1.0  0.1930963248351106  0.9298983614557205  0.30662186547561987  1.0000
  O   O37       1.0  0.5703847690891451  0.92989760614411  0.6930955130466998  1.0000
  O   O38       1.0  0.4298977018478212  0.07038593753706135  0.30662250451908324  1.0000
  O   O39       1.0  0.19309560149844168  0.30662288077670047  0.07038481776166347  1.0000
  O   O40       1.0  0.8066253807394972  0.6930981219517992  0.929894297176787  1.0000
  O   O41       1.0  0.19309859502401147  0.0703836780301687  0.9298936102388208  1.0000
  O   O42       1.0  0.8066245718442885  0.9298969588590897  0.07038404218625519  1.0000
  O   O43       1.0  0.570386799207107  0.6930941796722366  0.3066220426789384  1.0000
  O   O44       1.0  0.4298967172892815  0.30662349391583643  0.6930959345281025  1.0000
