data_image0
_chemical_formula_structural       Al2H10C16S2N2O12
_chemical_formula_sum              "Al2 H10 C16 S2 N2 O12"
_cell_length_a       6.720905352255219
_cell_length_b       11.214580415427822
_cell_length_c       12.87205198446187
_cell_angle_alpha    74.99257093485741
_cell_angle_beta     72.49878737146547
_cell_angle_gamma    71.6583403926288

_space_group_name_H-M_alt    "P 1"
_space_group_IT_number       1

loop_
  _space_group_symop_operation_xyz
  'x, y, z'

loop_
  _atom_site_type_symbol
  _atom_site_label
  _atom_site_symmetry_multiplicity
  _atom_site_fract_x
  _atom_site_fract_y
  _atom_site_fract_z
  _atom_site_occupancy
  Al  Al1       1.0  0.5005787475337586  0.4994113738881012  0.5000084256460227  1.0000
  Al  Al2       1.0  0.000509353732738369  0.49965870238685983  0.4998019441154966  1.0000
  H   H1        1.0  0.2439309731305957  0.6341016920276558  0.3882337542202734  1.0000
  H   H2        1.0  0.7542130543986759  0.36876570055393637  0.614834478424605  1.0000
  H   H3        1.0  0.7453938609568456  0.10900468558816809  0.5271075967216773  1.0000
  H   H4        1.0  0.2547291095966177  0.8904648327686853  0.4728749802108609  1.0000
  H   H5        1.0  0.9226270225682645  0.7763334871433613  0.5353256247787926  1.0000
  H   H6        1.0  0.07722950559737282  0.22309779659752138  0.46503840565363663  1.0000
  H   H7        1.0  0.47435634624672224  0.5753431087020288  0.8714118420756378  1.0000
  H   H8        1.0  0.4542894424522928  0.5588154265876925  0.744568560980312  1.0000
  H   H9        1.0  0.524480225775584  0.42582623584598167  0.12834645339037104  1.0000
  H   H10       1.0  0.545033251925432  0.4421019703701743  0.25520975781277133  1.0000
  C   C1        1.0  0.8526587742957334  0.5111183725032759  0.30171328545223725  1.0000
  C   C2        1.0  0.6348621849169335  0.728779653429278  0.5003993943155862  1.0000
  C   C3        1.0  0.14796659568114742  0.48833288206286346  0.6981726738154634  1.0000
  C   C4        1.0  0.3657128380445941  0.2706390959038032  0.4993314626216473  1.0000
  C   C5        1.0  0.5670273816401593  0.8673000291729308  0.5012888147416134  1.0000
  C   C6        1.0  0.43328612432315355  0.13208609016374598  0.49862309805904903  1.0000
  C   C7        1.0  0.7060548848951032  0.9300325798521952  0.5184821312247506  1.0000
  C   C8        1.0  0.294099280935342  0.06937504870636957  0.48156311491953113  1.0000
  C   C9        1.0  0.6367081925639726  0.06139193616510848  0.5162611926683809  1.0000
  C   C10       1.0  0.3635030641423358  0.9380054516966678  0.4837132493274225  1.0000
  C   C11       1.0  0.2000724128651046  0.5303463222921109  0.8712202376292167  1.0000
  C   C12       1.0  0.7990717098435954  0.4706313785490363  0.12843253763891482  1.0000
  C   C13       1.0  0.08527976546844956  0.4934636259516621  0.8146127110013169  1.0000
  C   C14       1.0  0.9143534629583671  0.5070752252631222  0.1850738397243035  1.0000
  C   C15       1.0  0.9062219111721324  0.4793930003891872  0.0136759316938608  1.0000
  C   C16       1.0  0.09269916623671302  0.5217782240517294  0.9859159592765749  1.0000
  S   S1        1.0  0.8542944025104833  0.44865946219542235  0.9012198244790213  1.0000
  S   S2        1.0  0.1450306340349813  0.5521846185647235  0.0983754057418622  1.0000
  N   N1        1.0  0.3812556713202897  0.5715821738518513  0.8239169844196893  1.0000
  N   N2        1.0  0.6177123386904245  0.42957434158901  0.17576456063915905  1.0000
  O   O1        1.0  0.6640083120250113  0.493912330371124  0.35327914959845685  1.0000
  O   O2        1.0  0.8263569471576279  0.6686447248309831  0.5153968243852206  1.0000
  O   O3        1.0  0.01907620873165438  0.4679175425675695  0.6525149789305117  1.0000
  O   O4        1.0  0.4918426368230303  0.3243744068944281  0.5151172813155895  1.0000
  O   O5        1.0  0.33722665378856953  0.5047878242212887  0.6468598400209585  1.0000
  O   O6        1.0  0.17451436464660477  0.3309252277079864  0.4840662702926863  1.0000
  O   O7        1.0  0.9818926921913024  0.5312760873339355  0.3472929727966233  1.0000
  O   O8        1.0  0.5087747580593958  0.6748813422288363  0.48472692062262707  1.0000
  O   O9        1.0  0.24625769493115288  0.5622494081554094  0.4492141903919346  1.0000
  O   O10       1.0  0.7548702102037199  0.4369150683510909  0.5507290661387572  1.0000
  O   O11       1.0  0.904002000958748  0.8675632197129133  0.53733493039298  1.0000
  O   O12       1.0  0.0960107572273473  0.13185610907912348  0.46294230056377467  1.0000
