data_image0
_chemical_formula_structural       Sm2Cd3H58C30N6O35
_chemical_formula_sum              "Sm2 Cd3 H58 C30 N6 O35"
_cell_length_a       10.627741600754698
_cell_length_b       10.6370211852462
_cell_length_c       14.846
_cell_angle_alpha    70.74883824275196
_cell_angle_beta     70.7313657335226
_cell_angle_gamma    85.00179899098083

_space_group_name_H-M_alt    "P 1"
_space_group_IT_number       1

loop_
  _space_group_symop_operation_xyz
  'x, y, z'

loop_
  _atom_site_type_symbol
  _atom_site_label
  _atom_site_symmetry_multiplicity
  _atom_site_fract_x
  _atom_site_fract_y
  _atom_site_fract_z
  _atom_site_occupancy
  Sm  Sm1       1.0  0.2872488273569687  0.2695360128220798  0.31732272554646823  1.0000
  Sm  Sm2       1.0  0.7319384260595074  0.7140233040170898  0.6841064419773988  1.0000
  Cd  Cd1       1.0  0.6084320760980191  0.9479540751178985  0.3760838904409384  1.0000
  Cd  Cd2       1.0  0.05129359972771401  0.39240173826158997  0.6249368698152723  1.0000
  Cd  Cd3       1.0  0.3832547796100769  0.6149103438338557  0.9992991479601303  1.0000
  H   H1        1.0  0.2803319854995365  0.9354710736001763  0.9697487954559848  1.0000
  H   H2        1.0  0.0649110748842787  0.7212638831770234  0.028832158112251767  1.0000
  H   H3        1.0  0.12590835521476862  0.9222131139607868  0.06587644832347908  1.0000
  H   H4        1.0  0.0784406727786759  0.8757733998880752  0.9328153845701408  1.0000
  H   H5        1.0  0.07792160359785072  0.6667239641615976  0.17308710696105584  1.0000
  H   H6        1.0  0.33008590214546984  0.9245858006520749  0.8244081389578073  1.0000
  H   H7        1.0  0.1376460266178654  0.7346732485162802  0.24627798064116752  1.0000
  H   H8        1.0  0.26489196844423907  0.8614575925298948  0.7515974447137809  1.0000
  H   H9        1.0  0.37862671584864677  0.7646515770893245  0.18553916209675952  1.0000
  H   H10       1.0  0.23681088089923463  0.6182552144926845  0.8156427350712722  1.0000
  H   H11       1.0  0.3330844744712708  0.9263986846899143  0.1257314312280116  1.0000
  H   H12       1.0  0.0750623919597757  0.6694472745788856  0.8702106839008652  1.0000
  H   H13       1.0  0.7600032966714708  0.259175679372845  0.2063570549471693  1.0000
  H   H14       1.0  0.739822279984182  0.2426624971863802  0.7943889373192691  1.0000
  H   H15       1.0  0.9157187314333798  0.2048070878598978  0.14466726952593237  1.0000
  H   H16       1.0  0.7934621797308381  0.08664191174707979  0.8560811355014837  1.0000
  H   H17       1.0  0.6228998282070748  0.0428866605765634  0.1227468834428294  1.0000
  H   H18       1.0  0.9573279264502405  0.3754682060399759  0.8800013943055095  1.0000
  H   H19       1.0  0.7064296835455579  0.19964833707308566  0.07194372838122833  1.0000
  H   H20       1.0  0.7993088515488369  0.2942938330202125  0.929003315160138  1.0000
  H   H21       1.0  0.9241749835705022  0.9573581620416788  0.19345538589715272  1.0000
  H   H22       1.0  0.041906337201489  0.0772906176002266  0.8061377329857395  1.0000
  H   H23       1.0  0.8808719215545224  0.9992626777493923  0.0818330555532328  1.0000
  H   H24       1.0  0.00020062346701619932  0.11901185272389367  0.918383156969995  1.0000
  H   H25       1.0  0.6859860524261308  0.8405466724164653  0.1703658416221715  1.0000
  H   H26       1.0  0.15919322646431064  0.3142206160845262  0.8304153381639312  1.0000
  H   H27       1.0  0.8406414278775147  0.7625378738320163  0.16568986768122335  1.0000
  H   H28       1.0  0.2371402741874249  0.15971010328334498  0.8346668554264414  1.0000
  H   H29       1.0  0.9102205278543496  0.7942015869061692  0.31641385347298734  1.0000
  H   H30       1.0  0.2054927572108484  0.0904041441706767  0.6843850936452824  1.0000
  H   H31       1.0  0.8566643474163204  0.625722902202419  0.35628487169908846  1.0000
  H   H32       1.0  0.3740817402313753  0.1439937932014246  0.6443992829335699  1.0000
  H   H33       1.0  0.6029857519858697  0.6108482882809269  0.42226769650809365  1.0000
  H   H34       1.0  0.3893662257819274  0.3970594557126645  0.5783660851178711  1.0000
  H   H35       1.0  0.6441729628812354  0.600271803273337  0.29857674978286053  1.0000
  H   H36       1.0  0.3994985006302372  0.3563731582347742  0.7021594927283277  1.0000
  H   H37       1.0  0.6110244052867202  0.4720630503728458  0.9427476418990111  1.0000
  H   H38       1.0  0.5110939488598021  0.36951158705849  0.04616071041458273  1.0000
  H   H39       1.0  0.4418277528154135  0.49610268958674897  0.3282591949035521  1.0000
  H   H40       1.0  0.5048319385803454  0.5594420688166295  0.6726998989921783  1.0000
  H   H41       1.0  0.5136088166434903  0.3586641655353516  0.36571435107174477  1.0000
  H   H42       1.0  0.6423337055730798  0.4870342850370121  0.6366657442470469  1.0000
  H   H43       1.0  0.1818742324191476  0.3499772635056572  0.13602907605397263  1.0000
  H   H44       1.0  0.6546158571341962  0.814887390650064  0.8664752172031813  1.0000
  H   H45       1.0  0.06911391486305261  0.2683267594034291  0.23577473313079625  1.0000
  H   H46       1.0  0.7288700594933886  0.933386256956659  0.7663256772793049  1.0000
  H   H47       1.0  0.9936321272235491  0.1919445760023848  0.40053067336759096  1.0000
  H   H48       1.0  0.8079553055590908  0.0073521412545716  0.6001388114008109  1.0000
  H   H49       1.0  0.0274361588379861  0.1756983459709431  0.502750968890574  1.0000
  H   H50       1.0  0.825086959952124  0.9727905864363534  0.49803985725007055  1.0000
  H   H51       1.0  0.17265667108543437  0.0050750792158283  0.3923812236673783  1.0000
  H   H52       1.0  0.996958052886889  0.8286902115909455  0.6067704568369836  1.0000
  H   H53       1.0  0.31584716766006693  0.9518139243742993  0.34363517137905575  1.0000
  H   H54       1.0  0.0499291770536132  0.6855092279361512  0.6558670286075883  1.0000
  H   H55       1.0  0.4404205584045684  0.0607595057914097  0.5060498694231657  1.0000
  H   H56       1.0  0.9403306655826856  0.5607718491410907  0.4937847458936274  1.0000
  H   H57       1.0  0.523419511771067  0.9607279349537805  0.5728803694710933  1.0000
  H   H58       1.0  0.04162805277751861  0.4780864073930857  0.4271031810118444  1.0000
  C   C1        1.0  0.20140340243454352  0.8637814708047813  0.02579739832386702  1.0000
  C   C2        1.0  0.1367431229736198  0.7999320934279908  0.9727144179106447  1.0000
  C   C3        1.0  0.16845941665877015  0.6857223912241182  0.18747833464365732  1.0000
  C   C4        1.0  0.3135926551998836  0.8329026767536047  0.8105046360262663  1.0000
  C   C5        1.0  0.2206534184349637  0.5487131820190427  0.2311997382830243  1.0000
  C   C6        1.0  0.45230356829520707  0.7831350255542802  0.7672778017211784  1.0000
  C   C7        1.0  0.3658057962484804  0.8297211648762044  0.11437097728888557  1.0000
  C   C8        1.0  0.16975385267828366  0.6349466968125483  0.884814802766016  1.0000
  C   C9        1.0  0.5050503919068845  0.8495204484037869  0.03462845000816376  1.0000
  C   C10       1.0  0.1439185924091717  0.4984684036471236  0.967973548061508  1.0000
  C   C11       1.0  0.8560906946390077  0.1357401903785842  0.3073723661746115  1.0000
  C   C12       1.0  0.862792133108954  0.14589831753129087  0.6934077502253829  1.0000
  C   C13       1.0  0.8229421798857433  0.1712358621854833  0.20890060375257494  1.0000
  C   C14       1.0  0.8274639497433327  0.17923546202499807  0.7918236758726211  1.0000
  C   C15       1.0  0.5371686628328406  0.1769155681106369  0.20399661667325836  1.0000
  C   C16       1.0  0.824926570876315  0.4655575857293498  0.7983587700285283  1.0000
  C   C17       1.0  0.6588722692280912  0.12054085107449448  0.14342630091561406  1.0000
  C   C18       1.0  0.8795164878575008  0.34179836744262093  0.8581597758003031  1.0000
  C   C19       1.0  0.8394956571633614  0.9658876818307219  0.16501521826173643  1.0000
  C   C20       1.0  0.0335079544274777  0.1612669921576071  0.8352444390127332  1.0000
  C   C21       1.0  0.7702522412699153  0.8301146204778219  0.1996042953090864  1.0000
  C   C22       1.0  0.1694994532886369  0.23024523761728224  0.8009290988941871  1.0000
  C   C23       1.0  0.8227333521379451  0.7267563241576127  0.3572967985702249  1.0000
  C   C24       1.0  0.2729490369212683  0.1778349593012578  0.6433693872644568  1.0000
  C   C25       1.0  0.6153031229743676  0.6692749509862779  0.343242469316337  1.0000
  C   C26       1.0  0.33069346361315166  0.3851541864707356  0.6573015782676352  1.0000
  C   C27       1.0  0.47595366964949193  0.7224153633680925  0.34217930844894795  1.0000
  C   C28       1.0  0.2779184682153826  0.5246655740840893  0.6578427473885358  1.0000
  C   C29       1.0  0.7792338387957258  0.7290722337114487  0.4655358025008667  1.0000
  C   C30       1.0  0.2707747758740027  0.2208461311441567  0.5352028538575624  1.0000
  N   N1        1.0  0.2639846018998427  0.7671696929396886  0.09403663195065805  1.0000
  N   N2        1.0  0.23291920134244043  0.7372441571435786  0.9043109915501122  1.0000
  N   N3        1.0  0.7188912449085906  0.7722158855417334  0.31006759056875677  1.0000
  N   N4        1.0  0.2274811258796845  0.2817630191762177  0.6904543029469324  1.0000
  N   N5        1.0  0.7508427241590355  0.06553874623843109  0.20065162695170366  1.0000
  N   N6        1.0  0.9337603631051439  0.2505355935793006  0.8001529113184205  1.0000
  O   O1        1.0  0.3274077617523403  0.5072927661148441  0.18070906221885963  1.0000
  O   O2        1.0  0.4943915513365057  0.6774926945644139  0.8181543583910482  1.0000
  O   O3        1.0  0.1517799587022139  0.47467778696588425  0.3177806309063059  1.0000
  O   O4        1.0  0.5268339488938949  0.8524728595511348  0.6811014221270498  1.0000
  O   O5        1.0  0.5283549474645  0.785948980173458  0.9703277156313564  1.0000
  O   O6        1.0  0.1968941709099354  0.4807917881880215  0.037864558956542345  1.0000
  O   O7        1.0  0.5871672318777003  0.9229123692325273  0.03877371201389225  1.0000
  O   O8        1.0  0.07564624937541001  0.4139969722947966  0.9614130114497998  1.0000
  O   O9        1.0  0.8225865119951408  0.021458769685310096  0.372606996582249  1.0000
  O   O10       1.0  0.9771892136798216  0.17936993419264266  0.6280612094653152  1.0000
  O   O11       1.0  0.9145866563666588  0.2274551891612404  0.3166779457290689  1.0000
  O   O12       1.0  0.7710521994920967  0.08731427258529578  0.6841713050507324  1.0000
  O   O13       1.0  0.8613365223392438  0.6873031862615163  0.5147520691617302  1.0000
  O   O14       1.0  0.3124227278130292  0.1383957666669886  0.48632701963183683  1.0000
  O   O15       1.0  0.6666638505531141  0.7717009069441687  0.5045559617431368  1.0000
  O   O16       1.0  0.22856223713885981  0.333408300271877  0.49581680379433385  1.0000
  O   O17       1.0  0.39706535883114924  0.6441515657101888  0.33823769954420874  1.0000
  O   O18       1.0  0.356476790765072  0.6035001313868803  0.6614614129740846  1.0000
  O   O19       1.0  0.44853539598419456  0.8397338628698277  0.3479443778927165  1.0000
  O   O20       1.0  0.16058543360577462  0.5522512941632272  0.6518502577757987  1.0000
  O   O21       1.0  0.5076515517116604  0.1438095165272486  0.2995918997539563  1.0000
  O   O22       1.0  0.8559230204502628  0.49469820250248375  0.7028018180213992  1.0000
  O   O23       1.0  0.4629680189050448  0.2546524340894152  0.15956902739387865  1.0000
  O   O24       1.0  0.7509083123376143  0.541164811008727  0.843515531922293  1.0000
  O   O25       1.0  0.5173831881503332  0.4423616348561338  0.9822376491236257  1.0000
  O   O26       1.0  0.46642389214403585  0.40562682692667096  0.318780463533983  1.0000
  O   O27       1.0  0.5952713997703045  0.5358397131700912  0.6823909660833465  1.0000
  O   O28       1.0  0.1674143843297529  0.2788843186985446  0.20361932033196695  1.0000
  O   O29       1.0  0.7220237842263444  0.8348759313024842  0.7969756365807186  1.0000
  O   O30       1.0  0.06650817957216762  0.1743307142215116  0.4321626492260081  1.0000
  O   O31       1.0  0.8264966026741265  0.9344012727998248  0.5686475976013056  1.0000
  O   O32       1.0  0.2545423154588349  0.027913433732130996  0.33513276090124583  1.0000
  O   O33       1.0  0.9741937229579989  0.7473066596437405  0.6643758832793979  1.0000
  O   O34       1.0  0.5318208065213241  0.028310873694273694  0.5059413566189832  1.0000
  O   O35       1.0  0.9734275023117507  0.46960968038096945  0.4937344069421314  1.0000
