data_image0
_chemical_formula_structural       Zn4H21C36O15F
_chemical_formula_sum              "Zn4 H21 C36 O15 F1"
_cell_length_a       15.193039767600443
_cell_length_b       15.2188455336202
_cell_length_c       15.929974314415816
_cell_angle_alpha    90.3028672754961
_cell_angle_beta     89.99091817932644
_cell_angle_gamma    89.54430197774501

_space_group_name_H-M_alt    "P 1"
_space_group_IT_number       1

loop_
  _space_group_symop_operation_xyz
  'x, y, z'

loop_
  _atom_site_type_symbol
  _atom_site_label
  _atom_site_symmetry_multiplicity
  _atom_site_fract_x
  _atom_site_fract_y
  _atom_site_fract_z
  _atom_site_occupancy
  Zn  Zn1       1.0  0.5670091847173924  0.5771852188368599  0.5743837080369404  1.0000
  Zn  Zn2       1.0  0.5820253971786827  0.43128108179521274  0.4314055340778111  1.0000
  Zn  Zn3       1.0  0.41744491852860227  0.5752984270707489  0.4356861618902954  1.0000
  Zn  Zn4       1.0  0.42624622579995025  0.4152531973338399  0.5608284295072823  1.0000
  H   H1        1.0  0.4331463808456349  0.4345027535992472  0.0053867413197040016  1.0000
  H   H2        1.0  0.6148302804760205  0.8521211237809327  0.5072889424330428  1.0000
  H   H3        1.0  0.8544544756947019  0.3884032264921729  0.4699966853841033  1.0000
  H   H4        1.0  0.6760014289546987  0.6074438628941794  0.08375874375494162  1.0000
  H   H5        1.0  0.5892043576348911  0.6873873176980256  0.08376428193652433  1.0000
  H   H6        1.0  0.6458395951740813  0.7476742783310613  0.9470762087318009  1.0000
  H   H7        1.0  0.7286679023485763  0.7513593158897153  0.026120568424076403  1.0000
  H   H8        1.0  0.7324885933408326  0.6680657673811015  0.947224654324991  1.0000
  H   H9        1.0  0.6681268339089285  0.1823160276770253  0.3433166104249068  1.0000
  H   H10       1.0  0.748297992544899  0.10114776282375001  0.37240681723201163  1.0000
  H   H11       1.0  0.8471457434131225  0.22350351356235626  0.4248059750366266  1.0000
  H   H12       1.0  0.8335486666352667  0.6584537714610479  0.5484504128423213  1.0000
  H   H13       1.0  0.8234106954532552  0.23351357555327476  0.31569126327244135  1.0000
  H   H14       1.0  0.767408468070393  0.3021111627596583  0.38976555126338763  1.0000
  H   H15       1.0  0.0017367222079017  0.3179531716551694  0.4544548809747653  1.0000
  H   H16       1.0  0.9968343434563567  0.6734656748280655  0.5415902477450203  1.0000
  H   H17       1.0  0.16542462461957544  0.32944361845712683  0.45892203029466583  1.0000
  H   H18       1.0  0.14453743478981812  0.606584137458384  0.5111395995865777  1.0000
  H   H19       1.0  0.3944192000411562  0.1472530008190631  0.5148746434556984  1.0000
  H   H20       1.0  0.6867098913624192  0.9989767693942827  0.4864185793442317  1.0000
  H   H21       1.0  0.3311505455315286  0.8385011207159538  0.5170540527570608  1.0000
  C   C1        1.0  0.522510086118871  0.2614100766898204  0.4909377353110359  1.0000
  C   C2        1.0  0.5464030964285485  0.9782206718770257  0.5026922969846765  1.0000
  C   C3        1.0  0.46215795292253153  0.021461869332654305  0.5083583515354205  1.0000
  C   C4        1.0  0.4806008863500751  0.7384740020826258  0.5123063328900912  1.0000
  C   C5        1.0  0.4576087855388806  0.11402843899989532  0.5066240528424757  1.0000
  C   C6        1.0  0.615741746378774  0.12076689671198444  0.4833658246168824  1.0000
  C   C7        1.0  0.6220456684675071  0.030457674635698605  0.4904676415476459  1.0000
  C   C8        1.0  0.8351106540538069  0.5223977811596399  0.5076543234069888  1.0000
  C   C9        1.0  0.1635419981732724  0.4695094731726429  0.4845505137160303  1.0000
  C   C10       1.0  0.03326879212643522  0.38057586024996953  0.46834970660692943  1.0000
  C   C11       1.0  0.12357427744396433  0.3868284021318902  0.4699522103758866  1.0000
  C   C12       1.0  0.47944887431543043  0.48373739409910865  0.8871346553828516  1.0000
  C   C13       1.0  0.11257266226317601  0.5436211429011666  0.5002445375433027  1.0000
  C   C14       1.0  0.019760752118202208  0.5379483068711864  0.5042386050340113  1.0000
  C   C15       1.0  0.9791860763294836  0.45513115226382433  0.4857960017522629  1.0000
  C   C16       1.0  0.737350873372421  0.5147050468583388  0.5078392499123225  1.0000
  C   C17       1.0  0.8863412060635982  0.4501349409088321  0.48600223274703325  1.0000
  C   C18       1.0  0.8753771215613639  0.6032388438597284  0.5297813523713302  1.0000
  C   C19       1.0  0.9655270432350139  0.6110262849024584  0.5264677502975985  1.0000
  C   C20       1.0  0.261332219202842  0.4769732278472177  0.4851959390494187  1.0000
  C   C21       1.0  0.5101143632576852  0.5194197756385037  0.2796433557483837  1.0000
  C   C22       1.0  0.48411396047172434  0.4923656880996179  0.7210926499367432  1.0000
  C   C23       1.0  0.5210467534470878  0.5301662951161819  0.1130429924541616  1.0000
  C   C24       1.0  0.5156673865198727  0.5267534503489415  0.1892590864448422  1.0000
  C   C25       1.0  0.5269750055802831  0.5344782652746931  0.024471803875023602  1.0000
  C   C26       1.0  0.4768210209975124  0.48066065737177877  0.9744078126899254  1.0000
  C   C27       1.0  0.6342092964725625  0.6489425032148832  0.043420937918163816  1.0000
  C   C28       1.0  0.6883911196673652  0.7073378169730092  0.9873488975175988  1.0000
  C   C29       1.0  0.7230908653240604  0.1678923700387999  0.3864136850580239  1.0000
  C   C30       1.0  0.7945420959081062  0.23597407626008501  0.3789301096322007  1.0000
  C   C31       1.0  0.4811630842382898  0.4871514525348104  0.8104788147652471  1.0000
  C   C32       1.0  0.532389029357809  0.16361207554125204  0.4932576367180062  1.0000
  C   C33       1.0  0.4749027276969643  0.8364417534057652  0.5133451052597595  1.0000
  C   C34       1.0  0.3866857351153926  0.9676047928329512  0.5149350176577272  1.0000
  C   C35       1.0  0.39078306452830003  0.8776509521635633  0.5150508697401008  1.0000
  C   C36       1.0  0.5510420351940511  0.8854306648093273  0.50864891202653  1.0000
  O   O1        1.0  0.49873215270392285  0.5002795905255155  0.49903228298893515  1.0000
  O   O2        1.0  0.5664909732658927  0.4680197243946012  0.3128901398178243  1.0000
  O   O3        1.0  0.4305562599766192  0.44325696712683554  0.6804177506691432  1.0000
  O   O4        1.0  0.4497855262968358  0.5648083845651187  0.3151728263340416  1.0000
  O   O5        1.0  0.5400963517994343  0.5459850160782981  0.6901686289371369  1.0000
  O   O6        1.0  0.5824763253356339  0.5925292561131956  0.9888549936299071  1.0000
  O   O7        1.0  0.690045196847585  0.17020857249921312  0.47182966891887906  1.0000
  O   O8        1.0  0.6942277883035859  0.5707758518096782  0.5515238715410646  1.0000
  O   O9        1.0  0.30492850772244395  0.41301975771573757  0.5165575174057224  1.0000
  O   O10       1.0  0.56573716468575  0.30348604032208476  0.435653987510868  1.0000
  O   O11       1.0  0.41986852774581973  0.6987275023047205  0.4720884379753301  1.0000
  O   O12       1.0  0.46928404805359497  0.29430442416376235  0.5446507628576216  1.0000
  O   O13       1.0  0.545358823080683  0.7028651649970359  0.5502994314576526  1.0000
  O   O14       1.0  0.7045021801488931  0.45243401872472333  0.4638256166927875  1.0000
  O   O15       1.0  0.29341921649241  0.5473024160218433  0.45479649468700967  1.0000
  F   F1        1.0  0.30648039542347766  0.008385924391014002  0.519554118382672  1.0000
