data_image0
_chemical_formula_structural       CdH22C34S2N4O6
_chemical_formula_sum              "Cd1 H22 C34 S2 N4 O6"
_cell_length_a       8.283483267259824
_cell_length_b       8.93937524623848
_cell_length_c       9.70707773159048
_cell_angle_alpha    96.44187258060391
_cell_angle_beta     92.18426594746524
_cell_angle_gamma    104.28681491768339

_space_group_name_H-M_alt    "P 1"
_space_group_IT_number       1

loop_
  _space_group_symop_operation_xyz
  'x, y, z'

loop_
  _atom_site_type_symbol
  _atom_site_label
  _atom_site_symmetry_multiplicity
  _atom_site_fract_x
  _atom_site_fract_y
  _atom_site_fract_z
  _atom_site_occupancy
  Cd  Cd1       1.0  0.9999992135245961  0.4999998461075564  0.499999666930691  1.0000
  H   H1        1.0  0.6157503864239189  0.42591981528985917  0.6300476180095913  1.0000
  H   H2        1.0  0.3842468603302649  0.5740795928334635  0.3699555097253224  1.0000
  H   H3        1.0  0.4688518361161016  0.2693103763933848  0.8051036728528516  1.0000
  H   H4        1.0  0.5311464191517814  0.730679696530501  0.19489872627281096  1.0000
  H   H5        1.0  0.6034780513928908  0.08345745928767201  0.9112948126799338  1.0000
  H   H6        1.0  0.3965241581470663  0.9165336995821036  0.0887057791387065  1.0000
  H   H7        1.0  0.8385244642340055  0.9559633795687503  0.9160066034803052  1.0000
  H   H8        1.0  0.1614835690752585  0.04403113383495591  0.08399038487420539  1.0000
  H   H9        1.0  0.09321519829515522  0.9051554004696529  0.8096308288493005  1.0000
  H   H10       1.0  0.906791402131134  0.0948426221104199  0.1903663896964645  1.0000
  H   H11       1.0  0.3034973765560166  0.9600739185962366  0.6375407084886646  1.0000
  H   H12       1.0  0.6965111917908403  0.03993103532782532  0.3624551027973197  1.0000
  H   H13       1.0  0.4245382586143194  0.12237739714734631  0.4489701014234129  1.0000
  H   H14       1.0  0.5754640431630307  0.8776311529618113  0.5510278076961512  1.0000
  H   H15       1.0  0.3039728340803407  0.33753218304619986  0.3973988739912997  1.0000
  H   H16       1.0  0.6960291233836102  0.6624752761838553  0.6026020221833477  1.0000
  H   H17       1.0  0.9289913680948274  0.532921378755141  0.11061063986721112  1.0000
  H   H18       1.0  0.0710044396538834  0.46708156267388296  0.8893937502508963  1.0000
  H   H19       1.0  0.91506091695954  0.7027553302575172  0.9252719300899841  1.0000
  H   H20       1.0  0.08493367930629601  0.297247644988353  0.0747334430346527  1.0000
  H   H21       1.0  0.6402786052446957  0.7210126545867512  0.8286422069824583  1.0000
  H   H22       1.0  0.35971930564632976  0.2789890318121239  0.17135907540997414  1.0000
  C   C1        1.0  0.6732342010500787  0.345274850712272  0.6776014754369085  1.0000
  C   C2        1.0  0.32676263970229513  0.6547186589999685  0.3223980573042553  1.0000
  C   C3        1.0  0.5900212751549744  0.25557717871190283  0.7756721962636419  1.0000
  C   C4        1.0  0.40997547941903895  0.7444116199857052  0.2243248831963527  1.0000
  C   C5        1.0  0.6639310824225575  0.15289428198145325  0.8335604857821792  1.0000
  C   C6        1.0  0.3360678431046581  0.8470980450886504  0.1664390358090628  1.0000
  C   C7        1.0  0.8182487903699993  0.13438326346161486  0.7873226432837654  1.0000
  C   C8        1.0  0.181756580205942  0.865614865323309  0.2126786548443036  1.0000
  C   C9        1.0  0.8964962465576463  0.022130868392388  0.8352208156374417  1.0000
  C   C10       1.0  0.10351067369207814  0.9778683415841275  0.16477754462092523  1.0000
  C   C11       1.0  0.03640912065683459  0.9950432171483425  0.7783051238905614  1.0000
  C   C12       1.0  0.9635957270630372  0.004957127211646699  0.22169118313387767  1.0000
  C   C13       1.0  0.1110365092987422  0.0821096721216534  0.6717560031342558  1.0000
  C   C14       1.0  0.8889676742842809  0.9178883939627839  0.3282421492326719  1.0000
  C   C15       1.0  0.2503636797314003  0.05179924201942749  0.605069524539715  1.0000
  C   C16       1.0  0.7496415862352493  0.9482069524929673  0.3949283130946384  1.0000
  C   C17       1.0  0.3173458248328558  0.1406338254647963  0.5036515738603171  1.0000
  C   C18       1.0  0.6826591090653765  0.859371229909819  0.4963471864452842  1.0000
  C   C19       1.0  0.247599073548308  0.2618270299156221  0.4721244067596615  1.0000
  C   C20       1.0  0.7524010205409013  0.7381781365970711  0.5278772533801757  1.0000
  C   C21       1.0  0.043831940910578696  0.20259299018119492  0.6286830583916441  1.0000
  C   C22       1.0  0.956170483843536  0.797407421812501  0.3713152146458754  1.0000
  C   C23       1.0  0.8923865840704579  0.2272295886766998  0.6854979405751962  1.0000
  C   C24       1.0  0.10761580394871119  0.7727709680930063  0.3145065256138437  1.0000
  C   C25       1.0  0.6649644301514783  0.4477410543126582  0.10956427194519588  1.0000
  C   C26       1.0  0.3350317157881477  0.5522630021248035  0.8904381633097459  1.0000
  C   C27       1.0  0.8088718976010442  0.5379895578119263  0.06478830564352481  1.0000
  C   C28       1.0  0.1911211734809584  0.4620122397250199  0.9352158765831433  1.0000
  C   C29       1.0  0.7998212200002116  0.6353603421852088  0.9616703385056623  1.0000
  C   C30       1.0  0.2001757869863994  0.3646426136856391  0.0383351329897437  1.0000
  C   C31       1.0  0.6470595164695041  0.6432111249172081  0.9058765346957854  1.0000
  C   C32       1.0  0.3529354363547128  0.3567928929490947  0.09412378698992539  1.0000
  C   C33       1.0  0.5039478299199871  0.4492356610824118  0.05202047450669062  1.0000
  C   C34       1.0  0.4960485557872047  0.5507648476075317  0.947979616987766  1.0000
  S   S1        1.0  0.684087775551859  0.33276202432728047  0.2463239661134367  1.0000
  S   S2        1.0  0.31590619331206693  0.667238527867028  0.7536770592021753  1.0000
  N   N1        1.0  0.8212264151860893  0.33361213471104634  0.6354730090482121  1.0000
  N   N2        1.0  0.17876962620770337  0.6663872830997875  0.3645300695013276  1.0000
  N   N3        1.0  0.11523797773556765  0.2915993793171764  0.5319957094309018  1.0000
  N   N4        1.0  0.8847620240527904  0.7084011003102193  0.46800452961969796  1.0000
  O   O1        1.0  0.5994637120533212  0.3934801222537774  0.361605437321451  1.0000
  O   O2        1.0  0.40052830113501164  0.6065134503378645  0.6383949308701061  1.0000
  O   O3        1.0  0.6067436871950777  0.17023906312859793  0.1906009727829172  1.0000
  O   O4        1.0  0.39325479553193793  0.8297602146605317  0.8093970431777819  1.0000
  O   O5        1.0  0.8667390056555034  0.3604511998963389  0.278812257840336  1.0000
  O   O6        1.0  0.13325618081379534  0.6395492943517811  0.7211867522768145  1.0000
