data_image0
_chemical_formula_structural       Cu2H24C24N16
_chemical_formula_sum              "Cu2 H24 C24 N16"
_cell_length_a       7.865703752700073
_cell_length_b       9.070669744430425
_cell_length_c       10.849984551843706
_cell_angle_alpha    113.83903955114816
_cell_angle_beta     102.92624446400298
_cell_angle_gamma    99.5232406207454

_space_group_name_H-M_alt    "P 1"
_space_group_IT_number       1

loop_
  _space_group_symop_operation_xyz
  'x, y, z'

loop_
  _atom_site_type_symbol
  _atom_site_label
  _atom_site_symmetry_multiplicity
  _atom_site_fract_x
  _atom_site_fract_y
  _atom_site_fract_z
  _atom_site_occupancy
  Cu  Cu1       1.0  0.7128605594215713  0.9942460637967515  0.09107587723379855  1.0000
  Cu  Cu2       1.0  0.2871492193743279  0.0057507725928971016  0.9089265575710003  1.0000
  H   H1        1.0  0.0308950058877642  0.3023616447831046  0.3012638060797883  1.0000
  H   H2        1.0  0.9691102661874497  0.6976454051526986  0.6987386698537676  1.0000
  H   H3        1.0  0.17978186861970605  0.4530799852463118  0.5663438776552211  1.0000
  H   H4        1.0  0.8202178274737691  0.5469296831209505  0.43366324898430963  1.0000
  H   H5        1.0  0.7934264837997842  0.0790957908543533  0.5925610819555728  1.0000
  H   H6        1.0  0.20657715418357725  0.9209100097249986  0.40744532448307774  1.0000
  H   H7        1.0  0.6009204047786696  0.8404706330590984  0.4698369963918623  1.0000
  H   H8        1.0  0.39907642175680264  0.1595264348914966  0.5301644545703608  1.0000
  H   H9        1.0  0.267957060943111  0.4733462677476865  0.04462978066372612  1.0000
  H   H10       1.0  0.7320466490243406  0.5266519438967948  0.9553721949938065  1.0000
  H   H11       1.0  0.40991290621222726  0.6654117770763436  0.9558215733435201  1.0000
  H   H12       1.0  0.5900964730587219  0.3345837983573361  0.0441812902399121  1.0000
  H   H13       1.0  0.09564527214332938  0.5089528158581373  0.7989939239813494  1.0000
  H   H14       1.0  0.9043637143014179  0.4910579848568517  0.20100303147931703  1.0000
  H   H15       1.0  0.20493303766124876  0.35225745377668727  0.7947734893922345  1.0000
  H   H16       1.0  0.7950594999043049  0.6477497862349395  0.20524092617311845  1.0000
  H   H17       1.0  0.9852536220769963  0.3274117814366945  0.8108707791000781  1.0000
  H   H18       1.0  0.01473623041795248  0.6726157980373773  0.1891354411436055  1.0000
  H   H19       1.0  0.32617234196439426  0.6022560591120579  0.42184216629083676  1.0000
  H   H20       1.0  0.6738245516703785  0.39773720844465293  0.578158915491457  1.0000
  H   H21       1.0  0.45557237443690457  0.468543843795473  0.34952572665564213  1.0000
  H   H22       1.0  0.5444304431588876  0.5314518637164056  0.6504715679272832  1.0000
  H   H23       1.0  0.2307146018377821  0.43051400513179067  0.2449238966192482  1.0000
  H   H24       1.0  0.769286467905978  0.5694842623071921  0.7550749283327746  1.0000
  C   C1        1.0  0.9846727193660029  0.25774136327098773  0.37069545462809816  1.0000
  C   C2        1.0  0.015330591076491469  0.7422555874175245  0.6293069498080683  1.0000
  C   C3        1.0  0.06471676558466304  0.3402955626604439  0.5174182595162264  1.0000
  C   C4        1.0  0.9352941398020034  0.6597126455319897  0.48258731973378843  1.0000
  C   C5        1.0  0.9942721902141682  0.28034353206511053  0.6015200887055698  1.0000
  C   C6        1.0  0.005726763259865188  0.7196560284185622  0.39848254160479957  1.0000
  C   C7        1.0  0.8494912287867961  0.13215632365176333  0.5311400846638463  1.0000
  C   C8        1.0  0.15051535562344753  0.8678506998683914  0.4688635050698124  1.0000
  C   C9        1.0  0.7771925962527316  0.0538336969886544  0.3827252507896546  1.0000
  C   C10       1.0  0.22281453743468663  0.9461669837364824  0.6172780949108159  1.0000
  C   C11       1.0  0.6297260830977933  0.8949571523933386  0.29762024741678766  1.0000
  C   C12       1.0  0.3702737209718094  0.1050411325716141  0.7023802330510662  1.0000
  C   C13       1.0  0.5554594347502614  0.798266995791643  0.3553748517107209  1.0000
  C   C14       1.0  0.4445385281455571  0.20173386687975645  0.6446216204943482  1.0000
  C   C15       1.0  0.42505783705811956  0.6424887349435907  0.265014286396827  1.0000
  C   C16       1.0  0.5749380357904386  0.35751720338704723  0.7349918989784001  1.0000
  C   C17       1.0  0.3691933443121371  0.5937053710068624  0.11886401106973916  1.0000
  C   C18       1.0  0.6308064286502171  0.4062929198845352  0.8811346231874919  1.0000
  C   C19       1.0  0.4472645344829971  0.6975998791417409  0.06839447417402765  1.0000
  C   C20       1.0  0.5527348029623624  0.3024009452611267  0.9316068042523966  1.0000
  C   C21       1.0  0.0722551709499015  0.3725801153245029  0.7601221605792999  1.0000
  C   C22       1.0  0.9277439963048124  0.6274321043335648  0.23988207159754887  1.0000
  C   C23       1.0  0.35385540622365846  0.5301770227463508  0.323279266981963  1.0000
  C   C24       1.0  0.6461404763944855  0.4698213385022996  0.6767187951909008  1.0000
  N   N1        1.0  0.8425051412976075  0.11944024683244692  0.3048160568028209  1.0000
  N   N2        1.0  0.15751148493821882  0.8805615277185196  0.6951891180878461  1.0000
  N   N3        1.0  0.5764549043484379  0.8434008965860683  0.15530360736632068  1.0000
  N   N4        1.0  0.42354656492027937  0.15659863180889028  0.8446947888070679  1.0000
  N   N5        1.0  0.8460939729480543  0.1788263403596844  0.06505033870596583  1.0000
  N   N6        1.0  0.15392321811857093  0.8211690884330451  0.9349555152568243  1.0000
  N   N7        1.0  0.9511058992099704  0.1647075470603312  0.9987908204517949  1.0000
  N   N8        1.0  0.0488956100363254  0.8352730356664466  0.0011881908209900845  1.0000
  N   N9        1.0  0.05588664117689749  0.16136876929175503  0.9364758891194925  1.0000
  N   N10       1.0  0.9440825302879431  0.838597233728599  0.0634858008000875  1.0000
  N   N11       1.0  0.5633364951384151  0.8535869117775191  0.8872329330352215  1.0000
  N   N12       1.0  0.436657967168557  0.1464228592890819  0.11277066150921655  1.0000
  N   N13       1.0  0.6105127395076194  0.8636556098243702  0.7920069043712629  1.0000
  N   N14       1.0  0.3894793354192315  0.13633901842442947  0.20799113964260835  1.0000
  N   N15       1.0  0.6490828450518649  0.8678909006991661  0.6950123553655202  1.0000
  N   N16       1.0  0.3509046640106277  0.13208988962941248  0.30498025105489285  1.0000
