data_image0
_chemical_formula_structural       Al2H12C21O10F2
_chemical_formula_sum              "Al2 H12 C21 O10 F2"
_cell_length_a       6.8033420303653065
_cell_length_b       11.181749033187925
_cell_length_c       11.013504273342742
_cell_angle_alpha    81.07966397573864
_cell_angle_beta     73.91980260557901
_cell_angle_gamma    71.23396963057623

_space_group_name_H-M_alt    "P 1"
_space_group_IT_number       1

loop_
  _space_group_symop_operation_xyz
  'x, y, z'

loop_
  _atom_site_type_symbol
  _atom_site_label
  _atom_site_symmetry_multiplicity
  _atom_site_fract_x
  _atom_site_fract_y
  _atom_site_fract_z
  _atom_site_occupancy
  Al  Al1       1.0  0.49279929877077683  0.5018615612071785  0.5042389590299192  1.0000
  Al  Al2       1.0  0.9943479023097905  0.5017635950263966  0.49889954251543134  1.0000
  H   H1        1.0  0.28369728647331266  0.35175258554856725  0.5844568660574578  1.0000
  H   H2        1.0  0.6963733907788519  0.6555387045121891  0.43146988743968945  1.0000
  H   H3        1.0  0.1322709545550254  0.4891477889728578  0.10097302051023856  1.0000
  H   H4        1.0  0.7319218169356106  0.503973027192906  0.14108036111802844  1.0000
  H   H5        1.0  0.2869198543000591  0.4866805953122155  0.8638983491011698  1.0000
  H   H6        1.0  0.2305077073792957  0.23960180095607347  0.3168619575323317  1.0000
  H   H7        1.0  0.5745738165053638  0.1233932415853971  0.1838220135256846  1.0000
  H   H8        1.0  0.44610033358479456  0.7688639971862374  0.32722469577770125  1.0000
  H   H9        1.0  0.6825086892226506  0.8868953941226325  0.18881642594725873  1.0000
  H   H10       1.0  0.9672485921341119  0.5806540244172922  0.9336722636211972  1.0000
  H   H11       1.0  0.009361677355684515  0.4949150648213634  0.800993863804656  1.0000
  H   H12       1.0  0.04477866944004193  0.41316636549467506  0.9493813883914297  1.0000
  C   C1        1.0  0.8616144972692297  0.27801125129001053  0.48505407481295726  1.0000
  C   C2        1.0  0.6544630393656661  0.4959907514431805  0.7290357302135458  1.0000
  C   C3        1.0  0.1305931167914166  0.7263459208956036  0.5064423111606827  1.0000
  C   C4        1.0  0.340924536081495  0.5041655617631591  0.27491001425696737  1.0000
  C   C5        1.0  0.5884768236024912  0.4951950871609797  0.8708409446419477  1.0000
  C   C6        1.0  0.423792264113338  0.49833281988718886  0.13500052344296162  1.0000
  C   C7        1.0  0.7198449732258253  0.4984626485516941  0.9484200461445197  1.0000
  C   C8        1.0  0.295585389905611  0.49180341130313115  0.05774154002629924  1.0000
  C   C9        1.0  0.6332532236192421  0.5005988704236871  0.07945427250012214  1.0000
  C   C10       1.0  0.3794683851088363  0.49062198602337764  0.9278326738266284  1.0000
  C   C11       1.0  0.9362658905308762  0.1370650690789503  0.48141909343171807  1.0000
  C   C12       1.0  0.1397760742182327  0.07123842642911171  0.405264674792498  1.0000
  C   C13       1.0  0.8045575160171978  0.06851932167979412  0.5560726043832387  1.0000
  C   C14       1.0  0.2779160492713188  0.13664557051996704  0.3216386357285756  1.0000
  C   C15       1.0  0.4706626841955597  0.07131088522161382  0.24695206098780875  1.0000
  C   C16       1.0  0.06523657663303332  0.8679846166612464  0.49275209164532174  1.0000
  C   C17       1.0  0.8689759000269103  0.9350982044710752  0.5622139623812571  1.0000
  C   C18       1.0  0.20391535179741266  0.9351550329105719  0.41007417792633294  1.0000
  C   C19       1.0  0.4008013830944746  0.8713952295451226  0.32895405782744536  1.0000
  C   C20       1.0  0.5319517673869283  0.937916032577732  0.25003723954569057  1.0000
  C   C21       1.0  0.9482937287541305  0.4968492751263157  0.9032951144276278  1.0000
  O   O1        1.0  0.6730094424178431  0.33350057456593873  0.47215223254920574  1.0000
  O   O2        1.0  0.8343617518215537  0.5132462040509368  0.671363403479283  1.0000
  O   O3        1.0  0.0014487278531802004  0.673137704246237  0.49016607690528247  1.0000
  O   O4        1.0  0.46099060265592556  0.5268529687385312  0.3336596369407231  1.0000
  O   O5        1.0  0.3113556793434356  0.6714973662826368  0.531642187967982  1.0000
  O   O6        1.0  0.15697943981876242  0.4882782262824394  0.32489747244492395  1.0000
  O   O7        1.0  0.9910491180772423  0.33023456940325974  0.5029601430888274  1.0000
  O   O8        1.0  0.5230727457781299  0.478565305311939  0.6747952115779439  1.0000
  O   O9        1.0  0.25047569899993494  0.44091195565369656  0.5556729995174263  1.0000
  O   O10       1.0  0.7348358486925193  0.5639390907533297  0.44663976474369316  1.0000
  F   F1        1.0  0.7344289320239806  0.8757725608641282  0.6432147498759517  1.0000
  F   F2        1.0  0.6126695458676535  0.12563763280718382  0.63195474312986  1.0000
