data_image0
_chemical_formula_structural       Nd2H24C24O24
_chemical_formula_sum              "Nd2 H24 C24 O24"
_cell_length_a       8.109555648036777
_cell_length_b       9.821969490225502
_cell_length_c       10.796950848280712
_cell_angle_alpha    74.42156483599793
_cell_angle_beta     73.96813188946757
_cell_angle_gamma    74.53872673481669

_space_group_name_H-M_alt    "P 1"
_space_group_IT_number       1

loop_
  _space_group_symop_operation_xyz
  'x, y, z'

loop_
  _atom_site_type_symbol
  _atom_site_label
  _atom_site_symmetry_multiplicity
  _atom_site_fract_x
  _atom_site_fract_y
  _atom_site_fract_z
  _atom_site_occupancy
  Nd  Nd1       1.0  0.5444276571445386  0.30009787061987936  0.1440202974673213  1.0000
  Nd  Nd2       1.0  0.4555698219265167  0.6999020408594134  0.8559791696526844  1.0000
  H   H1        1.0  0.48766575076989954  0.4601766490666108  0.717697712321872  1.0000
  H   H2        1.0  0.5123374086057951  0.5398211115712571  0.2823020294940831  1.0000
  H   H3        1.0  0.3129664401382898  0.23223709102830267  0.46115374308093493  1.0000
  H   H4        1.0  0.6870389949766106  0.7677617382276197  0.5388471378266217  1.0000
  H   H5        1.0  0.5915798139439801  0.14626915501136042  0.5247079044612661  1.0000
  H   H6        1.0  0.40842150576102637  0.8537307612349281  0.47529170644923374  1.0000
  H   H7        1.0  0.6508981959564861  0.992822117398589  0.16417468895620152  1.0000
  H   H8        1.0  0.3491007345259335  0.0071821379708722965  0.8358225386357034  1.0000
  H   H9        1.0  0.4636632779804089  0.9887822856672697  0.25823863981255357  1.0000
  H   H10       1.0  0.5363354827173268  0.011217631160640494  0.7417605653179251  1.0000
  H   H11       1.0  0.17985423916464066  0.3277083570769932  0.11126891600445526  1.0000
  H   H12       1.0  0.8201426691242022  0.672293681522781  0.8887329474977791  1.0000
  H   H13       1.0  0.2934365597679829  0.20445534200297297  0.02852792941633449  1.0000
  H   H14       1.0  0.706560631788939  0.7955456273971322  0.9714732007743194  1.0000
  H   H15       1.0  0.7302777796359052  0.5537300778380613  0.09189107656796837  1.0000
  H   H16       1.0  0.269720976815762  0.4462698277109922  0.9081090583215853  1.0000
  H   H17       1.0  0.8371993906553853  0.43033072196911354  0.19164117238091896  1.0000
  H   H18       1.0  0.162801645781542  0.5696702634768441  0.8083591718411612  1.0000
  H   H19       1.0  0.7635901959835678  0.4539792011710943  0.404677435877602  1.0000
  H   H20       1.0  0.23641084045335953  0.5460217842748633  0.5953229083444782  1.0000
  H   H21       1.0  0.045564725293850465  0.21366479496554552  0.7826928402020528  1.0000
  H   H22       1.0  0.9544374357232498  0.7863318911240357  0.21730643029184887  1.0000
  H   H23       1.0  0.1128032179802361  0.027095217289925706  0.2576366070698768  1.0000
  H   H24       1.0  0.8871958174934418  0.9729036077806087  0.7423637242671716  1.0000
  C   C1        1.0  0.8079621184206331  0.3343779475826452  0.7212653721404365  1.0000
  C   C2        1.0  0.1920412022476299  0.6656241290390739  0.278734251655095  1.0000
  C   C3        1.0  0.7272395457532995  0.40397511475786974  0.6138701747824982  1.0000
  C   C4        1.0  0.2727627680642326  0.5960258647578558  0.38613083720913005  1.0000
  C   C5        1.0  0.8281873113315185  0.4031647989292467  0.48637427347087947  1.0000
  C   C6        1.0  0.17181501097815033  0.5968362031441855  0.5136248790025989  1.0000
  C   C7        1.0  0.007609262637494391  0.34035957988745474  0.46266105385353745  1.0000
  C   C8        1.0  0.9923946203208518  0.6596403470560759  0.5373380330779084  1.0000
  C   C9        1.0  0.08920799109914408  0.2751808569188158  0.5714619748586713  1.0000
  C   C10       1.0  0.9107923260012  0.7248179735003362  0.4285380944888502  1.0000
  C   C11       1.0  0.9858754758353214  0.2692878707224224  0.6988553547719292  1.0000
  C   C12       1.0  0.01412584386968516  0.7307120455238731  0.3011442561385707  1.0000
  C   C13       1.0  0.7107756350066055  0.32732576756734494  0.8601182080406105  1.0000
  C   C14       1.0  0.289224124049717  0.6726752238088521  0.13988146841192162  1.0000
  C   C15       1.0  0.10986781609037165  0.3379788819612984  0.32653935925569044  1.0000
  C   C16       1.0  0.890133224592624  0.6620221147635165  0.6734600552073148  1.0000
  C   C17       1.0  0.8206432562625279  0.048897542229219895  0.5516152523665383  1.0000
  C   C18       1.0  0.17935650703986267  0.9511034604258272  0.4483834943269186  1.0000
  C   C19       1.0  0.8871518038145396  0.06475175301920189  0.41400366463326327  1.0000
  C   C20       1.0  0.11284723590519966  0.9352470833301892  0.5859957369447031  1.0000
  C   C21       1.0  0.06547241266896718  0.0156178883496807  0.36385141139011523  1.0000
  C   C22       1.0  0.9345260732528184  0.984383120235606  0.636146667533801  1.0000
  C   C23       1.0  0.7703974385653539  0.13448018603000383  0.3216144840735636  1.0000
  C   C24       1.0  0.22960159266225585  0.8655186277616806  0.6783867770225527  1.0000
  O   O1        1.0  0.7311332399083385  0.21068144389981572  0.9450110141620841  1.0000
  O   O2        1.0  0.2688668024160634  0.7893184782767123  0.05498792897886775  1.0000
  O   O3        1.0  0.6062608297247322  0.4426399877917787  0.8951488950739233  1.0000
  O   O4        1.0  0.39373564249559906  0.5573588265815205  0.10485196024217198  1.0000
  O   O5        1.0  0.2775333624006677  0.2918313775635184  0.3111773292690927  1.0000
  O   O6        1.0  0.722467957304339  0.7081685386827771  0.6888222816414071  1.0000
  O   O7        1.0  0.03714369610619162  0.3766616502149419  0.2279490247386207  1.0000
  O   O8        1.0  0.9628570613087247  0.6233404157095421  0.7720511230359648  1.0000
  O   O9        1.0  0.5549208130869729  0.4690064789580076  0.6260692402851618  1.0000
  O   O10       1.0  0.4450820672667177  0.5309923621583793  0.3739303050833058  1.0000
  O   O11       1.0  0.2620240209735272  0.21425972919389843  0.5585476939067107  1.0000
  O   O12       1.0  0.7379771331928493  0.7857358597896961  0.4414529647832879  1.0000
  O   O13       1.0  0.6090976002662956  0.19288225773046716  0.3684832546701884  1.0000
  O   O14       1.0  0.39089987455869846  0.8071176424699688  0.6315171422088852  1.0000
  O   O15       1.0  0.824566879579102  0.14073683305306867  0.1982398004808772  1.0000
  O   O16       1.0  0.1754240215739102  0.8592587131415784  0.801762954125323  1.0000
  O   O17       1.0  0.6472053459745412  0.0962712143490023  0.6031053769428851  1.0000
  O   O18       1.0  0.3527936894991369  0.9037276107215393  0.3968949543941561  1.0000
  O   O19       1.0  0.5276696662824704  0.0408372290528902  0.1725882119515774  1.0000
  O   O20       1.0  0.4723275337665811  0.9591637629049217  0.8274110587209335  1.0000
  O   O21       1.0  0.2886545278644732  0.3015460420637766  0.037646248289412675  1.0000
  O   O22       1.0  0.7113439538112444  0.6984549552426529  0.9623527603935712  1.0000
  O   O23       1.0  0.7241388869583361  0.4635455614826754  0.16121919659327935  1.0000
  O   O24       1.0  0.27586243274667754  0.5364543547636131  0.8387804143172204  1.0000
