data_image0
_chemical_formula_structural       Li2H16C20N8O2F6
_chemical_formula_sum              "Li2 H16 C20 N8 O2 F6"
_cell_length_a       8.149749089845573
_cell_length_b       8.594339937259727
_cell_length_c       8.631199584159594
_cell_angle_alpha    73.49368904931558
_cell_angle_beta     85.06943708838914
_cell_angle_gamma    88.20957412069308

_space_group_name_H-M_alt    "P 1"
_space_group_IT_number       1

loop_
  _space_group_symop_operation_xyz
  'x, y, z'

loop_
  _atom_site_type_symbol
  _atom_site_label
  _atom_site_symmetry_multiplicity
  _atom_site_fract_x
  _atom_site_fract_y
  _atom_site_fract_z
  _atom_site_occupancy
  Li  Li1       1.0  0.7584349402294633  0.7617629549309585  0.1653024259937723  1.0000
  Li  Li2       1.0  0.24156497756239756  0.238236972406014  0.8347000181560915  1.0000
  H   H1        1.0  0.7504507986537375  0.8929112553278387  0.49410802484991473  1.0000
  H   H2        1.0  0.24954787186484853  0.1070923137218927  0.5058923242606425  1.0000
  H   H3        1.0  0.9464411099184603  0.8973025093322351  0.38087393920943663  1.0000
  H   H4        1.0  0.053560059167516307  0.10269498551595291  0.6191267804231089  1.0000
  H   H5        1.0  0.9052259764234093  0.7802289623508685  0.7208748635268307  1.0000
  H   H6        1.0  0.09477517005414879  0.21977217474712768  0.2791259819464074  1.0000
  H   H7        1.0  0.060927250234563204  0.7024879408439304  0.6052135913165272  1.0000
  H   H8        1.0  0.9390751313091386  0.2975131924177389  0.3947859996835348  1.0000
  H   H9        1.0  0.9244026831844676  0.4545704075401956  0.6784152055586077  1.0000
  H   H10       1.0  0.0755997018263272  0.5454307242636887  0.3215832269904054  1.0000
  H   H11       1.0  0.7601832484291651  0.5341515570832058  0.7829687788159133  1.0000
  H   H12       1.0  0.23982036762691908  0.4658483616603917  0.21703221881654852  1.0000
  H   H13       1.0  0.7270806779604017  0.46390995792760503  0.48372781231242357  1.0000
  H   H14       1.0  0.27291923345101304  0.536091183006711  0.5162742876339833  1.0000
  H   H15       1.0  0.6015772338840149  0.6062919376482017  0.5575235114071333  1.0000
  H   H16       1.0  0.3984251505730256  0.3937079834739237  0.44247758224744166  1.0000
  C   C1        1.0  0.7308715989700757  0.1409549429480563  0.10765579462956511  1.0000
  C   C2        1.0  0.2691246315125965  0.8590461992906883  0.8923419595789639  1.0000
  C   C3        1.0  0.6201818964953388  0.2531102006595206  0.1545795125710896  1.0000
  C   C4        1.0  0.3798155626730376  0.7468921513402336  0.8454166429608136  1.0000
  C   C5        1.0  0.5063226911485897  0.023810282138192904  0.21464902664575192  1.0000
  C   C6        1.0  0.49367723357746474  0.9761896422832023  0.785351100602  1.0000
  C   C7        1.0  0.8903513392226543  0.1715486448104002  0.03039083821984427  1.0000
  C   C8        1.0  0.10964611301152158  0.8284537101049381  0.969607634214178  1.0000
  C   C9        1.0  0.6493366975787892  0.4172300629043519  0.14149368841691512  1.0000
  C   C10       1.0  0.3506583180865802  0.5827698637422073  0.8585010306640157  1.0000
  C   C11       1.0  0.3828155204028008  0.8926315752672451  0.286142883070127  1.0000
  C   C12       1.0  0.6171856452160752  0.1073659210387348  0.7138589950134745  1.0000
  C   C13       1.0  0.8568538354785317  0.8194678401059079  0.4684295154209225  1.0000
  C   C14       1.0  0.14314978404465248  0.1805320771798975  0.5315703237604836  1.0000
  C   C15       1.0  0.9275577957918413  0.7198502035162874  0.6249813992514888  1.0000
  C   C16       1.0  0.07244335415281708  0.2801509321239166  0.37501828777069324  1.0000
  C   C17       1.0  0.8364567602242727  0.5555112668348342  0.6680916896782705  1.0000
  C   C18       1.0  0.16354563408030737  0.4444874392321623  0.3319085897287053  1.0000
  C   C19       1.0  0.7289867553388163  0.571947210518701  0.5267833517375208  1.0000
  C   C20       1.0  0.2710156256511311  0.42805271206121626  0.47321890036811715  1.0000
  N   N1        1.0  0.6556336215313294  0.993368905807635  0.14716588714599518  1.0000
  N   N2        1.0  0.34436630957515757  0.006629805016416401  0.8528345843052065  1.0000
  N   N3        1.0  0.021903248952661193  0.2014874753566858  0.965746228190305  1.0000
  N   N4        1.0  0.9780941899668818  0.7985160960715733  0.03425421694237232  1.0000
  N   N5        1.0  0.6784513307214083  0.5516546753040216  0.1328773346258743  1.0000
  N   N6        1.0  0.3215449096088037  0.4483452518795872  0.8671196053350484  1.0000
  N   N7        1.0  0.4770237547261899  0.17609465837092128  0.22257630756744362  1.0000
  N   N8        1.0  0.5229724890711223  0.8239052673548953  0.7774194739424304  1.0000
  O   O1        1.0  0.8019423429534169  0.7009437556318971  0.39419033397174985  1.0000
  O   O2        1.0  0.19805757192509785  0.29905738384462666  0.6058106075236012  1.0000
  F   F1        1.0  0.37555674385477283  0.8438511149543187  0.4528014825887181  1.0000
  F   F2        1.0  0.6244456243742961  0.15615123482027118  0.547200081110006  1.0000
  F   F3        1.0  0.42026909295187653  0.7577703042051027  0.23648542661116065  1.0000
  F   F4        1.0  0.5797320657328058  0.24222719501645434  0.7635187683745457  1.0000
  F   F5        1.0  0.22712515904348857  0.9406499536844136  0.24656957890653075  1.0000
  F   F6        1.0  0.7728747882909841  0.0593463284871731  0.7534304225005215  1.0000
