data_image0
_chemical_formula_structural       Sm2Ag2H22C30N4O24
_chemical_formula_sum              "Sm2 Ag2 H22 C30 N4 O24"
_cell_length_a       7.597513475829472
_cell_length_b       8.234538718664288
_cell_length_c       14.211463574909285
_cell_angle_alpha    97.7872423822651
_cell_angle_beta     100.80631515059626
_cell_angle_gamma    94.12978428153109

_space_group_name_H-M_alt    "P 1"
_space_group_IT_number       1

loop_
  _space_group_symop_operation_xyz
  'x, y, z'

loop_
  _atom_site_type_symbol
  _atom_site_label
  _atom_site_symmetry_multiplicity
  _atom_site_fract_x
  _atom_site_fract_y
  _atom_site_fract_z
  _atom_site_occupancy
  Sm  Sm1       1.0  0.8121550760041102  0.2975693558186733  0.08196692473843828  1.0000
  Sm  Sm2       1.0  0.18784414730227175  0.7024305375516774  0.9180336464071245  1.0000
  Ag  Ag1       1.0  0.1719176460883034  0.4099254766373193  0.5322541352578938  1.0000
  Ag  Ag2       1.0  0.8280829155377487  0.5900744028484154  0.46774656237660384  1.0000
  H   H1        1.0  0.20788613856088026  0.1888527937669053  0.1290913969461371  1.0000
  H   H2        1.0  0.792114273086028  0.8111458539321389  0.8709091847168651  1.0000
  H   H3        1.0  0.13133086382342188  0.11420690638543358  0.0197015356733274  1.0000
  H   H4        1.0  0.8686680595246725  0.8857905234115505  0.9802988035292443  1.0000
  H   H5        1.0  0.7841633006891084  0.552080380087844  0.9566998938760278  1.0000
  H   H6        1.0  0.21583711095779987  0.4479182676112002  0.043300687786974386  1.0000
  H   H7        1.0  0.6393691155025677  0.6250160777813605  0.016819931391097467  1.0000
  H   H8        1.0  0.3606312961443407  0.37498256991768375  0.9831806502719047  1.0000
  H   H9        1.0  0.9746505420675078  0.007563287328920898  0.8264431457532595  1.0000
  H   H10       1.0  0.02534985799523782  0.9924353679073903  0.17355673172642844  1.0000
  H   H11       1.0  0.0359337228154075  0.4650415176217066  0.7149807324502219  1.0000
  H   H12       1.0  0.9640653505118306  0.5349571439619609  0.2850197227238453  1.0000
  H   H13       1.0  0.5239327902214937  0.704255631994883  0.2409066572454961  1.0000
  H   H14       1.0  0.4760692481192094  0.29574547293017867  0.7590935786661178  1.0000
  H   H15       1.0  0.3295093145467902  0.29403446764415253  0.36469377027228933  1.0000
  H   H16       1.0  0.6704885588557585  0.7059654471480812  0.6353059702010242  1.0000
  H   H17       1.0  0.1657926332004109  0.03817135755875258  0.561541349816153  1.0000
  H   H18       1.0  0.834203740319168  0.9618273468686878  0.4384574440134159  1.0000
  H   H19       1.0  0.27960244537047163  0.767765014775911  0.493449314712386  1.0000
  H   H20       1.0  0.7204009312899018  0.2322360762645346  0.5065510476881627  1.0000
  H   H21       1.0  0.45784583943183316  0.08897064759639757  0.2684042727166442  1.0000
  H   H22       1.0  0.542156210493033  0.9110304497913971  0.7315966673782909  1.0000
  C   C1        1.0  0.9269687645970418  0.3336004375408663  0.8639762840091122  1.0000
  C   C2        1.0  0.07303149707071549  0.6663969783714946  0.13602418168239439  1.0000
  C   C3        1.0  0.4986441377196868  0.36991346701488237  0.2188461609470238  1.0000
  C   C4        1.0  0.501355235565839  0.630087658142152  0.7811545261700347  1.0000
  C   C5        1.0  0.5657163069735275  0.9388217481279995  0.018898961242747685  1.0000
  C   C6        1.0  0.434278774563026  0.06117694003500418  0.9811025228311507  1.0000
  C   C7        1.0  0.9957289931657693  0.2461840795578211  0.7809633324109342  1.0000
  C   C8        1.0  0.004269930182324777  0.7538133502391557  0.21903700679163043  1.0000
  C   C9        1.0  0.43792397901327  0.48557576010946946  0.2943594951896031  1.0000
  C   C10       1.0  0.5620725560696158  0.5144241685673875  0.7056401187947825  1.0000
  C   C11       1.0  0.011974880087159096  0.0773676917169226  0.7722371162438719  1.0000
  C   C12       1.0  0.9880241700717532  0.9226309849412713  0.22776193056356675  1.0000
  C   C13       1.0  0.0449214285720743  0.3327587760107917  0.7106372244661472  1.0000
  C   C14       1.0  0.955079121469815  0.6672411110122027  0.2893627689850362  1.0000
  C   C15       1.0  0.46288957395479696  0.655284394789902  0.2959383248408756  1.0000
  C   C16       1.0  0.5371108145237853  0.3447142679836759  0.7040608484554979  1.0000
  C   C17       1.0  0.35357868901799344  0.4259274325004724  0.36361130144516096  1.0000
  C   C18       1.0  0.6464194843428499  0.5740749458651349  0.6363886709711508  1.0000
  C   C19       1.0  0.07544678892553947  0.9994198101926128  0.6936067251535788  1.0000
  C   C20       1.0  0.9245495961781953  0.0005788866975536008  0.3063927728593113  1.0000
  C   C21       1.0  0.4031643989349547  0.7601274395446894  0.3665495790938209  1.0000
  C   C22       1.0  0.5968361626910974  0.2398724399410384  0.6334511185406769  1.0000
  C   C23       1.0  0.11752731032950689  0.09403639712985519  0.6247795619320584  1.0000
  C   C24       1.0  0.8824704015097352  0.9059622934129549  0.37521935838644543  1.0000
  C   C25       1.0  0.09692119566010854  0.817155862647894  0.683749703267658  1.0000
  C   C26       1.0  0.9030778544988036  0.18284281401029992  0.3162493435397876  1.0000
  C   C27       1.0  0.32694335715479633  0.6916416580531004  0.43621058689515724  1.0000
  C   C28       1.0  0.6730586811859068  0.308359446871961  0.5637896490164636  1.0000
  C   C29       1.0  0.4055114684861962  0.940675457562115  0.3617922596562693  1.0000
  C   C30       1.0  0.5944904198753632  0.05932441557625619  0.638207860283849  1.0000
  N   N1        1.0  0.10309802219057926  0.2578166298138242  0.6334809944081456  1.0000
  N   N2        1.0  0.8969001395860942  0.7421857560890429  0.3665182738248518  1.0000
  N   N3        1.0  0.3020719964237698  0.5272981248061795  0.4341659383991257  1.0000
  N   N4        1.0  0.6979273536934371  0.4727030154253881  0.5658333403513113  1.0000
  O   O1        1.0  0.862707388677755  0.2473225298537827  0.9189559878076494  1.0000
  O   O2        1.0  0.13729302296915333  0.7526761178452614  0.08104459385535279  1.0000
  O   O3        1.0  0.6159174709101692  0.4282827907980361  0.17685542373475016  1.0000
  O   O4        1.0  0.3840833906741706  0.5717195522610651  0.8231455058427385  1.0000
  O   O5        1.0  0.7276961671695688  0.9974864531436295  0.05367952191461706  1.0000
  O   O6        1.0  0.2723003563291542  0.002513483070487199  0.9463193878864545  1.0000
  O   O7        1.0  0.0959980485226453  0.1683350377336126  0.0785894461149041  1.0000
  O   O8        1.0  0.9040022247292825  0.8316623706414885  0.9214117237599098  1.0000
  O   O9        1.0  0.7189349977228968  0.5359073835920043  0.00926617165284677  1.0000
  O   O10       1.0  0.2810640756043412  0.46409127799166316  0.9907342835212205  1.0000
  O   O11       1.0  0.4978483739394405  0.20956680229329547  0.9888896503184128  1.0000
  O   O12       1.0  0.5021479995801313  0.7904319021341448  0.011109143511156085  1.0000
  O   O13       1.0  0.06439056309069  0.5085274090702967  0.12557169802246898  1.0000
  O   O14       1.0  0.9356113252708693  0.4914724640680814  0.8744284219176492  1.0000
  O   O15       1.0  0.914517300077861  0.2513725204427146  0.24138698819648138  1.0000
  O   O16       1.0  0.0854834115273349  0.7486285908297037  0.7586138254095189  1.0000
  O   O17       1.0  0.42708884350275855  0.2207020701240481  0.20066704635905097  1.0000
  O   O18       1.0  0.5729117297074494  0.7792978018244197  0.7993343554587682  1.0000
  O   O19       1.0  0.12184331842018988  0.7443521542949084  0.6042860255612298  1.0000
  O   O20       1.0  0.8781545433982031  0.25564776803458505  0.3957130107287766  1.0000
  O   O21       1.0  0.4813210774534582  0.977498145052344  0.2892499321883832  1.0000
  O   O22       1.0  0.5186836375265854  0.022502932103478205  0.7107505567011002  1.0000
  O   O23       1.0  0.3389070456094457  0.037996242973164805  0.41547766782233714  1.0000
  O   O24       1.0  0.6610921661127803  0.9620036579344526  0.5845221991399114  1.0000
