data_image0
_chemical_formula_structural       Fe2H6C4N6Cl4
_chemical_formula_sum              "Fe2 H6 C4 N6 Cl4"
_cell_length_a       6.651757679940949
_cell_length_b       6.9709401925359415
_cell_length_c       7.373249085744866
_cell_angle_alpha    116.03585566959315
_cell_angle_beta     112.26803966592956
_cell_angle_gamma    97.43291024781838

_space_group_name_H-M_alt    "P 1"
_space_group_IT_number       1

loop_
  _space_group_symop_operation_xyz
  'x, y, z'

loop_
  _atom_site_type_symbol
  _atom_site_label
  _atom_site_symmetry_multiplicity
  _atom_site_fract_x
  _atom_site_fract_y
  _atom_site_fract_z
  _atom_site_occupancy
  Fe  Fe1       1.0  0.4999999577997656  0.9999988951282147  1.8541426954336082e-06  1.0000
  Fe  Fe2       1.0  0.9999986726254165  0.9999948426031292  0.9999971911063311  1.0000
  H   H1        1.0  0.3077501048670682  0.605856836954132  0.16244675633365793  1.0000
  H   H2        1.0  0.6922440765477873  0.3941481295848915  0.8375475619089059  1.0000
  H   H3        1.0  0.1433815534934908  0.7766120507830863  0.4409249374909264  1.0000
  H   H4        1.0  0.7349286892507009  0.65741583575479  0.3934096312483175  1.0000
  H   H5        1.0  0.8566251514993227  0.22339650933974295  0.559083385754093  1.0000
  H   H6        1.0  0.2650585338412768  0.34257889003590947  0.6065862016827595  1.0000
  C   C1        1.0  0.3172128247043701  0.7719597574125955  0.4891617633301236  1.0000
  C   C2        1.0  0.6237411874318113  0.7143290377236652  0.46535805057136764  1.0000
  C   C3        1.0  0.682764954855216  0.22803987733129819  0.5108178342707106  1.0000
  C   C4        1.0  0.37625304256923897  0.28565715470432446  0.5346177737811928  1.0000
  N   N1        1.0  0.4876043405692059  0.8572030352046055  0.702090006285836  1.0000
  N   N2        1.0  0.6826476987788795  0.8229235766641736  0.6870677640037002  1.0000
  N   N3        1.0  0.5124102716061216  0.14280055165912126  0.29792584806202166  1.0000
  N   N4        1.0  0.3173597886483037  0.17707822670864462  0.3129448591042134  1.0000
  N   N5        1.0  0.3985250871577222  0.6823013921972033  0.3389556744311193  1.0000
  N   N6        1.0  0.6014859857425492  0.3177106672496065  0.6610637495542733  1.0000
  Cl  Cl1       1.0  0.8246372922409864  0.30141912343344046  0.13596344261075902  1.0000
  Cl  Cl2       1.0  0.8087402164875074  0.8223403806713845  0.13885048426794805  1.0000
  Cl  Cl3       1.0  0.1753652270669974  0.6985774725323352  0.8640371719265117  1.0000
  Cl  Cl4       1.0  0.191259040552282  0.17765617759045677  0.8611489685644855  1.0000
