data_image0
_chemical_formula_structural       In4H48C96N8O16
_chemical_formula_sum              "In4 H48 C96 N8 O16"
_cell_length_a       7.500687469623252
_cell_length_b       12.836345943971738
_cell_length_c       30.780654813087473
_cell_angle_alpha    88.52616525934255
_cell_angle_beta     84.8972779740508
_cell_angle_gamma    73.03274033992129

_space_group_name_H-M_alt    "P 1"
_space_group_IT_number       1

loop_
  _space_group_symop_operation_xyz
  'x, y, z'

loop_
  _atom_site_type_symbol
  _atom_site_label
  _atom_site_symmetry_multiplicity
  _atom_site_fract_x
  _atom_site_fract_y
  _atom_site_fract_z
  _atom_site_occupancy
  In  In1       1.0  0.3478237881802002  0.3054208657215156  0.2500396811022085  1.0000
  In  In2       1.0  0.6522008776723285  0.6945846065305757  0.7499486621309116  1.0000
  In  In3       1.0  0.4999087882464792  3.342894901690001e-05  9.178854213595086e-06  1.0000
  In  In4       1.0  0.5000446938261478  1.0526935305699996e-05  0.4999911150381492  1.0000
  H   H1        1.0  0.05880611281456533  0.6348232796665487  0.16487848408503675  1.0000
  H   H2        1.0  0.6376808649115732  0.45965084513293425  0.13736950425765568  1.0000
  H   H3        1.0  0.0961210040792508  0.7820581072821398  0.11261856944847178  1.0000
  H   H4        1.0  0.1639110438351992  0.014152257195775104  0.06948919253633079  1.0000
  H   H5        1.0  0.8471187191391537  0.2030562337237214  0.20687274497971225  1.0000
  H   H6        1.0  0.3517359990669605  0.06758564131850159  0.1244565368784833  1.0000
  H   H7        1.0  0.6782401254246793  0.6057301828266264  0.08504455572284539  1.0000
  H   H8        1.0  0.5976551032813475  0.7759231179580441  0.14786295422230464  1.0000
  H   H9        1.0  0.7964402456579691  0.9186004829794573  0.15218531823460066  1.0000
  H   H10       1.0  0.8210438455348027  0.3167039397674642  0.9702303847984267  1.0000
  H   H11       1.0  0.9339836354665042  0.2313301623293356  0.04767061964073349  1.0000
  H   H12       1.0  0.6610356002842438  0.1493548585724369  0.15368957048821835  1.0000
  H   H13       1.0  0.306858927159759  0.6350517960505614  0.3350957308707975  1.0000
  H   H14       1.0  0.903125079691641  0.4597356077513411  0.3624722848959863  1.0000
  H   H15       1.0  0.12208629644022999  0.7823329256215249  0.3873307443677446  1.0000
  H   H16       1.0  0.8219674914000238  0.014188778657746998  0.430553211784165  1.0000
  H   H17       1.0  0.9506832568033091  0.20278131387115653  0.29315269151875606  1.0000
  H   H18       1.0  0.5806375529864383  0.06797016547614021  0.37561360055779847  1.0000
  H   H19       1.0  0.7164372911697613  0.6057613718381704  0.4148456107230274  1.0000
  H   H20       1.0  0.6268341340363364  0.7758327902350147  0.3520957446680128  1.0000
  H   H21       1.0  0.285438856661237  0.918431833045574  0.3477918378887067  1.0000
  H   H22       1.0  0.8622365867213446  0.31645294706247284  0.5298030730477306  1.0000
  H   H23       1.0  0.8348943211047626  0.231059879776609  0.4523276908354957  1.0000
  H   H24       1.0  0.19038341109232704  0.1488695577393884  0.34635293704863557  1.0000
  H   H25       1.0  0.9411929240027349  0.36515938865085223  0.8351271137997783  1.0000
  H   H26       1.0  0.36232330600864765  0.5403684732813759  0.8626226650080254  1.0000
  H   H27       1.0  0.9038227432980152  0.21794410418267776  0.887388197220069  1.0000
  H   H28       1.0  0.8360068337237865  0.9858352882815637  0.9305133144969415  1.0000
  H   H29       1.0  0.1528985171453172  0.7969378411976393  0.7931359849308561  1.0000
  H   H30       1.0  0.6482287155848212  0.9323888753947642  0.8755419737607821  1.0000
  H   H31       1.0  0.32171792481823763  0.3943037922666406  0.914948007714919  1.0000
  H   H32       1.0  0.4023957121128704  0.22403267057099904  0.8521256869657774  1.0000
  H   H33       1.0  0.20360776578218792  0.08135775042084252  0.8478079010675755  1.0000
  H   H34       1.0  0.17901573112907712  0.683263254825732  0.029762862803586594  1.0000
  H   H35       1.0  0.06607671288937648  0.7686305148456473  0.952319099675442  1.0000
  H   H36       1.0  0.33893907617753166  0.8506538763019268  0.8463279352109578  1.0000
  H   H37       1.0  0.6931650653717158  0.3649430910971105  0.6649040939821872  1.0000
  H   H38       1.0  0.09690966233040402  0.5402486909093726  0.6375254889237636  1.0000
  H   H39       1.0  0.8779355291117882  0.217655445475053  0.6126704802017642  1.0000
  H   H40       1.0  0.17806176927094686  0.9858118102195663  0.5694448385189899  1.0000
  H   H41       1.0  0.049344263060952166  0.79723312301649  0.7068485126455782  1.0000
  H   H42       1.0  0.41937841122673086  0.9320458994950019  0.624388452399458  1.0000
  H   H43       1.0  0.28359716395044643  0.39421803992407695  0.5851531881025379  1.0000
  H   H44       1.0  0.3731966054353961  0.22415395227879736  0.6479040302131621  1.0000
  H   H45       1.0  0.7146006766045759  0.081558982275304  0.6522054623392035  1.0000
  H   H46       1.0  0.13778393616355095  0.6835215780496355  0.47020187703862587  1.0000
  H   H47       1.0  0.16511872812024106  0.7689244184031235  0.5476756831579976  1.0000
  H   H48       1.0  0.8096425962341489  0.8511294020650269  0.6536461632053727  1.0000
  C   C1        1.0  0.3277664106299129  0.45523099356332614  0.18707200145134806  1.0000
  C   C2        1.0  0.3896788291470442  0.7031480820510583  0.09562002627576757  1.0000
  C   C3        1.0  0.1927062247037269  0.6291642990078616  0.1465984394061053  1.0000
  C   C4        1.0  0.3461156681721889  0.5392532579378299  0.15381695101341106  1.0000
  C   C5        1.0  0.7051061642214265  0.9684097494581538  0.08549692616696089  1.0000
  C   C6        1.0  0.5203741641523508  0.5302356511860183  0.13114682546921586  1.0000
  C   C7        1.0  0.21402834592651476  0.7105313076575757  0.11751382560586168  1.0000
  C   C8        1.0  0.5381181537877283  0.8491825426702063  0.08176028326418107  1.0000
  C   C9        1.0  0.11095219567793181  0.1382269782831358  0.16851908147612696  1.0000
  C   C10       1.0  0.9010925283774328  0.0796226335382286  0.10775025760924707  1.0000
  C   C11       1.0  0.770218257072898  0.11553148409593211  0.036201595359216285  1.0000
  C   C12       1.0  0.09604930282818462  0.05622751233052271  0.09959069414262697  1.0000
  C   C13       1.0  0.9168218989854467  0.16086558644525442  0.17696889347961076  1.0000
  C   C14       1.0  0.20045026328744345  0.0847827220189572  0.1299342640577876  1.0000
  C   C15       1.0  0.41856410824427576  0.7928007404776595  0.06700402741424939  1.0000
  C   C16       1.0  0.542113456877573  0.6117469739235518  0.10233842755403798  1.0000
  C   C17       1.0  0.618947559408582  0.8337001783647512  0.12307096443975499  1.0000
  C   C18       1.0  0.7881884971145967  0.0522645525771779  0.07471017675798207  1.0000
  C   C19       1.0  0.6745528637154126  0.18714268081330945  0.9716531396662587  1.0000
  C   C20       1.0  0.7208649551435895  0.9061839862984727  0.12527444295394466  1.0000
  C   C21       1.0  0.7905221132306439  0.24779166708795233  0.9870642210472906  1.0000
  C   C22       1.0  0.8485265142677606  0.20422760653908503  0.026416736380887994  1.0000
  C   C23       1.0  0.8122402878260504  0.13096481977559904  0.14685029132596125  1.0000
  C   C24       1.0  0.22265971108592447  0.17737113876437863  0.1988082909841964  1.0000
  C   C25       1.0  0.21757347441407407  0.45521314587575296  0.3129432572683015  1.0000
  C   C26       1.0  0.9075582445670988  0.7032496337212496  0.40431801419502716  1.0000
  C   C27       1.0  0.17858852925427016  0.6293803775983663  0.35335696332607097  1.0000
  C   C28       1.0  0.1151347368794688  0.5394053041382634  0.3461179040179444  1.0000
  C   C29       1.0  0.3267574558881988  0.9681607209195847  0.4145159477297397  1.0000
  C   C30       1.0  0.9498398205269969  0.5303526624547317  0.3687415711668293  1.0000
  C   C31       1.0  0.07579481939372816  0.7107381302883623  0.3824317765135631  1.0000
  C   C32       1.0  0.6129165013228647  0.8490359978479629  0.41823889126199276  1.0000
  C   C33       1.0  0.7513002465913846  0.1382692543405994  0.33153676684810307  1.0000
  C   C34       1.0  0.0196837882468657  0.07936526896543232  0.3922669866812355  1.0000
  C   C35       1.0  0.11431255370450803  0.1152546093575353  0.4638308949809654  1.0000
  C   C36       1.0  0.847900417292401  0.05620487476153362  0.4004421609899537  1.0000
  C   C37       1.0  0.9230237257553429  0.1606664010607162  0.323070485979862  1.0000
  C   C38       1.0  0.714940184312184  0.08493774601991791  0.37012844683813023  1.0000
  C   C39       1.0  0.7888994885351297  0.7928103046508568  0.432959653489952  1.0000
  C   C40       1.0  0.8465539478192387  0.6118177932328096  0.3975655581864216  1.0000
  C   C41       1.0  0.547694050158313  0.8335554788836392  0.37689981105322795  1.0000
  C   C42       1.0  0.159818993322844  0.0519577541514309  0.42531497830297826  1.0000
  C   C43       1.0  0.13816113850700162  0.18695701034242523  0.5283892394471221  1.0000
  C   C44       1.0  0.3733339732414226  0.9059998176818808  0.3747045764501137  1.0000
  C   C45       1.0  0.9616131552383252  0.24751337320375907  0.5129759492476254  1.0000
  C   C46       1.0  0.9472937496606236  0.20391404476425382  0.4736079436198607  1.0000
  C   C47       1.0  0.05743557434347218  0.13064249826150842  0.35317360969868616  1.0000
  C   C48       1.0  0.600649847104009  0.17760217747929372  0.30124153600460346  1.0000
  C   C49       1.0  0.6722872099309714  0.5447590067982871  0.8129195220221488  1.0000
  C   C50       1.0  0.6102731346138058  0.29687041905266653  0.9043809149333624  1.0000
  C   C51       1.0  0.8072899999991849  0.3708297711507598  0.8534032067362954  1.0000
  C   C52       1.0  0.6538818591978455  0.46075465820525363  0.8461809696121418  1.0000
  C   C53       1.0  0.294791259571099  0.03162585428321311  0.9145139648938422  1.0000
  C   C54       1.0  0.47962912284467063  0.46978529665015156  0.8688466447953116  1.0000
  C   C55       1.0  0.7859250092997813  0.28947334763159205  0.8824904663276809  1.0000
  C   C56       1.0  0.46179488060739254  0.1508489888052083  0.9182467822544351  1.0000
  C   C57       1.0  0.8890359021205113  0.8617565023089356  0.8314834624093945  1.0000
  C   C58       1.0  0.09885194284414915  0.9203860944965641  0.8922570855000271  1.0000
  C   C59       1.0  0.22966823512959414  0.8845098205751897  0.9638104203649573  1.0000
  C   C60       1.0  0.903888966538922  0.9437673663058918  0.9004120176485555  1.0000
  C   C61       1.0  0.08317850106049442  0.8391219705572939  0.8230405330570106  1.0000
  C   C62       1.0  0.7995211030748524  0.9151942399955716  0.8700670250781071  1.0000
  C   C63       1.0  0.5813596203649141  0.20722834784391614  0.9330009131350392  1.0000
  C   C64       1.0  0.45785124795116877  0.3882813014672379  0.8976579640042954  1.0000
  C   C65       1.0  0.3810473894010046  0.166289002559779  0.876925226904447  1.0000
  C   C66       1.0  0.21170146834128897  0.9477751235007191  0.9253021145505824  1.0000
  C   C67       1.0  0.3253541329920181  0.8128953669719795  0.028355927118106188  1.0000
  C   C68       1.0  0.2791188924244495  0.09380845227126142  0.8747238734004552  1.0000
  C   C69       1.0  0.20947237113115597  0.7522007730397393  0.012935197971586392  1.0000
  C   C70       1.0  0.1514523317202504  0.7957721623129929  0.9735816051228665  1.0000
  C   C71       1.0  0.18772694535644519  0.8690406542879928  0.8531618587830607  1.0000
  C   C72       1.0  0.7773639571998745  0.8226115286668829  0.8011867787245207  1.0000
  C   C73       1.0  0.7824533038729056  0.5447931421354896  0.6870479635060389  1.0000
  C   C74       1.0  0.09246970098880779  0.2967346648989492  0.5956818349082977  1.0000
  C   C75       1.0  0.8214346193072471  0.37061369436916203  0.6466412601212281  1.0000
  C   C76       1.0  0.8848906688721313  0.46058713832766074  0.653878343190371  1.0000
  C   C77       1.0  0.6732826839716142  0.0318341673573457  0.5854819535978919  1.0000
  C   C78       1.0  0.05019160042611049  0.46963570819354317  0.631255251950982  1.0000
  C   C79       1.0  0.9242266689990685  0.28925105486042213  0.6175681471796821  1.0000
  C   C80       1.0  0.38711156148336573  0.150950744386158  0.5817609331823448  1.0000
  C   C81       1.0  0.24871014438188138  0.8617500677372477  0.668464059700234  1.0000
  C   C82       1.0  0.980349946851028  0.9206345055107121  0.6077300135484832  1.0000
  C   C83       1.0  0.8857150518168667  0.8847386483186027  0.5361666036221706  1.0000
  C   C84       1.0  0.15212811163981854  0.9437997869319901  0.5995565151945073  1.0000
  C   C85       1.0  0.07700159433914425  0.8393472206167161  0.6769294667896444  1.0000
  C   C86       1.0  0.28508259383418993  0.9150783188819459  0.629871205606271  1.0000
  C   C87       1.0  0.211124966300325  0.2071756226723522  0.5670402452582619  1.0000
  C   C88       1.0  0.1534753061544123  0.3881640613643782  0.6024326646479139  1.0000
  C   C89       1.0  0.4523450789553396  0.1664280059248497  0.6230985388394785  1.0000
  C   C90       1.0  0.8402140004636606  0.9480355038645315  0.5746817707152871  1.0000
  C   C91       1.0  0.8618678730715676  0.8130305464131026  0.4716102350272208  1.0000
  C   C92       1.0  0.6267042740928304  0.09399099716977591  0.6252917728715346  1.0000
  C   C93       1.0  0.03840967436253341  0.7524676670811347  0.48702499928797477  1.0000
  C   C94       1.0  0.052729227105572735  0.7960718832974153  0.5263945817441706  1.0000
  C   C95       1.0  0.942588839807229  0.8693597192887597  0.6468248402602155  1.0000
  C   C96       1.0  0.3993626139407669  0.822413071922206  0.6987586398808431  1.0000
  N   N1        1.0  0.6661156333835336  0.107031363282708  0.0021449740134897952  1.0000
  N   N2        1.0  0.5930828934381225  0.931693616814137  0.05974511328987117  1.0000
  N   N3        1.0  0.2268022312625746  0.10684995941632991  0.49789851592299766  1.0000
  N   N4        1.0  0.47537098018619167  0.9314496365543903  0.4402776930743497  1.0000
  N   N5        1.0  0.3337249451370069  0.8930343741698653  0.9978722156860156  1.0000
  N   N6        1.0  0.4067679722690159  0.06837049197594781  0.9402699514811698  1.0000
  N   N7        1.0  0.7732329972278296  0.8931441135902675  0.5020988340315282  1.0000
  N   N8        1.0  0.5246618738638134  0.068543622339881  0.559721657778148  1.0000
  O   O1        1.0  0.3967341840839611  0.1606577903882211  0.19042089735172843  1.0000
  O   O2        1.0  0.13264305937276083  0.2337336590066457  0.23217734432734716  1.0000
  O   O3        1.0  0.17188135399604226  0.46188543482831795  0.2079869376539918  1.0000
  O   O4        1.0  0.47707735517191474  0.37854420691186164  0.1939841250054641  1.0000
  O   O5        1.0  0.44264575414391066  0.1616943507996211  0.3097550434078613  1.0000
  O   O6        1.0  0.6350089722192465  0.23327944820221802  0.2677390631899286  1.0000
  O   O7        1.0  0.36785028861810787  0.4611509118208519  0.2923054461223842  1.0000
  O   O8        1.0  0.143995887084067  0.3790604869965151  0.305816428727148  1.0000
  O   O9        1.0  0.603268887076574  0.8393289464440274  0.8095712672106286  1.0000
  O   O10       1.0  0.8673759590839867  0.7662636695487067  0.7678176765537755  1.0000
  O   O11       1.0  0.828159256062172  0.5380899042379711  0.7920098352468301  1.0000
  O   O12       1.0  0.5229671561903544  0.6214539358277094  0.8060016438759589  1.0000
  O   O13       1.0  0.5573699659959742  0.8383062376672968  0.6902461817746113  1.0000
  O   O14       1.0  0.36498695193677133  0.7667366144515882  0.7322627110324618  1.0000
  O   O15       1.0  0.6321521419610009  0.5388667765625286  0.7076844960197732  1.0000
  O   O16       1.0  0.8560384172639957  0.6209360276177449  0.6941753924522158  1.0000
