data_image0
_chemical_formula_structural       Cr4Ag4H64C40N16O14
_chemical_formula_sum              "Cr4 Ag4 H64 C40 N16 O14"
_cell_length_a       8.640954491550243
_cell_length_b       10.81423563029959
_cell_length_c       17.443180932044545
_cell_angle_alpha    96.61572685128664
_cell_angle_beta     104.11949070069684
_cell_angle_gamma    113.60090427570809

_space_group_name_H-M_alt    "P 1"
_space_group_IT_number       1

loop_
  _space_group_symop_operation_xyz
  'x, y, z'

loop_
  _atom_site_type_symbol
  _atom_site_label
  _atom_site_symmetry_multiplicity
  _atom_site_fract_x
  _atom_site_fract_y
  _atom_site_fract_z
  _atom_site_occupancy
  Cr  Cr1       1.0  0.3744558373731408  0.7784920202248031  0.6628852536614077  1.0000
  Cr  Cr2       1.0  0.433226138195785  0.7216497061370077  0.8372472325902507  1.0000
  Cr  Cr3       1.0  0.6255449429217349  0.22150822745797427  0.3371155398446746  1.0000
  Cr  Cr4       1.0  0.5667762615119117  0.2783505415457697  0.16275398478643405  1.0000
  Ag  Ag1       1.0  0.08067108064827264  0.4001786634930156  0.5252972996001262  1.0000
  Ag  Ag2       1.0  0.6551624326432377  0.0998027516198619  0.9746780547397621  1.0000
  Ag  Ag3       1.0  0.9193323866242976  0.5998226235635684  0.47470334304064465  1.0000
  Ag  Ag4       1.0  0.3448370086397289  0.9001974960629155  0.025319008669988766  1.0000
  H   H1        1.0  0.058233595299483895  0.187972831600618  0.4075661977022307  1.0000
  H   H2        1.0  0.9632477958568089  0.3125376247796154  0.09277359180325818  1.0000
  H   H3        1.0  0.9417672257588946  0.8120294948297726  0.5924337430501865  1.0000
  H   H4        1.0  0.03675229455036092  0.6874615835293554  0.9072257630314908  1.0000
  H   H5        1.0  0.18205702108658534  0.1611268455600339  0.3442776571813368  1.0000
  H   H6        1.0  0.17631996602525388  0.338557308644269  0.1555512292985952  1.0000
  H   H7        1.0  0.8179437999717936  0.8388754808703568  0.6557222835710874  1.0000
  H   H8        1.0  0.8236812892230532  0.6614429390385084  0.8444488436187073  1.0000
  H   H9        1.0  0.0016515355788940262  0.2017559676447647  0.3058566477975404  1.0000
  H   H10       1.0  0.9938319332849945  0.2984114953794261  0.19446473029295666  1.0000
  H   H11       1.0  0.9983475280269049  0.7982442800380127  0.6941424290194645  1.0000
  H   H12       1.0  0.0061682747801938  0.7015887523033584  0.8055354909834307  1.0000
  H   H13       1.0  0.6586585907802347  0.0555462149514554  0.46859298702791813  1.0000
  H   H14       1.0  0.6337865952748347  0.44418990794315505  0.031431784310420596  1.0000
  H   H15       1.0  0.3413435736114323  0.9444519539837088  0.5314064974654826  1.0000
  H   H16       1.0  0.3662130201789041  0.5558093003658158  0.9685682911131012  1.0000
  H   H17       1.0  0.7233509291899765  0.9656531008827756  0.5392169510835316  1.0000
  H   H18       1.0  0.7181554465671808  0.5338390168501519  0.9605484949082098  1.0000
  H   H19       1.0  0.27665299265427007  0.0343471468000018  0.46078339734528123  1.0000
  H   H20       1.0  0.28184521606967655  0.4661601914588189  0.03945143215622688  1.0000
  H   H21       1.0  0.883641383774524  0.0834513229005722  0.501115304460285  1.0000
  H   H22       1.0  0.7982368384830067  0.4160914764660859  0.9985024214726437  1.0000
  H   H23       1.0  0.11636044370347777  0.9165489247822052  0.49888534068670504  1.0000
  H   H24       1.0  0.20176265931272036  0.5839066924690783  0.0014967875092466055  1.0000
  H   H25       1.0  0.5584286080543491  0.7832201316692533  0.3733648443283996  1.0000
  H   H26       1.0  0.9012878664854186  0.7170057839708619  0.1265074896643128  1.0000
  H   H27       1.0  0.4415705528277129  0.2167801160135241  0.6266355253070799  1.0000
  H   H28       1.0  0.0987122443035061  0.2829944637119155  0.8734914387936001  1.0000
  H   H29       1.0  0.680161417297761  0.6859638458746034  0.3648022508352753  1.0000
  H   H30       1.0  0.12855186290543938  0.814734984847334  0.1347084243449288  1.0000
  H   H31       1.0  0.3198404509437439  0.3140384805557872  0.6351975415580569  1.0000
  H   H32       1.0  0.8714483451597488  0.1852652628354434  0.8652917969314586  1.0000
  H   H33       1.0  0.7012496869328261  0.7732982693151769  0.4621978864163268  1.0000
  H   H34       1.0  0.9657835755392271  0.7268403389252143  0.03745872461765029  1.0000
  H   H35       1.0  0.2987494943309842  0.2267030177414071  0.5378020568423239  1.0000
  H   H36       1.0  0.03421501311314055  0.2731599087575631  0.9625410727881345  1.0000
  H   H37       1.0  0.9299344849076049  0.43474511816613404  0.8264455971494158  1.0000
  H   H38       1.0  0.16929866779953087  0.0652570844228677  0.6738402697730878  1.0000
  H   H39       1.0  0.07006505365162494  0.5652551295166433  0.17355275907880946  1.0000
  H   H40       1.0  0.8307009476542149  0.9347421238861031  0.3261598056504411  1.0000
  H   H41       1.0  0.7200145343485151  0.2861302544852506  0.8036359357888188  1.0000
  H   H42       1.0  0.1314380417332046  0.2140392872865533  0.6972896793166186  1.0000
  H   H43       1.0  0.27998510148697864  0.7138699931975268  0.1963637132578739  1.0000
  H   H44       1.0  0.8685614764442703  0.7859599210224175  0.3027091032884357  1.0000
  H   H45       1.0  0.7314840311073852  0.4338294298428594  0.7662407322581188  1.0000
  H   H46       1.0  0.032157969172608596  0.0661467884009852  0.7346301010749556  1.0000
  H   H47       1.0  0.2685139853152876  0.5661708178399181  0.2337584929179712  1.0000
  H   H48       1.0  0.9678410944331831  0.9338534592817922  0.2653689757420494  1.0000
  H   H49       1.0  0.4095537284257561  0.6634177492703088  0.5113814294513546  1.0000
  H   H50       1.0  0.7348918288075198  0.8367416464462069  0.9884430459532113  1.0000
  H   H51       1.0  0.5904469545928561  0.3365824984124686  0.4886180712362531  1.0000
  H   H52       1.0  0.2651057126617218  0.1632586012365707  0.011556899811658595  1.0000
  H   H53       1.0  0.4104221644402698  0.4145875025685015  0.3051893221340548  1.0000
  H   H54       1.0  0.18891675545693687  0.085432369375205  0.1943904538395529  1.0000
  H   H55       1.0  0.5895774917769715  0.5854137844880825  0.6948099005358089  1.0000
  H   H56       1.0  0.8110807656305637  0.9145668389337658  0.8056099183021529  1.0000
  H   H57       1.0  0.03271097058544113  0.4880868212746138  0.690311438708946  1.0000
  H   H58       1.0  0.3542395337027883  0.0115183405204178  0.8095543730624826  1.0000
  H   H59       1.0  0.9672854060426701  0.5119123870343572  0.3096877889733776  1.0000
  H   H60       1.0  0.6457589372915679  0.9884808677885603  0.1904445579016567  1.0000
  H   H61       1.0  0.635506292321594  0.0844262555307935  0.6651272283018413  1.0000
  H   H62       1.0  0.3867011251639312  0.4152818042710464  0.8353371379401437  1.0000
  H   H63       1.0  0.3644899666484989  0.9155719134043708  0.3348711329388365  1.0000
  H   H64       1.0  0.6132990829012499  0.584718443411731  0.1646630833362508  1.0000
  C   C1        1.0  0.1147062388563995  0.2230558550554207  0.3595264170177046  1.0000
  C   C2        1.0  0.03187518181442069  0.2770596392784554  0.1405565425275697  1.0000
  C   C3        1.0  0.8852934173608419  0.7769454320011633  0.6404728056521664  1.0000
  C   C4        1.0  0.9681244540210656  0.722940608404322  0.8594431065191229  1.0000
  C   C5        1.0  0.7666843963368495  0.0647218069126723  0.5211529162556232  1.0000
  C   C6        1.0  0.6802781459622124  0.4348469767991361  0.978702309130071  1.0000
  C   C7        1.0  0.2333183606662599  0.9352774013962984  0.4788467140906363  1.0000
  C   C8        1.0  0.3197219444449573  0.5651522315098347  0.021297045704677903  1.0000
  C   C9        1.0  0.6074320898461423  0.7142171440488028  0.4012702415204714  1.0000
  C   C10       1.0  0.9913170309444155  0.786024362198404  0.09837128064855703  1.0000
  C   C11       1.0  0.39256424601846607  0.2857799855125549  0.59872983891551  1.0000
  C   C12       1.0  0.008686456709895716  0.2139779642319866  0.9016289356153777  1.0000
  C   C13       1.0  0.8007458591370736  0.3691034654349608  0.7795463838077055  1.0000
  C   C14       1.0  0.1528291003392113  0.1308540440803725  0.7210702267114897  1.0000
  C   C15       1.0  0.19925272951529385  0.6308967822478166  0.22045341359807938  1.0000
  C   C16       1.0  0.8471705354962822  0.8691462036024049  0.27892942233521006  1.0000
  C   C17       1.0  0.8088601591553797  0.1790976186693953  0.5906950724311955  1.0000
  C   C18       1.0  0.5388962024880615  0.320434786959197  0.9093394907713019  1.0000
  C   C19       1.0  0.19113888406867124  0.8209015896395755  0.4093044307626386  1.0000
  C   C20       1.0  0.4611028611177376  0.6795654607235804  0.09065958604570308  1.0000
  C   C21       1.0  0.8236059856016665  0.309193959245043  0.7045649122824997  1.0000
  C   C22       1.0  0.3102589868680711  0.1904725256045552  0.7957785316274766  1.0000
  C   C23       1.0  0.17639039102644452  0.6908052490639278  0.2954343153998167  1.0000
  C   C24       1.0  0.6897412211971172  0.8095277220782222  0.2042216896489109  1.0000
  C   C25       1.0  0.37521743379978284  0.4520538101609404  0.35554680339964756  1.0000
  C   C26       1.0  0.06637951838617787  0.0479858098850841  0.1441502787384934  1.0000
  C   C27       1.0  0.6247833872585956  0.5479485162694502  0.6444531373527693  1.0000
  C   C28       1.0  0.9336180027013229  0.9520133984238868  0.8558500934032124  1.0000
  C   C29       1.0  0.24236154476894003  0.3731112908317087  0.3870531907376815  1.0000
  C   C30       1.0  0.9814382337769844  0.1269314473357355  0.11281491557415527  1.0000
  C   C31       1.0  0.7576376568766249  0.6268910355986819  0.6129463261441401  1.0000
  C   C32       1.0  0.01855976226394048  0.8730677609732354  0.8871847359787708  1.0000
  C   C33       1.0  0.7374625346692838  0.1744682477365416  0.6553446542906514  1.0000
  C   C34       1.0  0.4080791692641056  0.32519719773925  0.8449572630928444  1.0000
  C   C35       1.0  0.2625349095237012  0.8255319999462358  0.34465399865575097  1.0000
  C   C36       1.0  0.5919204665713806  0.6748030499435274  0.1550423859538554  1.0000
  C   C37       1.0  0.4587848261528577  0.5864334101919724  0.4048791050753806  1.0000
  C   C38       1.0  0.9666162930264406  0.9136314025081802  0.09476986136755983  1.0000
  C   C39       1.0  0.5412153615305754  0.4135657981169985  0.5951215425778429  1.0000
  C   C40       1.0  0.03338227524417907  0.0863678058007906  0.9052303624150541  1.0000
  N   N1        1.0  0.37670815328424107  0.5840324566996316  0.46188968130506675  1.0000
  N   N2        1.0  0.8306478090018248  0.9160978365503142  0.03787124035420668  1.0000
  N   N3        1.0  0.62329205478094  0.41596779098314585  0.5381105399713206  1.0000
  N   N4        1.0  0.1693528536350328  0.0839013717586568  0.9621286867102299  1.0000
  N   N5        1.0  0.24561111098421406  0.45546295624530597  0.45225100994937856  1.0000
  N   N6        1.0  0.8377989803049033  0.0446951524146257  0.04763729106272048  1.0000
  N   N7        1.0  0.7543896896924096  0.5445383308112781  0.5477493571798746  1.0000
  N   N8        1.0  0.16219996564287653  0.955304055894345  0.9523609193126389  1.0000
  N   N9        1.0  0.9387392559574935  0.3868268675784492  0.6690270710977587  1.0000
  N   N10       1.0  0.3828149639465792  0.11273775863814  0.8310754963503229  1.0000
  N   N11       1.0  0.06125712067061777  0.6131723407305216  0.3309721565845578  1.0000
  N   N12       1.0  0.6171835070477768  0.8872614496708309  0.16892343461381637  1.0000
  N   N13       1.0  0.9326892755675757  0.3100368914018787  0.6002103705465345  1.0000
  N   N14       1.0  0.5221113801910422  0.1894788842458155  0.8997155999418425  1.0000
  N   N15       1.0  0.06731036026791774  0.6899633562808987  0.3997892785001583  1.0000
  N   N16       1.0  0.4778887305978757  0.8105213634369619  0.1002833285160705  1.0000
  O   O1        1.0  0.5029645548476082  0.7503883918787011  0.7499506472042299  1.0000
  O   O2        1.0  0.4970417531916667  0.2496118558040763  0.2500532829618365  1.0000
  O   O3        1.0  0.4798900503743369  0.7988668649479322  0.595713793754669  1.0000
  O   O4        1.0  0.5852411946732448  0.7013528144493435  0.903926111690943  1.0000
  O   O5        1.0  0.5201107299205461  0.2011333827348452  0.4042869997514131  1.0000
  O   O6        1.0  0.4147547635141961  0.2986443151120142  0.0960759821522927  1.0000
  O   O7        1.0  0.18026034045734465  0.6433235354748561  0.6261262235478355  1.0000
  O   O8        1.0  0.4108493174574122  0.8565905680233925  0.8746051888234305  1.0000
  O   O9        1.0  0.8197411093434895  0.3566767122079213  0.3738764350064159  1.0000
  O   O10       1.0  0.5891513044159495  0.1434065615379652  0.1253955909946711  1.0000
  O   O11       1.0  0.3511267357059822  0.916639350303349  0.6906545419797467  1.0000
  O   O12       1.0  0.24436570604920854  0.5833329581280537  0.8096955064283762  1.0000
  O   O13       1.0  0.6488785455319216  0.083361936753235  0.3093491101685757  1.0000
  O   O14       1.0  0.755634976969404  0.4166672895547237  0.19030399425923145  1.0000
