data_image0
_chemical_formula_structural       Zn2H36C48N4O12
_chemical_formula_sum              "Zn2 H36 C48 N4 O12"
_cell_length_a       9.696100213058662
_cell_length_b       10.958759622887408
_cell_length_c       14.6325
_cell_angle_alpha    104.36097289264706
_cell_angle_beta     95.67695754066581
_cell_angle_gamma    112.87850550018982

_space_group_name_H-M_alt    "P 1"
_space_group_IT_number       1

loop_
  _space_group_symop_operation_xyz
  'x, y, z'

loop_
  _atom_site_type_symbol
  _atom_site_label
  _atom_site_symmetry_multiplicity
  _atom_site_fract_x
  _atom_site_fract_y
  _atom_site_fract_z
  _atom_site_occupancy
  Zn  Zn1       1.0  0.2552593680731619  0.6818142060209951  0.9449655558347201  1.0000
  Zn  Zn2       1.0  0.7447410396701528  0.3181864271738917  0.05503499855917941  1.0000
  H   H1        1.0  0.9908610591724595  0.6460422918674027  0.8796287289757527  1.0000
  H   H2        1.0  0.009141316042132523  0.3539625118849727  0.12037614614729361  1.0000
  H   H3        1.0  0.9286173608950606  0.5094367242178066  0.9164489637993896  1.0000
  H   H4        1.0  0.07138599805517737  0.49057016481329896  0.08355704657290629  1.0000
  H   H5        1.0  0.03374961696085422  0.3745358719385621  0.8442950355511414  1.0000
  H   H6        1.0  0.966248226063243  0.625463718616956  0.15570105659026717  1.0000
  H   H7        1.0  0.0528981243215583  0.1518281024551058  0.7673391873235929  1.0000
  H   H8        1.0  0.9470986822768453  0.8481714881004123  0.23265547006155174  1.0000
  H   H9        1.0  0.3163141451848333  0.15914430291608989  0.7703460173840782  1.0000
  H   H10       1.0  0.683683205971441  0.8408542450000595  0.22964984883781633  1.0000
  H   H11       1.0  0.5454965845791975  0.3845702332377599  0.8475342860931361  1.0000
  H   H12       1.0  0.454500274709261  0.615427272039021  0.1524634044398994  1.0000
  H   H13       1.0  0.7246335265629612  0.580140185192583  0.9048085324120122  1.0000
  H   H14       1.0  0.2753633327254974  0.4198573200841906  0.0951884747108025  1.0000
  H   H15       1.0  0.9264209846955537  0.8205446727071362  0.9786424726266603  1.0000
  H   H16       1.0  0.07357849200216998  0.17945178993026897  0.021357246025019098  1.0000
  H   H17       1.0  0.8485583642038677  0.0160847975647087  0.0433392310625322  1.0000
  H   H18       1.0  0.15144318534525075  0.9839116650727036  0.9566647239221169  1.0000
  H   H19       1.0  0.5700179739889535  0.9548804144477145  0.033846299930637314  1.0000
  H   H20       1.0  0.4299840147379257  0.0451191761078036  0.9661555312358556  1.0000
  H   H21       1.0  0.2892816678863356  0.0286830090753298  0.20024351461336914  1.0000
  H   H22       1.0  0.7107213572662375  0.9713165814801953  0.7997577010787394  1.0000
  H   H23       1.0  0.2881428370552825  0.1530208818946619  0.3694080954721244  1.0000
  H   H24       1.0  0.7118586598037738  0.8469776660214876  0.6305935097748544  1.0000
  H   H25       1.0  0.2208612529312362  0.7837509719707043  0.4488549886474971  1.0000
  H   H26       1.0  0.7791361509150931  0.21624549066670076  0.5511459609529439  1.0000
  H   H27       1.0  0.2276702654423275  0.6637035601599095  0.2817803018385447  1.0000
  H   H28       1.0  0.7723276302718247  0.3362939451168642  0.7182208736814103  1.0000
  H   H29       1.0  0.9827638631091773  0.9283118780152363  0.5471736618716108  1.0000
  H   H30       1.0  0.017237581059831107  0.0716887551796503  0.45282559363769787  1.0000
  H   H31       1.0  0.9354797926990699  0.8146819115282753  0.6782668039350384  1.0000
  H   H32       1.0  0.0645226352055772  0.1853208069453558  0.3217342702337334  1.0000
  H   H33       1.0  0.41184870252392614  0.9062058380873879  0.7489744059021746  1.0000
  H   H34       1.0  0.5881507214837427  0.09379270982876158  0.2510263800629104  1.0000
  H   H35       1.0  0.4621990291572827  0.0232852650555913  0.6200254590227131  1.0000
  H   H36       1.0  0.5378029595695963  0.9767143254999268  0.37997500532334527  1.0000
  C   C1        1.0  0.1443892075818951  0.37196785116965697  0.8419002329352308  1.0000
  C   C2        1.0  0.855609671867903  0.628031739385861  0.1580952437318004  1.0000
  C   C3        1.0  0.15610244934894976  0.24882901362609997  0.7996771437723567  1.0000
  C   C4        1.0  0.8438953936751545  0.751170576929418  0.20031826495883817  1.0000
  C   C5        1.0  0.30217160067286397  0.2535469567764395  0.8013449203039613  1.0000
  C   C6        1.0  0.6978247140577167  0.74645159113971  0.1986501945718828  1.0000
  C   C7        1.0  0.43070799224932443  0.380254748884333  0.8437353748771625  1.0000
  C   C8        1.0  0.56928985077478  0.619744841671185  0.15626208408468764  1.0000
  C   C9        1.0  0.4099635868874715  0.5004304053376671  0.8831553665166467  1.0000
  C   C10       1.0  0.5900343088266808  0.4995670999391066  0.1168410251317837  1.0000
  C   C11       1.0  0.5393971622169929  0.6403807600869911  0.9278615672332009  1.0000
  C   C12       1.0  0.4606007334971596  0.3596167451897827  0.07213687464588502  1.0000
  C   C13       1.0  0.6930757722868677  0.6650735882924081  0.9325235187603836  1.0000
  C   C14       1.0  0.30692212342728453  0.3349239169843727  0.0674749231186951  1.0000
  C   C15       1.0  0.8065443503483112  0.8009180292017248  0.9744541948358927  1.0000
  C   C16       1.0  0.19345561821723584  0.19907947607505597  0.025546433145514406  1.0000
  C   C17       1.0  0.7641822071859395  0.9083359503207902  0.010507630298711525  1.0000
  C   C18       1.0  0.2358192896731239  0.0916625975953593  0.9894953417686948  1.0000
  C   C19       1.0  0.6087059394965166  0.8751925300195751  0.004617333251616208  1.0000
  C   C20       1.0  0.3912934845111522  0.12480601789657439  0.9953841361236896  1.0000
  C   C21       1.0  0.262239640828696  0.7657800397852341  0.13137202893332764  1.0000
  C   C22       1.0  0.7377627870759511  0.23422267868839697  0.868629045235444  1.0000
  C   C23       1.0  0.2598529301946115  0.8390515215289155  0.2310959439002289  1.0000
  C   C24       1.0  0.7401444209616699  0.1609470263872339  0.7689053896034039  1.0000
  C   C25       1.0  0.27578598972412743  0.9769092990621643  0.25568117813548946  1.0000
  C   C26       1.0  0.7242134869735963  0.0230871635752408  0.7443199073366243  1.0000
  C   C27       1.0  0.2742750743288411  0.0456102592511911  0.34877224575653537  1.0000
  C   C28       1.0  0.7257243496788278  0.9543882886649583  0.6512292236187704  1.0000
  C   C29       1.0  0.2542446660717489  0.9755861897013318  0.41813070062857344  1.0000
  C   C30       1.0  0.7457557943616138  0.024412358214817693  0.5818708366825689  1.0000
  C   C31       1.0  0.23657344973948824  0.837587655853099  0.3947264187043942  1.0000
  C   C32       1.0  0.7634234095489703  0.1624098494236819  0.6052746888797245  1.0000
  C   C33       1.0  0.2403309596540311  0.7707920072379864  0.3013682481540698  1.0000
  C   C34       1.0  0.7596668833700662  0.2292075833175389  0.6986326278588635  1.0000
  C   C35       1.0  0.22492891841258714  0.9815719823258817  0.5778704761002373  1.0000
  C   C36       1.0  0.7750750904756316  0.0184296935083808  0.4221305080206932  1.0000
  C   C37       1.0  0.0760619835162117  0.9240005642192911  0.5922037530226164  1.0000
  C   C38       1.0  0.9239409889463132  0.07600111161497129  0.40779579634204305  1.0000
  C   C39       1.0  0.049722795855416335  0.8605861950818721  0.6642126692024205  1.0000
  C   C40       1.0  0.9502781037557141  0.1394154807523904  0.3357881111110004  1.0000
  C   C41       1.0  0.17039278867685684  0.8535932128256646  0.7202626301686408  1.0000
  C   C42       1.0  0.8296090946699125  0.14641054828733496  0.2797386019838086  1.0000
  C   C43       1.0  0.3190912811542219  0.91184234652291  0.7044129029644424  1.0000
  C   C44       1.0  0.6809096184569086  0.08815932931134537  0.295589244169406  1.0000
  C   C45       1.0  0.34728534293353164  0.976541247364473  0.6330095265780358  1.0000
  C   C46       1.0  0.6527135365162592  0.0234583431910522  0.36699141737073393  1.0000
  C   C47       1.0  0.1380568576950481  0.7821181987169084  0.7960240605718311  1.0000
  C   C48       1.0  0.8619424609325108  0.21788451975672268  0.2039774931996448  1.0000
  N   N1        1.0  0.2676614497121648  0.4942308716422161  0.8821946432653789  1.0000
  N   N2        1.0  0.7323359014441168  0.5057676762739334  0.1178012229565155  1.0000
  N   N3        1.0  0.4997542704054041  0.7448584381819785  0.964233898713843  1.0000
  N   N4        1.0  0.5002446090443939  0.2551411523735396  0.0357656784144851  1.0000
  O   O1        1.0  0.2424329470122757  0.6389763248552781  0.1093359650600689  1.0000
  O   O2        1.0  0.7575700254502493  0.36102535097898414  0.8906629008943695  1.0000
  O   O3        1.0  0.28410832409105785  0.8338247703658936  0.07048684293864939  1.0000
  O   O4        1.0  0.7158981968263163  0.1661800333864747  0.9295148868766531  1.0000
  O   O5        1.0  0.2517208734176748  0.0501436552329935  0.5081469070753926  1.0000
  O   O6        1.0  0.7482841718962376  0.9498580206012619  0.491855511801802  1.0000
  O   O7        1.0  0.25376189140924776  0.7777078341807878  0.8434936529955478  1.0000
  O   O8        1.0  0.7462358989247946  0.2222938416534674  0.15650760692057733  1.0000
  O   O9        1.0  0.0016939791989685322  0.7326439179596065  0.8076819170844941  1.0000
  O   O10       1.0  0.9983048475607746  0.2673577578746489  0.1923194107674675  1.0000
  O   O11       1.0  0.012735521391618917  0.603950940490776  0.930905541146373  1.0000
  O   O12       1.0  0.9872678375586119  0.3960559485403365  0.06909978581570901  1.0000
