data_image0
_chemical_formula_structural       Zn2H20C38N2O16
_chemical_formula_sum              "Zn2 H20 C38 N2 O16"
_cell_length_a       11.791740082487525
_cell_length_b       13.203557914725462
_cell_length_c       15.131260973427779
_cell_angle_alpha    93.2537536009228
_cell_angle_beta     82.32979631050785
_cell_angle_gamma    87.41770452576552

_space_group_name_H-M_alt    "P 1"
_space_group_IT_number       1

loop_
  _space_group_symop_operation_xyz
  'x, y, z'

loop_
  _atom_site_type_symbol
  _atom_site_label
  _atom_site_symmetry_multiplicity
  _atom_site_fract_x
  _atom_site_fract_y
  _atom_site_fract_z
  _atom_site_occupancy
  Zn  Zn1       1.0  0.6206466582668355  0.5031796706632646  0.48174573677989935  1.0000
  Zn  Zn2       1.0  0.3793672988272263  0.4967978355407396  0.5182419646035469  1.0000
  H   H1        1.0  0.37281433935728364  0.4265326501653348  0.7732810025890869  1.0000
  H   H2        1.0  0.6271794311585168  0.573496743732619  0.2267193705857622  1.0000
  H   H3        1.0  0.7231041539300948  0.6704879168425036  0.9290032198210552  1.0000
  H   H4        1.0  0.2768649124901188  0.32957634889968546  0.07100250850918849  1.0000
  H   H5        1.0  0.711999283869794  0.6516161345971552  0.08875882812380098  1.0000
  H   H6        1.0  0.28798910661097926  0.34845500029282306  0.9112429145532985  1.0000
  H   H7        1.0  0.7253297115028446  0.17572128038461438  0.4702309856314101  1.0000
  H   H8        1.0  0.2746666938385971  0.8242528800889489  0.5297732155088113  1.0000
  H   H9        1.0  0.8973604601039895  0.33785452072987  0.6398918688592943  1.0000
  H   H10       1.0  0.10266375792903659  0.6621037173690922  0.3600853355071081  1.0000
  H   H11       1.0  0.7039535066995626  0.6747697729359386  0.8116036238895885  1.0000
  H   H12       1.0  0.2960592547922261  0.3252560406189886  0.18837733348071586  1.0000
  H   H13       1.0  0.35353148361966896  0.25780091826755575  0.545567521518677  1.0000
  H   H14       1.0  0.646474869519601  0.7421714048738578  0.4544457919224739  1.0000
  H   H15       1.0  0.26256985765245844  0.014030822148811201  0.5462915231407948  1.0000
  H   H16       1.0  0.737418299723565  0.985948038537302  0.4537187168295914  1.0000
  H   H17       1.0  0.794228717741781  0.4130587418363092  0.5640217124933  1.0000
  H   H18       1.0  0.20578729300987672  0.5868755192161643  0.4359456554519737  1.0000
  H   H19       1.0  0.8448138552693363  0.6778259264449034  0.3285612850816193  1.0000
  H   H20       1.0  0.15519538304819497  0.3221762398495613  0.6714577793555845  1.0000
  C   C1        1.0  0.46207860241175785  0.699740375464003  0.4879337459620529  1.0000
  C   C2        1.0  0.5379105131878105  0.3002391269355869  0.5120731263558013  1.0000
  C   C3        1.0  0.6543523585850365  0.6110566485551631  0.05020766877702702  1.0000
  C   C4        1.0  0.345624660301546  0.38901033669721824  0.9497875816306018  1.0000
  C   C5        1.0  0.5422195997522223  0.18794275728044593  0.5065582726935389  1.0000
  C   C6        1.0  0.45779150476694513  0.8120378046308188  0.4934508912714364  1.0000
  C   C7        1.0  0.344409299220736  0.9717870359879369  0.5271999069205009  1.0000
  C   C8        1.0  0.6555787150251291  0.0281962190410283  0.4728263234451262  1.0000
  C   C9        1.0  0.3511591686246477  0.8675150338780424  0.5177413166476157  1.0000
  C   C10       1.0  0.6488466523231509  0.13246561629674147  0.4822715664864318  1.0000
  C   C11       1.0  0.5587509006206304  0.8650346532356677  0.47780922471050497  1.0000
  C   C12       1.0  0.4412510970659085  0.13494198562442958  0.522219080182218  1.0000
  C   C13       1.0  0.5543137653198614  0.973630397699047  0.4874561091877893  1.0000
  C   C14       1.0  0.4456855335638751  0.0263456124171668  0.5125763600263014  1.0000
  C   C15       1.0  0.026551926338967725  0.4106380756883751  0.5866885001456692  1.0000
  C   C16       1.0  0.9734650521348627  0.5893225907377228  0.4132946131141678  1.0000
  C   C17       1.0  0.14343470734858235  0.42237781109366773  0.5871455619790426  1.0000
  C   C18       1.0  0.8565875884432831  0.5775906121607761  0.4128406248572885  1.0000
  C   C19       1.0  0.1501383774496645  0.5390988263467732  0.4771501200046656  1.0000
  C   C20       1.0  0.8498714734812226  0.46086130545284476  0.5228408107018438  1.0000
  C   C21       1.0  0.0323658814291292  0.5335172137524323  0.4717153989035835  1.0000
  C   C22       1.0  0.9676508071426115  0.4664408105258174  0.5282782624661451  1.0000
  C   C23       1.0  0.4878516757720207  0.4713118584413819  0.33150900529277283  1.0000
  C   C24       1.0  0.5121544507647614  0.5286829155352349  0.6684757267992223  1.0000
  C   C25       1.0  0.43184056526806097  0.4645914017165893  0.8121201766634625  1.0000
  C   C26       1.0  0.5681457175423007  0.5354370568631239  0.18787744670132867  1.0000
  C   C27       1.0  0.5121130865489149  0.5249045859965377  0.7672592012674712  1.0000
  C   C28       1.0  0.48787896467149494  0.4751262406544043  0.23273935284640146  1.0000
  C   C29       1.0  0.5883731438973925  0.577033304864308  0.8151930771333225  1.0000
  C   C30       1.0  0.41161875859589975  0.4230119780000691  0.18480648017345655  1.0000
  C   C31       1.0  0.5845229609825681  0.5685997302771424  0.9085671246356739  1.0000
  C   C32       1.0  0.415454984201773  0.4314657670136341  0.09142868171415587  1.0000
  C   C33       1.0  0.5027832523355898  0.5052063407395834  0.9531114346077414  1.0000
  C   C34       1.0  0.4971908609635562  0.494858744049722  0.0468945833387693  1.0000
  C   C35       1.0  0.4260690090789084  0.4522978627766959  0.9038127835522471  1.0000
  C   C36       1.0  0.5739194026229271  0.5477488904876254  0.0961864159436701  1.0000
  C   C37       1.0  0.6594730185826523  0.6211955438373449  0.9603836771036567  1.0000
  C   C38       1.0  0.3404959793980211  0.3788766787777078  0.0396116522002643  1.0000
  N   N1        1.0  0.7975817882245408  0.515058409029514  0.4671297717678796  1.0000
  N   N2        1.0  0.2024300417989196  0.4849065179066513  0.5328670698247464  1.0000
  O   O1        1.0  0.5630932053019323  0.6538238433861705  0.4720136924918633  1.0000
  O   O2        1.0  0.43691177064467723  0.3461539497621046  0.5279839734673074  1.0000
  O   O3        1.0  0.3698001548782912  0.6533560658225994  0.4994412122657933  1.0000
  O   O4        1.0  0.630197716827226  0.34662692118750027  0.5005551373833299  1.0000
  O   O5        1.0  0.5864959553076475  0.46985333489695336  0.3571677493769556  1.0000
  O   O6        1.0  0.4135163626442733  0.5301463128403725  0.6428238925448397  1.0000
  O   O7        1.0  0.39221787278987114  0.474463361379243  0.3818948372850173  1.0000
  O   O8        1.0  0.6078102175437721  0.5255210282039683  0.6180906038705201  1.0000
  O   O9        1.0  0.9783662612149867  0.34414845554783813  0.6446197120088397  1.0000
  O   O10       1.0  0.02165462142244933  0.6558146906285527  0.35536778699403726  1.0000
  O   O11       1.0  0.6633863693494959  0.6374513570278778  0.769297322419483  1.0000
  O   O12       1.0  0.3366146427434984  0.36257991724784944  0.23069062383503788  1.0000
  O   O13       1.0  0.33755814319091837  0.18289491013120338  0.5462887996381552  1.0000
  O   O14       1.0  0.6624421496810202  0.8170938954952689  0.45374057664206896  1.0000
  O   O15       1.0  0.7958735248682558  0.6285649825536055  0.3582990170738042  1.0000
  O   O16       1.0  0.20413857363911347  0.37142837486792496  0.6417070539573118  1.0000
