data_image0
_chemical_formula_structural       Zn8H40C80O50
_chemical_formula_sum              "Zn8 H40 C80 O50"
_cell_length_a       23.784929660365748
_cell_length_b       23.786445134642214
_cell_length_c       23.784775797679476
_cell_angle_alpha    66.51871685475885
_cell_angle_beta     72.50180509532008
_cell_angle_gamma    107.50777299363297

_space_group_name_H-M_alt    "P 1"
_space_group_IT_number       1

loop_
  _space_group_symop_operation_xyz
  'x, y, z'

loop_
  _atom_site_type_symbol
  _atom_site_label
  _atom_site_symmetry_multiplicity
  _atom_site_fract_x
  _atom_site_fract_y
  _atom_site_fract_z
  _atom_site_occupancy
  Zn  Zn1       1.0  0.0576613060651212  0.9578957343898722  0.484453839708998  1.0000
  Zn  Zn2       1.0  0.05765934778192871  0.09976601107841529  0.45789753769243197  1.0000
  Zn  Zn3       1.0  0.9423340659292518  0.9844502346822633  0.45788915680510966  1.0000
  Zn  Zn4       1.0  0.9423513860742998  0.9578930648523211  0.5997676746671133  1.0000
  Zn  Zn5       1.0  0.9423380774603842  0.5421042052659218  0.015547203651053202  1.0000
  Zn  Zn6       1.0  0.05766796101929116  0.5155523517586219  0.04211003908840647  1.0000
  Zn  Zn7       1.0  0.9423405764762124  0.4002343463179087  0.042106230907912046  1.0000
  Zn  Zn8       1.0  0.05764656888395343  0.5421022378237624  0.9002338321386321  1.0000
  H   H1        1.0  0.922964324608408  0.6523521244475462  0.11223017424342889  1.0000
  H   H2        1.0  0.07703314526570891  0.6122220821215762  0.15238992044977098  1.0000
  H   H3        1.0  0.9229646077460882  0.88777308339867  0.34761519126377083  1.0000
  H   H4        1.0  0.07698412691057391  0.8475821242075909  0.3878387855737346  1.0000
  H   H5        1.0  0.07704592888526199  0.46478125173847923  0.7706195967479702  1.0000
  H   H6        1.0  0.9229744724559764  0.2705827342513344  0.9648202090737998  1.0000
  H   H7        1.0  0.0769863364175833  0.2294071702422684  0.5351918055405777  1.0000
  H   H8        1.0  0.9229653832818769  0.03519484587759819  0.7294020153479364  1.0000
  H   H9        1.0  0.7354036411369194  0.46480098382392754  0.11219954445198238  1.0000
  H   H10       1.0  0.7354021986417789  0.2705891914007734  0.15239135069943216  1.0000
  H   H11       1.0  0.26459900349117754  0.22941350912788752  0.3476014325269645  1.0000
  H   H12       1.0  0.2645971888124876  0.03521557439697181  0.3877285683941166  1.0000
  H   H13       1.0  0.2646070673333724  0.6121833332427328  0.9647987266285442  1.0000
  H   H14       1.0  0.2645877213020355  0.6523857624956122  0.7705796581007931  1.0000
  H   H15       1.0  0.7354149255426137  0.8476126695378668  0.7294187717678755  1.0000
  H   H16       1.0  0.7353925318341578  0.8877482551370331  0.535213701773174  1.0000
  H   H17       1.0  0.919441840812752  0.8373335073170483  0.7432250721724215  1.0000
  H   H18       1.0  0.08056228211669485  0.662667968138166  0.7567738068450185  1.0000
  H   H19       1.0  0.9194377730485073  0.6626657268309303  0.9178944701643562  1.0000
  H   H20       1.0  0.08056606369563457  0.8373370298121899  0.5821048274210127  1.0000
  H   H21       1.0  0.9194363740355271  0.08210972609919068  0.3373206971124105  1.0000
  H   H22       1.0  0.0805651142072604  0.41789167874099314  0.16267966163906783  1.0000
  H   H23       1.0  0.9194376226525305  0.256778866256539  0.16265287048931057  1.0000
  H   H24       1.0  0.08056382165820959  0.2432235400069303  0.33734752442317983  1.0000
  H   H25       1.0  0.08023785609353234  0.7004315839360016  0.2421877371824338  1.0000
  H   H26       1.0  0.9197491096549797  0.7421487623857957  0.2004405357534084  1.0000
  H   H27       1.0  0.08017861233400929  0.7577600021088671  0.29965614048067846  1.0000
  H   H28       1.0  0.919781705890628  0.7995906658491305  0.2577907997547799  1.0000
  H   H29       1.0  0.9197583955111526  0.17757982502836006  0.879815305950068  1.0000
  H   H30       1.0  0.08024762104986385  0.3797792746476105  0.6776123950245109  1.0000
  H   H31       1.0  0.9197839760047656  0.12019043808886196  0.8224157275492773  1.0000
  H   H32       1.0  0.0801818862216521  0.3224167441094679  0.620190580593345  1.0000
  H   H33       1.0  0.557393546911058  0.17757759518384825  0.2422122732301376  1.0000
  H   H34       1.0  0.5573953465065101  0.3798048050996599  0.20038371417526707  1.0000
  H   H35       1.0  0.4426061012220543  0.1202186881875207  0.2995195967939567  1.0000
  H   H36       1.0  0.44260655292032414  0.3224187267550249  0.25780775965392166  1.0000
  H   H37       1.0  0.44259315739861893  0.742206135247791  0.6775702562869982  1.0000
  H   H38       1.0  0.44261373131837434  0.7003658822292279  0.8798068439520749  1.0000
  H   H39       1.0  0.5573837276801398  0.7995358427804574  0.6202164022051878  1.0000
  H   H40       1.0  0.5574091179364942  0.7578164991793841  0.82242456445222  1.0000
  C   C1        1.0  0.182518196933124  0.0912700666310329  0.4087264608303869  1.0000
  C   C2        1.0  0.9999962138873071  0.13963585816960503  0.36036429273758586  1.0000
  C   C3        1.0  0.9999812422831408  0.908731375753376  0.40875491163376454  1.0000
  C   C4        1.0  0.817484321822789  0.9087274232067913  0.5912756534811908  1.0000
  C   C5        1.0  8.419853074289233e-06  0.8603658394058442  0.6396367750823019  1.0000
  C   C6        1.0  0.9999912269440615  0.09125919433159171  0.5912607011884462  1.0000
  C   C7        1.0  2.9408395150208643e-06  0.591248098889821  0.09126682561106496  1.0000
  C   C8        1.0  5.03209427185972e-06  0.36036582490883257  0.13963728990428598  1.0000
  C   C9        1.0  0.8174821028628401  0.40873750788575347  0.09125162607479348  1.0000
  C   C10       1.0  0.999998825880695  0.40872455705610383  0.9087558842450606  1.0000
  C   C11       1.0  0.9999959453216858  0.6396353547583686  0.8603625630117053  1.0000
  C   C12       1.0  0.1825160982864844  0.5912536128250991  0.9087286712631839  1.0000
  C   C13       1.0  4.339938740667766e-06  0.8042505032622742  0.6957504585296237  1.0000
  C   C14       1.0  9.118149008257673e-07  0.6957514225669215  0.8042487302961094  1.0000
  C   C15       1.0  0.9560776123439748  0.7769043431620516  0.767020113302472  1.0000
  C   C16       1.0  0.04392714946924769  0.7230982935562907  0.7329789530414459  1.0000
  C   C17       1.0  0.9560757459893381  0.7230968767438242  0.820827464794519  1.0000
  C   C18       1.0  0.0439283769361365  0.7769045979482029  0.679171834964663  1.0000
  C   C19       1.0  0.9999991704232656  0.19575059486884785  0.30424992455240857  1.0000
  C   C20       1.0  3.44120187630992e-06  0.3042514101788427  0.1957506981951909  1.0000
  C   C21       1.0  0.9560746023931871  0.17917556475877217  0.276894974351464  1.0000
  C   C22       1.0  0.043926885849600666  0.3208258400814116  0.2231053844000216  1.0000
  C   C23       1.0  0.9560751031042612  0.23298270920773928  0.2230885827536896  1.0000
  C   C24       1.0  0.04392706795434982  0.267018855472287  0.2769119271632547  1.0000
  C   C25       1.0  0.9999980910076475  0.6287732019246023  0.12879859855440404  1.0000
  C   C26       1.0  0.9564624264901838  0.6572575262891789  0.13468537794243957  1.0000
  C   C27       1.0  0.9564412338619518  0.6921462660484962  0.16963221577331944  1.0000
  C   C28       1.0  0.9999909869003005  0.6991031671309996  0.19913670972494688  1.0000
  C   C29       1.0  0.043546898344352734  0.6696142552763503  0.19218367197434832  1.0000
  C   C30       1.0  0.04353407639731432  0.6346725863746129  0.1572903808847245  1.0000
  C   C31       1.0  0.9999842781835824  0.7345047400996235  0.23454873093591333  1.0000
  C   C32       1.0  0.9999777377827  0.7654453492661019  0.265503557537784  1.0000
  C   C33       1.0  0.9999725490947498  0.8008489665227359  0.30091472951130555  1.0000
  C   C34       1.0  0.9564355224684745  0.8303634495011352  0.3078422421070004  1.0000
  C   C35       1.0  0.9564483444274213  0.86530512069244  0.3427342709714129  1.0000
  C   C36       1.0  0.9999721640617236  0.8711882846449015  0.37124163696555723  1.0000
  C   C37       1.0  0.04349499087576453  0.8426872772231208  0.3653720646671914  1.0000
  C   C38       1.0  0.043512306193804216  0.8077925568077332  0.3304321331314669  1.0000
  C   C39       1.0  9.247386614700974e-06  0.3711929904338547  0.871231304128628  1.0000
  C   C40       1.0  0.04354611853741372  0.4088329095267015  0.799212317048358  1.0000
  C   C41       1.0  0.0435645971137503  0.37390636303905467  0.7643048493645211  1.0000
  C   C42       1.0  6.3514224847979666e-06  0.3008603310749578  0.8008997993873734  1.0000
  C   C43       1.0  0.9564541502415763  0.2642650103283728  0.8739449766111989  1.0000
  C   C44       1.0  0.9564730469538035  0.299172967766964  0.908871681227957  1.0000
  C   C45       1.0  0.9999979009372525  0.26545839268027294  0.7654861981739317  1.0000
  C   C46       1.0  0.9999879005835338  0.23452267277044572  0.7345318940603677  1.0000
  C   C47       1.0  0.9999771648314636  0.19912038326093298  0.6991191090530863  1.0000
  C   C48       1.0  0.04351535825546184  0.23572052164954016  0.6260695148410349  1.0000
  C   C49       1.0  0.043497584929568185  0.20081316518164977  0.5911426534786558  1.0000
  C   C50       1.0  0.9999764277957651  0.128790932505936  0.6287852594339186  1.0000
  C   C51       1.0  0.9564499080655295  0.0911456755732587  0.7008087108237362  1.0000
  C   C52       1.0  0.9564360548147448  0.12607161862109012  0.7357171260090071  1.0000
  C   C53       1.0  0.7424255764103195  0.3712073632266313  0.12878185410139759  1.0000
  C   C54       1.0  0.708046867240476  0.40884927387252645  0.1346630960775814  1.0000
  C   C55       1.0  0.6382126940576072  0.3739237741962356  0.16960286968871705  1.0000
  C   C56       1.0  0.6017612302560733  0.3008754568186802  0.19911132341812285  1.0000
  C   C57       1.0  0.6382103175426649  0.2642750600573578  0.19217785315710514  1.0000
  C   C58       1.0  0.708045237129312  0.2991834508240033  0.15728416714164686  1.0000
  C   C59       1.0  0.5309480837124595  0.265474040637841  0.2345086210970422  1.0000
  C   C60       1.0  0.46905287783047106  0.2345394743906368  0.2654408410946162  1.0000
  C   C61       1.0  0.398239532945773  0.19913733273519807  0.30084058872812847  1.0000
  C   C62       1.0  0.3617909512504554  0.23573139234819246  0.3078003870873547  1.0000
  C   C63       1.0  0.29195622999694143  0.2008237255297658  0.3426924646316963  1.0000
  C   C64       1.0  0.2575750323308412  0.1288036895079259  0.3711779414810294  1.0000
  C   C65       1.0  0.2919532132408875  0.09116337415800756  0.3652785671015196  1.0000
  C   C66       1.0  0.3617872547189975  0.12609189565745993  0.3303292249134628  1.0000
  C   C67       1.0  0.2575724251319683  0.6287725735932028  0.8712025224591287  1.0000
  C   C68       1.0  0.2919579201510202  0.6346477380680966  0.9088473738746288  1.0000
  C   C69       1.0  0.36179304210307345  0.6695882730603131  0.8739223678216917  1.0000
  C   C70       1.0  0.3982392377349838  0.6991006778788886  0.80087087587917  1.0000
  C   C71       1.0  0.36178294421294777  0.6921673925663328  0.7642685745997824  1.0000
  C   C72       1.0  0.29194740943069764  0.6572729934876946  0.7991783343136235  1.0000
  C   C73       1.0  0.46905269308475545  0.7345055455659236  0.7654700128382858  1.0000
  C   C74       1.0  0.5309481863703314  0.7654492798833985  0.7345407939056727  1.0000
  C   C75       1.0  0.6017617521772323  0.8008568720756557  0.6991396569409006  1.0000
  C   C76       1.0  0.6382186432266224  0.8078132453025406  0.7357342950127476  1.0000
  C   C77       1.0  0.7080532968599155  0.842706760593103  0.7008259926045569  1.0000
  C   C78       1.0  0.7424280150463783  0.8711922744840095  0.628804017735803  1.0000
  C   C79       1.0  0.7080417468035805  0.8652980338934173  0.5911636082379773  1.0000
  C   C80       1.0  0.6382064478534204  0.8303510454147158  0.626090808944646  1.0000
  O   O1        1.0  2.992706101000251e-07  7.85657455500024e-07  0.5000003757506164  1.0000
  O   O2        1.0  0.1533564726488521  0.025543587698038592  0.43410442736890076  1.0000
  O   O3        1.0  0.04024333724488119  0.15604279794366252  0.3842040554702848  1.0000
  O   O4        1.0  0.9596302803514263  0.9341076682013848  0.41253452559495696  1.0000
  O   O5        1.0  0.1533574308689154  0.1278314024522373  0.41253125213505365  1.0000
  O   O6        1.0  0.04034476958847931  0.912532326259452  0.4341223046034344  1.0000
  O   O7        1.0  0.9597488349882682  0.07555648534315645  0.3841974674442242  1.0000
  O   O8        1.0  0.8466428475524734  0.9341038770911823  0.525547693777526  1.0000
  O   O9        1.0  0.9597650558655244  0.8842019903065221  0.6560454948555975  1.0000
  O   O10       1.0  0.8466505556126265  0.9125220043311869  0.6278409565936657  1.0000
  O   O11       1.0  0.040253317145683844  0.8842044433206339  0.5755559132643455  1.0000
  O   O12       1.0  0.0403506809454441  0.1278224217994648  0.5255363265130839  1.0000
  O   O13       1.0  0.9596476332918655  0.025531178109830042  0.6278270553200257  1.0000
  O   O14       1.0  0.9999996250113695  0.49999957631799663  8.683993117654326e-07  1.0000
  O   O15       1.0  0.959643290820537  0.5874531244606868  0.06589505079665546  1.0000
  O   O16       1.0  0.04025265325451944  0.4244449194970272  0.11580289130725427  1.0000
  O   O17       1.0  0.8466436394758644  0.3721743038726402  0.0874607980908949  1.0000
  O   O18       1.0  0.040365468117137475  0.5658860110337116  0.08747304165333257  1.0000
  O   O19       1.0  0.8466425053879192  0.47446265426795975  0.06587963217039337  1.0000
  O   O20       1.0  0.9597556180200826  0.3439586823270916  0.11579913904905251  1.0000
  O   O21       1.0  0.9596395317182739  0.3721629043630229  0.9744791531642323  1.0000
  O   O22       1.0  0.04023558643986287  0.6157949562050007  0.8439549698060774  1.0000
  O   O23       1.0  0.04034656580964918  0.4744523825865344  0.872189605273981  1.0000
  O   O24       1.0  0.9597527663750895  0.6157995160270672  0.9244426500880464  1.0000
  O   O25       1.0  0.15335874114510525  0.5658872176677363  0.9744543880505178  1.0000
  O   O26       1.0  0.1533479051593644  0.5874670039350818  0.8721633167730191  1.0000
  O   O27       1.0  0.9129412615928914  0.7999314938025537  0.787124862897059  1.0000
  O   O28       1.0  0.0870641830361619  0.7000713027556386  0.7128743546123248  1.0000
  O   O29       1.0  0.9129401792850657  0.7000666951818034  0.8869912573452368  1.0000
  O   O30       1.0  0.08706389971631259  0.7999357824598832  0.6130072370914803  1.0000
  O   O31       1.0  0.9129390541221197  0.11301233679062507  0.29991802254611605  1.0000
  O   O32       1.0  0.08706219187137518  0.3869893485773659  0.2000822978705444  1.0000
  O   O33       1.0  0.9129380001104508  0.2128786572120161  0.2000520884070272  1.0000
  O   O34       1.0  0.08706392869886771  0.28712318799582454  0.29994838317509925  1.0000
  O   O35       1.0  0.08631992074848663  0.6748031867893188  0.21946577365617514  1.0000
  O   O36       1.0  0.9136662664046037  0.719420380172522  0.17481443952730336  1.0000
  O   O37       1.0  0.08626810809388992  0.7804940036775251  0.3252754781707523  1.0000
  O   O38       1.0  0.9136824363015065  0.8251971139876275  0.2805346504753532  1.0000
  O   O39       1.0  0.9136805689861873  0.19421868347621513  0.9115280716312031  1.0000
  O   O40       1.0  0.08633880173466925  0.4114883254407999  0.6942558281915509  1.0000
  O   O41       1.0  0.9136816506026121  0.08848383621131004  0.8057704772815343  1.0000
  O   O42       1.0  0.08627294983950415  0.30577491407905205  0.5884804700900403  1.0000
  O   O43       1.0  0.6057454959817861  0.19422322842279965  0.21947171879382685  1.0000
  O   O44       1.0  0.6057477139438702  0.41151219066642153  0.1747725035052242  1.0000
  O   O45       1.0  0.3942530948611918  0.08851013372574809  0.32513482755489787  1.0000
  O   O46       1.0  0.39425526554491336  0.3057790241063145  0.2805251590192982  1.0000
  O   O47       1.0  0.39424088825686016  0.719468014188465  0.6942146435273387  1.0000
  O   O48       1.0  0.39426225630278816  0.6747484182910881  0.9115154883909186  1.0000
  O   O49       1.0  0.6057350935045492  0.8251610406298087  0.5885064024222759  1.0000
  O   O50       1.0  0.6057621112902324  0.7805328610592355  0.8057839714939947  1.0000
