data_image0
_chemical_formula_structural       Nd4H40C56N4O34
_chemical_formula_sum              "Nd4 H40 C56 N4 O34"
_cell_length_a       10.19247559677651
_cell_length_b       12.41698899291678
_cell_length_c       13.2659
_cell_angle_alpha    72.41769557090144
_cell_angle_beta     73.38697568001771
_cell_angle_gamma    69.84190840237709

_space_group_name_H-M_alt    "P 1"
_space_group_IT_number       1

loop_
  _space_group_symop_operation_xyz
  'x, y, z'

loop_
  _atom_site_type_symbol
  _atom_site_label
  _atom_site_symmetry_multiplicity
  _atom_site_fract_x
  _atom_site_fract_y
  _atom_site_fract_z
  _atom_site_occupancy
  Nd  Nd1       1.0  0.8093418348363456  0.7838728257038243  0.4035089919143077  1.0000
  Nd  Nd2       1.0  0.19065752370498507  0.21612795340066532  0.5964909287055846  1.0000
  Nd  Nd3       1.0  0.18436531468749712  0.7197327801181572  0.5417287826604638  1.0000
  Nd  Nd4       1.0  0.8156353694633083  0.280267118244197  0.4582703419787254  1.0000
  H   H1        1.0  0.8718865902801199  0.9619051590322272  0.4847340159588499  1.0000
  H   H2        1.0  0.1281137921152364  0.0380956200722622  0.5152656797532131  1.0000
  H   H3        1.0  0.7180526671395883  0.0241569951297436  0.4669467406735705  1.0000
  H   H4        1.0  0.2819469931571846  0.9758429032326106  0.5330533626858553  1.0000
  H   H5        1.0  0.30880691880037153  0.5303300658970542  0.724772548773025  1.0000
  H   H6        1.0  0.6911937653504339  0.4696698324653071  0.27522732967857183  1.0000
  H   H7        1.0  0.2983152441335121  0.4591123765581956  0.644692935417602  1.0000
  H   H8        1.0  0.7016854400172933  0.5408875218041658  0.3553069430339874  1.0000
  H   H9        1.0  0.2862578058084608  0.5083141548842818  0.42927423851028124  1.0000
  H   H10       1.0  0.7137421562437538  0.4916848627359444  0.5707268014010867  1.0000
  H   H11       1.0  0.12662670730552614  0.5695961922595103  0.4211865003344357  1.0000
  H   H12       1.0  0.8733739768452794  0.430403706102851  0.5788141319295619  1.0000
  H   H13       1.0  0.004632092255249584  0.3662548530958887  0.9292515433324269  1.0000
  H   H14       1.0  0.9953675680415234  0.6337450452664727  0.07074856002699903  1.0000
  H   H15       1.0  0.8353940805200114  0.4910912425406124  0.056681896168633776  1.0000
  H   H16       1.0  0.1646052780213267  0.5089095365638698  0.9433187782636736  1.0000
  H   H17       1.0  0.6611625194333968  0.6773320925165792  0.9830571857337845  1.0000
  H   H18       1.0  0.33883744261881793  0.322666925103654  0.016943100365175236  1.0000
  H   H19       1.0  0.5610954682265971  0.05334831227209241  0.6919767002200529  1.0000
  H   H20       1.0  0.43890623977823395  0.946651586090269  0.3080229533237072  1.0000
  H   H21       1.0  0.7571727474436543  0.8746967155889608  0.7315928081659494  1.0000
  H   H22       1.0  0.2428269128531184  0.1253031827734006  0.2684072951934766  1.0000
  H   H23       1.0  0.4860050350797848  0.6586955890549504  0.8230143758498798  1.0000
  H   H24       1.0  0.5139925775089366  0.3413043093074037  0.17698768495002778  1.0000
  H   H25       1.0  0.2776547764131152  0.8298775100995927  0.7898293700947931  1.0000
  H   H26       1.0  0.7223442803727737  0.1701241497470249  0.21017112159798046  1.0000
  H   H27       1.0  0.9619898056144154  0.2455764472448436  0.088844207015967  1.0000
  H   H28       1.0  0.03801190239042275  0.7544234511175177  0.9111554465277933  1.0000
  H   H29       1.0  0.09750309122249229  0.1641518373664397  0.9235095355742402  1.0000
  H   H30       1.0  0.9024983150269039  0.8358489417380497  0.07648993522998647  1.0000
  H   H31       1.0  0.2591368895738171  0.9589846181305859  0.94843369440067  1.0000
  H   H32       1.0  0.7408645166755721  0.0410161609739035  0.0515657764035566  1.0000
  H   H33       1.0  0.3509601132498473  0.5360733853239524  0.12046822567607056  1.0000
  H   H34       1.0  0.6490405709009579  0.4639265130384019  0.87953014515071  1.0000
  H   H35       1.0  0.17918728452763588  0.736931912424332  0.09646291915098706  1.0000
  H   H36       1.0  0.8208133996231625  0.2630679859380294  0.9035354516757934  1.0000
  H   H37       1.0  0.4482970125906577  0.876990168094352  0.1694907171142502  1.0000
  H   H38       1.0  0.5517029494615642  0.1230088495258812  0.8305095689847093  1.0000
  H   H39       1.0  0.6291187514530209  0.682574269671754  0.20151622533002467  1.0000
  H   H40       1.0  0.3708812105991939  0.317424747948472  0.7984848145813358  1.0000
  C   C1        1.0  0.845293526537901  0.6442179499291428  0.6278337996856037  1.0000
  C   C2        1.0  0.1547092053209624  0.3557819484332185  0.37216789038753734  1.0000
  C   C3        1.0  0.020058205324644984  0.3966113920756485  0.721063898066248  1.0000
  C   C4        1.0  0.9799411532166857  0.6033893870288409  0.2789360225536441  1.0000
  C   C5        1.0  0.8410527908733911  0.5932872748027124  0.746513431932506  1.0000
  C   C6        1.0  0.15894656766793958  0.4067135043017771  0.2534872424997943  1.0000
  C   C7        1.0  0.9327519678957824  0.4844821536003537  0.7888199327493837  1.0000
  C   C8        1.0  0.06724666854696437  0.5155177447620076  0.2111811493302866  1.0000
  C   C9        1.0  0.9309776545692826  0.45015787132689417  0.8997921520690468  1.0000
  C   C10       1.0  0.0690209818734644  0.5498420270354671  0.1002081761982154  1.0000
  C   C11       1.0  0.837275816020032  0.5193912486478425  0.9702932502664224  1.0000
  C   C12       1.0  0.16272282042271508  0.4806086497145188  0.029707831813247838  1.0000
  C   C13       1.0  0.7398720993759654  0.6233152969681443  0.9296874869309234  1.0000
  C   C14       1.0  0.26012756092080747  0.37668460139421  0.07031337024091043  1.0000
  C   C15       1.0  0.7409374556856321  0.6586180837475553  0.8192629669555913  1.0000
  C   C16       1.0  0.2590608790016731  0.3413826953569341  0.1807371785721443  1.0000
  C   C17       1.0  0.5373045467108711  0.9692082727705937  0.7249129590299717  1.0000
  C   C18       1.0  0.46269553392904345  0.030793387076023703  0.2750873077549656  1.0000
  C   C19       1.0  0.6484665865247691  0.8707236878424852  0.7454133598452019  1.0000
  C   C20       1.0  0.3515330737720035  0.12927621051986904  0.2545867435142242  1.0000
  C   C21       1.0  0.49511179763390345  0.7485057447489609  0.7986727191984214  1.0000
  C   C22       1.0  0.5048865370534017  0.25149503435552845  0.2013281801417151  1.0000
  C   C23       1.0  0.3804746959978615  0.8443190387980906  0.7797045407979653  1.0000
  C   C24       1.0  0.6195236386894365  0.15568174030639884  0.2202963585421713  1.0000
  C   C25       1.0  0.3952530664297881  0.961339722585045  0.7429746793333577  1.0000
  C   C26       1.0  0.6047473159655753  0.03866105651944451  0.2570257701911132  1.0000
  C   C27       1.0  0.47431831154945303  0.7987071653921092  0.5049960918460314  1.0000
  C   C28       1.0  0.5256813487473196  0.2012927329702521  0.49500401151339446  1.0000
  C   C29       1.0  0.5237105857705444  0.6943224889380417  0.44909483459491634  1.0000
  C   C30       1.0  0.4762893762816702  0.3056765286821915  0.5509062053164513  1.0000
  C   C31       1.0  0.13507370115245007  0.8862652634608139  0.32362815880072304  1.0000
  C   C32       1.0  0.8649259591443227  0.11373463490154731  0.676371944558703  1.0000
  C   C33       1.0  0.9636123991473086  0.14566153709832014  0.2933481797850988  1.0000
  C   C34       1.0  0.03638858675893882  0.8543374805219062  0.7066511275936236  1.0000
  C   C35       1.0  0.1254658491598661  0.9692637595247504  0.21448756236131317  1.0000
  C   C36       1.0  0.8745341128923556  0.030735258095475608  0.7855104623004293  1.0000
  C   C37       1.0  0.0390532094866813  0.0865954469210877  0.20044831212797481  1.0000
  C   C38       1.0  0.960947172908682  0.9134053321834017  0.79955062977168  1.0000
  C   C39       1.0  0.029622888378121107  0.15503351409903843  0.0956833634354837  1.0000
  C   C40       1.0  0.9703774940172423  0.8449672650054509  0.9043163322765791  1.0000
  C   C41       1.0  0.10480719375443935  0.11009276619579111  0.004687112173506592  1.0000
  C   C42       1.0  0.8951934903963662  0.8899071321665702  0.9953120124656819  1.0000
  C   C43       1.0  0.1953786571460014  0.9954209200307461  0.018091960799210934  1.0000
  C   C44       1.0  0.8046227491033875  0.0045798590737434  0.9819060023802068  1.0000
  C   C45       1.0  0.20584922910407502  0.9273025622458279  0.12187841768864152  1.0000
  C   C46       1.0  0.7941514550467305  0.0726973361165335  0.8781199531381391  1.0000
  C   C47       1.0  0.3755823808987487  0.6085390862604143  0.13379782774471494  1.0000
  C   C48       1.0  0.6244183032520567  0.391460812101947  0.8662005430820656  1.0000
  C   C49       1.0  0.28080980870515043  0.7180637737826318  0.11899471214846369  1.0000
  C   C50       1.0  0.7191911772010896  0.2819352438376015  0.8810030876054427  1.0000
  C   C51       1.0  0.4333248158180398  0.7973517032547051  0.16201619432828818  1.0000
  C   C52       1.0  0.5666745427232912  0.2026490758497843  0.8379829724792032  1.0000
  C   C53       1.0  0.5311819530835747  0.6897972358763269  0.17905973521870783  1.0000
  C   C54       1.0  0.468817707213205  0.31020266248602724  0.8209403681407251  1.0000
  C   C55       1.0  0.5047138867458187  0.5862430992504386  0.17049101976841297  1.0000
  C   C56       1.0  0.4952867974049866  0.4137567991119156  0.8295073510583676  1.0000
  N   N1        1.0  0.6283068778589609  0.7612395144582322  0.7837234577804255  1.0000
  N   N2        1.0  0.3716914568283443  0.23876126464625713  0.21627744155971132  1.0000
  N   N3        1.0  0.3073527546552555  0.812039839749481  0.1345948293624773  1.0000
  N   N4        1.0  0.6926472073969592  0.187959177870745  0.8654039491116663  1.0000
  O   O1        1.0  0.9426006151861728  0.6947091347329177  0.5738097547330767  1.0000
  O   O2        1.0  0.057400068964625475  0.3052907636294364  0.426190877530928  1.0000
  O   O3        1.0  0.7467269023201624  0.6463731259201921  0.5869159901469202  1.0000
  O   O4        1.0  0.25327143236714283  0.35362765318429723  0.4130849091932163  1.0000
  O   O5        1.0  0.019961578446490956  0.4228293237885766  0.6198805315795752  1.0000
  O   O6        1.0  0.9800391057043073  0.5771705745737776  0.38012010068442237  1.0000
  O   O7        1.0  0.08763917044509377  0.2945518748436342  0.7670060978017548  1.0000
  O   O8        1.0  0.9123612119502624  0.705448904260848  0.23299435172271646  1.0000
  O   O9        1.0  0.28767070017868696  0.052456120494838415  0.728086683165607  1.0000
  O   O10       1.0  0.712330706070702  0.9475446586096511  0.27191354145102753  1.0000
  O   O11       1.0  0.5607216519095601  0.8559421926819725  0.49175776536555554  1.0000
  O   O12       1.0  0.4392790322412452  0.1440577056803818  0.5082421130860411  1.0000
  O   O13       1.0  0.3462860151591371  0.8209864183016152  0.5583721427623232  1.0000
  O   O14       1.0  0.6537136451376356  0.179013480060739  0.4416279605971026  1.0000
  O   O15       1.0  0.6514972520852069  0.6726764896196897  0.39438608390005225  1.0000
  O   O16       1.0  0.3485040355764824  0.32732164725840823  0.6056156676554209  1.0000
  O   O17       1.0  0.4354157093360628  0.6399815802859266  0.4594827440780874  1.0000
  O   O18       1.0  0.5645849748147428  0.3600183180764276  0.540516380561094  1.0000
  O   O19       1.0  0.042718376971087914  0.8284603960131207  0.36597133483160604  1.0000
  O   O20       1.0  0.9572829106905942  0.1715377408649843  0.6340296629114521  1.0000
  O   O21       1.0  0.23779806840454396  0.8708152850239587  0.366417760177569  1.0000
  O   O22       1.0  0.762200568038203  0.1291846133383956  0.6335825680896933  1.0000
  O   O23       1.0  0.97725778772692  0.09064157626431782  0.3900780430251913  1.0000
  O   O24       1.0  0.022743198179327323  0.9093574413559156  0.6099220181659318  1.0000
  O   O25       1.0  0.8910972659009103  0.2532292156086413  0.2709119791891014  1.0000
  O   O26       1.0  0.10890341824989486  0.7467706827537129  0.7290871454500873  1.0000
  O   O27       1.0  0.5892600253762125  0.48328434430413847  0.19209373598323512  1.0000
  O   O28       1.0  0.410740658774593  0.5167155540582158  0.8079053886559535  1.0000
  O   O29       1.0  0.7842350174639776  0.9445501353691201  0.4869367425004468  1.0000
  O   O30       1.0  0.2157656666868277  0.05544976299323421  0.5130631359511497  1.0000
  O   O31       1.0  0.25604699128034264  0.5345188754652739  0.6690647272862905  1.0000
  O   O32       1.0  0.7439536928704628  0.4654810228970875  0.33093515116529904  1.0000
  O   O33       1.0  0.2117024375387118  0.5823546227484044  0.4329298653893686  1.0000
  O   O34       1.0  0.7882985483675355  0.4176443948718217  0.5670701958017546  1.0000
