data_image0
_chemical_formula_structural       Cu2H16C36N4O8F8
_chemical_formula_sum              "Cu2 H16 C36 N4 O8 F8"
_cell_length_a       8.178423832571626
_cell_length_b       9.522291862799825
_cell_length_c       11.320888290752723
_cell_angle_alpha    74.3699496468341
_cell_angle_beta     70.45357031519542
_cell_angle_gamma    75.08063290784683

_space_group_name_H-M_alt    "P 1"
_space_group_IT_number       1

loop_
  _space_group_symop_operation_xyz
  'x, y, z'

loop_
  _atom_site_type_symbol
  _atom_site_label
  _atom_site_symmetry_multiplicity
  _atom_site_fract_x
  _atom_site_fract_y
  _atom_site_fract_z
  _atom_site_occupancy
  Cu  Cu1       1.0  0.532367163470049  0.8086654374366162  0.5738805850933489  1.0000
  Cu  Cu2       1.0  0.46763782003429105  0.19133050229264376  0.42612002967014473  1.0000
  H   H1        1.0  0.4472144197307272  0.7069295299232509  0.8642870308300491  1.0000
  H   H2        1.0  0.5528037308941761  0.293053011802037  0.13571521332854541  1.0000
  H   H3        1.0  0.27131915665254513  0.5205529199157085  0.027012075713457817  1.0000
  H   H4        1.0  0.728697453041299  0.47943073029338734  0.972985872941081  1.0000
  H   H5        1.0  0.1137549826017548  0.3864144751392757  0.9497216360097273  1.0000
  H   H6        1.0  0.8862558806509637  0.6135780793706758  0.050273906821480814  1.0000
  H   H7        1.0  0.13340015514174297  0.4404363450249704  0.7179758459324577  1.0000
  H   H8        1.0  0.8666036682223819  0.5595651322523737  0.2820202512783112  1.0000
  H   H9        1.0  0.16426125794922092  0.4987626191345456  0.5211946837621612  1.0000
  H   H10       1.0  0.8357343204959378  0.5012411611239854  0.47880907449964405  1.0000
  H   H11       1.0  0.22592441755863044  0.5733035033514895  0.28614797358356736  1.0000
  H   H12       1.0  0.7740643534553013  0.4267080926507135  0.7138574190182542  1.0000
  H   H13       1.0  0.423475480784134  0.7628528244291106  0.16671595594915806  1.0000
  H   H14       1.0  0.5765126683951677  0.23715543981456474  0.8332850497428625  1.0000
  H   H15       1.0  0.5439670858041266  0.87028330537202  0.2917566866639447  1.0000
  H   H16       1.0  0.45602871436537373  0.1297193557153378  0.7082437403107921  1.0000
  C   C1        1.0  0.3757472514203569  0.6451210198599141  0.8369150880559816  1.0000
  C   C2        1.0  0.6242702082722715  0.35486485022500613  0.16308656296979507  1.0000
  C   C3        1.0  0.27820389040529403  0.5425039678258301  0.9259894315237748  1.0000
  C   C4        1.0  0.721812491124389  0.457480794265969  0.07400920166933388  1.0000
  C   C5        1.0  0.19040330388219218  0.4678508253408752  0.8827576987483854  1.0000
  C   C6        1.0  0.8096021338038497  0.5321428881934905  0.11724066468848102  1.0000
  C   C7        1.0  0.20082037579233258  0.4977557175994392  0.7533842225612164  1.0000
  C   C8        1.0  0.7991834540116044  0.5022457669663825  0.24661452139806533  1.0000
  C   C9        1.0  0.3019195114813086  0.6013631965118977  0.669182305723588  1.0000
  C   C10       1.0  0.6980839418249899  0.39863386384863025  0.3308184247833666  1.0000
  C   C11       1.0  0.3256246061751114  0.6408455604574499  0.5304804924588709  1.0000
  C   C12       1.0  0.6743799210009201  0.3591526030372165  0.469521491381748  1.0000
  C   C13       1.0  0.24758119289368355  0.5806522733489742  0.46813741505906864  1.0000
  C   C14       1.0  0.7524189782921978  0.4193481474452554  0.5318668782218624  1.0000
  C   C15       1.0  0.2820800995914252  0.6237088155039531  0.33564105914521053  1.0000
  C   C16       1.0  0.7179124163110442  0.3762972035876119  0.6643620483540079  1.0000
  C   C17       1.0  0.39091777129272043  0.7275702568801279  0.270042433688552  1.0000
  C   C18       1.0  0.6090768816161828  0.27243795633226137  0.7299587692304785  1.0000
  C   C19       1.0  0.4616533090526574  0.7862930709726754  0.33828782855303546  1.0000
  C   C20       1.0  0.5383437952973295  0.21370958379560534  0.6617140494663049  1.0000
  C   C21       1.0  0.8238843724118965  0.8662504009230291  0.3744680477186436  1.0000
  C   C22       1.0  0.1761164811198412  0.13374668179359625  0.6255333096971044  1.0000
  C   C23       1.0  0.957195922873666  0.9527856992581007  0.27422243133589325  1.0000
  C   C24       1.0  0.042795740883420294  0.04721809752814471  0.725776091542585  1.0000
  C   C25       1.0  0.017159862178594703  0.06330738332334113  0.29948189443195633  1.0000
  C   C26       1.0  0.9828431262129765  0.9366918910846214  0.7005166761541022  1.0000
  C   C27       1.0  0.15947015824711022  0.12862404782437412  0.21723175763007432  1.0000
  C   C28       1.0  0.8405264876279614  0.8713808282798182  0.7827706072168896  1.0000
  C   C29       1.0  0.2368569900098264  0.08644829584827109  0.09976796555304904  1.0000
  C   C30       1.0  0.7631385755557004  0.9135554698333124  0.9002304992117378  1.0000
  C   C31       1.0  0.18075112623100142  0.9795011465812067  0.06723630949824871  1.0000
  C   C32       1.0  0.8192406901527747  0.0205081911520253  0.9327626758701302  1.0000
  C   C33       1.0  0.04461546201034141  0.9117942068177597  0.1559766239795124  1.0000
  C   C34       1.0  0.9553810782747971  0.0882172881032375  0.8440145364028812  1.0000
  C   C35       1.0  0.24177893877417492  0.22541529853726416  0.26077743693144134  1.0000
  C   C36       1.0  0.7582218306336799  0.7745884272910858  0.7392215385147627  1.0000
  N   N1        1.0  0.3875130281647683  0.673072612314215  0.7119471840018651  1.0000
  N   N2        1.0  0.61249631991614  0.3269210798334471  0.2880546503193173  1.0000
  N   N3        1.0  0.4310111224514302  0.7425345113525097  0.46523362545241315  1.0000
  N   N4        1.0  0.5689921005441078  0.2574636584612265  0.5347669073435953  1.0000
  O   O1        1.0  0.6735214179824709  0.9422276943307611  0.4266900433898044  1.0000
  O   O2        1.0  0.3264783638261477  0.057768287681220415  0.5733109429417811  1.0000
  O   O3        1.0  0.8674381719091286  0.7288545923612944  0.4007759389880406  1.0000
  O   O4        1.0  0.13256436659394666  0.2711469131005515  0.599226647423656  1.0000
  O   O5        1.0  0.19866135055733739  0.36237830465799453  0.2378933115742968  1.0000
  O   O6        1.0  0.8013417883143175  0.6376265082674664  0.7621048392521675  1.0000
  O   O7        1.0  0.35579765563183935  0.1421153075591661  0.31805900619220756  1.0000
  O   O8        1.0  0.6442054875330286  0.8578895102252702  0.6819409091332603  1.0000
  F   F1        1.0  0.9396383070872998  0.1051737612330683  0.4138582223493971  1.0000
  F   F2        1.0  0.060370662349363585  0.894815504279805  0.5861447162699422  1.0000
  F   F3        1.0  0.37566934417712616  0.14648817740904724  0.014832270040606903  1.0000
  F   F4        1.0  0.6243347309638098  0.8535122147100084  0.9851728473761415  1.0000
  F   F5        1.0  0.2617389402445338  0.9386450746024343  0.9526809740317221  1.0000
  F   F6        1.0  0.7382569198413477  0.06136976082565581  0.04731400446535623  1.0000
  F   F7        1.0  0.9983617965328333  0.8030585410720692  0.12401288416708679  1.0000
  F   F8        1.0  0.0016289416879971005  0.1969496886680346  0.875983083368624  1.0000
