data_image0
_chemical_formula_structural       ZnH16C24N2O4F6
_chemical_formula_sum              "Zn1 H16 C24 N2 O4 F6"
_cell_length_a       7.092812683834666
_cell_length_b       9.167913970419765
_cell_length_c       11.310357280058128
_cell_angle_alpha    73.33691710743972
_cell_angle_beta     71.7198801385402
_cell_angle_gamma    67.26090234932498

_space_group_name_H-M_alt    "P 1"
_space_group_IT_number       1

loop_
  _space_group_symop_operation_xyz
  'x, y, z'

loop_
  _atom_site_type_symbol
  _atom_site_label
  _atom_site_symmetry_multiplicity
  _atom_site_fract_x
  _atom_site_fract_y
  _atom_site_fract_z
  _atom_site_occupancy
  Zn  Zn1       1.0  0.9593927940196705  9.171495772619979e-05  3.329082943468112e-06  1.0000
  H   H1        1.0  0.14857904746315143  0.23865243375324494  0.022052970336659438  1.0000
  H   H2        1.0  0.40924824593120196  0.7614342502297545  0.9778928091884468  1.0000
  H   H3        1.0  0.5090212688435969  0.23854330314513558  0.022815895808676625  1.0000
  H   H4        1.0  0.7702514800749111  0.7617009829904902  0.9771227087471673  1.0000
  H   H5        1.0  0.903614896324555  0.7134405421028021  0.3934795716538987  1.0000
  H   H6        1.0  0.010550549088691137  0.28650379881575827  0.6064487557391943  1.0000
  H   H7        1.0  0.7941407267518982  0.8117958499205571  0.542901262426824  1.0000
  H   H8        1.0  0.14899749850840033  0.18806019161937831  0.4571304121306597  1.0000
  H   H9        1.0  0.668466887685156  0.26882196462252483  0.2857090670431007  1.0000
  H   H10       1.0  0.22283780744931622  0.731099999960925  0.7143965726752984  1.0000
  H   H11       1.0  0.6304816610966093  0.9495180649637192  0.7237762690862015  1.0000
  H   H12       1.0  0.303686464531907  0.0503222175542533  0.2762728759807588  1.0000
  H   H13       1.0  0.5016881143829789  0.4084078797374247  0.4682967810248472  1.0000
  H   H14       1.0  0.37821065929826103  0.5914437297118552  0.5318137610394943  1.0000
  H   H15       1.0  0.4815144574428131  0.24993858077029776  0.6897326102027393  1.0000
  H   H16       1.0  0.42097016049078195  0.7498910480196201  0.31035907570074533  1.0000
  C   C1        1.0  0.2885915742614246  0.13271432529724336  0.012344384694962737  1.0000
  C   C2        1.0  0.43358276403675683  0.8674172519658966  0.9876223139425876  1.0000
  C   C3        1.0  0.8379447335337599  0.9564946987372522  0.2855108348677932  1.0000
  C   C4        1.0  0.0798783744117839  0.04348647125654278  0.7145051266531227  1.0000
  C   C5        1.0  0.7425823826097541  0.031247511048945898  0.4005374464038028  1.0000
  C   C6        1.0  0.17423535022690778  0.9686685120935298  0.5995146717762907  1.0000
  C   C7        1.0  0.48480883054534724  0.1326823753708695  0.012580561947153512  1.0000
  C   C8        1.0  0.6299713989450235  0.8675194940167331  0.9873911376862526  1.0000
  C   C9        1.0  0.009025376986102247  0.7017856222600755  0.19888608561100093  1.0000
  C   C10       1.0  0.9100390561523  0.298287104819046  0.8010147761956149  1.0000
  C   C11       1.0  0.9164931180170649  0.785418132283745  0.29855374041741095  1.0000
  C   C12       1.0  0.0005299499927459787  0.2145832784991413  0.701388170799767  1.0000
  C   C13       1.0  0.08889522700439301  0.5161413269431349  0.23324862398390428  1.0000
  C   C14       1.0  0.8387808186713315  0.48393869940134926  0.7666510686737527  1.0000
  C   C15       1.0  0.7307686404814787  0.9424733312586183  0.5248873613515813  1.0000
  C   C16       1.0  0.198093697988426  0.057399886609388794  0.47515513842525803  1.0000
  C   C17       1.0  0.6592847639752291  0.20016061305300067  0.382220848178733  1.0000
  C   C18       1.0  0.241444638522125  0.7997470692297383  0.617873562226926  1.0000
  C   C19       1.0  0.6377897092144164  0.020702050512255703  0.62805257204613  1.0000
  C   C20       1.0  0.28639626655892375  0.97915362924104  0.3720034502381893  1.0000
  C   C21       1.0  0.5661194463538733  0.2775602634702707  0.4853194967233351  1.0000
  C   C22       1.0  0.32873145498537343  0.7223007708692678  0.5147779010214961  1.0000
  C   C23       1.0  0.554787240193242  0.18855140014903068  0.6090054942469578  1.0000
  C   C24       1.0  0.35207512877448  0.8112993565141693  0.3910847249921475  1.0000
  N   N1        1.0  0.6536508649171747  0.0001154838391031001  0.9999894438196721  1.0000
  N   N2        1.0  0.2648604870915958  4.094712603829992e-05  0.9999896158055748  1.0000
  O   O1        1.0  0.044506395823695734  0.7527869349163083  0.07901939442361793  1.0000
  O   O2        1.0  0.8766713297853808  0.2473535892955994  0.920891905007679  1.0000
  O   O3        1.0  0.8423598076081048  0.053742671247619  0.17916215168279592  1.0000
  O   O4        1.0  0.07510821439226574  0.9462987182932423  0.8208746818098762  1.0000
  F   F1        1.0  0.029935393635518722  0.45568927922925434  0.3592801373927302  1.0000
  F   F2        1.0  0.8454830398987806  0.544442035803293  0.6406238110319152  1.0000
  F   F3        1.0  0.018340066629875206  0.44927856381448805  0.16923248585630551  1.0000
  F   F4        1.0  0.6373428433832942  0.5507033033264291  0.83067620662154  1.0000
  F   F5        1.0  0.3042035985835625  0.4579242963762269  0.20016901740148543  1.0000
  F   F6        1.0  0.9627021004060119  0.5422301922465493  0.7997600660106416  1.0000
