data_image0
_chemical_formula_structural       Ni2P4H36C40N4O12
_chemical_formula_sum              "Ni2 P4 H36 C40 N4 O12"
_cell_length_a       7.766545838471004
_cell_length_b       10.712512209935865
_cell_length_c       11.599391796764696
_cell_angle_alpha    82.91164629844769
_cell_angle_beta     87.99038524584883
_cell_angle_gamma    87.27574774631412

_space_group_name_H-M_alt    "P 1"
_space_group_IT_number       1

loop_
  _space_group_symop_operation_xyz
  'x, y, z'

loop_
  _atom_site_type_symbol
  _atom_site_label
  _atom_site_symmetry_multiplicity
  _atom_site_fract_x
  _atom_site_fract_y
  _atom_site_fract_z
  _atom_site_occupancy
  Ni  Ni1       1.0  0.22446261757127672  0.5267645990570315  0.14855089113539321  1.0000
  Ni  Ni2       1.0  0.7754847474013359  0.47331092053040175  0.8514114314438502  1.0000
  P   P1        1.0  0.8434345046818379  0.669281877178335  0.04693331061937302  1.0000
  P   P2        1.0  0.1566371003548781  0.33067624069473567  0.9530158023599072  1.0000
  P   P3        1.0  0.6652013334055695  0.3516722863806194  0.10801555134088402  1.0000
  P   P4        1.0  0.334685124729063  0.6483743765900344  0.8919842359249658  1.0000
  H   H1        1.0  0.5945329662225945  0.5872006231007845  0.10143218855166938  1.0000
  H   H2        1.0  0.4054816009606199  0.41275721587252423  0.8986363257915997  1.0000
  H   H3        1.0  0.9406664132050295  0.37687777618248214  0.13215609009461823  1.0000
  H   H4        1.0  0.05928804102921959  0.6231127907598263  0.8677435504900687  1.0000
  H   H5        1.0  0.37966662404440404  0.7896230149201815  0.12947512679686207  1.0000
  H   H6        1.0  0.6203900153326883  0.21046727734341178  0.8705942778676319  1.0000
  H   H7        1.0  0.4743760708404919  0.9212578762871003  0.27884947333374305  1.0000
  H   H8        1.0  0.5258071325353483  0.0787152729899034  0.7212816447209961  1.0000
  H   H9        1.0  0.44041385598288224  0.840425600303142  0.49091125778009836  1.0000
  H   H10       1.0  0.559738029413758  0.1594736194537063  0.5092050208042309  1.0000
  H   H11       1.0  0.3388871530607815  0.6588764348097982  0.643936889915814  1.0000
  H   H12       1.0  0.6611471786732251  0.34106170543464737  0.35609037621021145  1.0000
  H   H13       1.0  0.22339269705048542  0.4484482844498814  0.6871493445598065  1.0000
  H   H14       1.0  0.7765995573805141  0.5515015312548925  0.3128455919946447  1.0000
  H   H15       1.0  0.14009558061431446  0.24539645880818028  0.6103699717694512  1.0000
  H   H16       1.0  0.8598619809664498  0.7546463713837921  0.38965283228694153  1.0000
  H   H17       1.0  0.09385930068951612  0.1347118541397023  0.4353196772473709  1.0000
  H   H18       1.0  0.9060344035943331  0.8653076651536012  0.564715871469737  1.0000
  H   H19       1.0  0.12932371404830428  0.25103771142245523  0.2362193611404209  1.0000
  H   H20       1.0  0.8707382156099756  0.7489261433126229  0.7637913698857872  1.0000
  H   H21       1.0  0.02253770505990359  0.8350567429935724  0.9737965052024364  1.0000
  H   H22       1.0  0.9774520229435667  0.1649410407683689  0.0261730726217664  1.0000
  H   H23       1.0  0.8090009058557186  0.8693427754948856  0.9265322429315009  1.0000
  H   H24       1.0  0.1909655381028728  0.13062282115965468  0.07347866786946611  1.0000
  H   H25       1.0  0.644930078247441  0.02780799791674579  0.013692163873173503  1.0000
  H   H26       1.0  0.3550083279536338  0.9721063619510915  0.9863141243765909  1.0000
  H   H27       1.0  0.05653485285598949  0.824531560441855  0.20275006318492225  1.0000
  H   H28       1.0  0.9436095741609448  0.17556123770439316  0.797197278069554  1.0000
  H   H29       1.0  0.01195892765978361  0.9622650675830399  0.35945246536441294  1.0000
  H   H30       1.0  0.9880976707645318  0.0377984653329904  0.6404993595166104  1.0000
  H   H31       1.0  0.7834665411526345  0.134458294653534  0.34290548792231595  1.0000
  H   H32       1.0  0.21649619731564937  0.8655222569903528  0.6570778995937232  1.0000
  H   H33       1.0  0.5050636046165095  0.21764203983217814  0.24680902199016694  1.0000
  H   H34       1.0  0.4948903856375395  0.7823533109233836  0.7531150732372967  1.0000
  H   H35       1.0  0.4680311762015775  0.19003379200202625  0.1021745503449694  1.0000
  H   H36       1.0  0.5319898436339587  0.8099453496572975  0.8977482291593901  1.0000
  C   C1        1.0  0.3680372749481151  0.7578899901394391  0.22189246158902176  1.0000
  C   C2        1.0  0.6320132582296408  0.2421804257570415  0.7781733575093598  1.0000
  C   C3        1.0  0.4186298254577779  0.8306825411877411  0.30702421301027993  1.0000
  C   C4        1.0  0.5814740899234395  0.16930087773355496  0.6930617663033304  1.0000
  C   C5        1.0  0.4009807678571065  0.7856129294471973  0.42369852336361197  1.0000
  C   C6        1.0  0.5990970611536283  0.21434284064845605  0.5763826299580401  1.0000
  C   C7        1.0  0.3335319947755764  0.6655811395760906  0.45579349480227904  1.0000
  C   C8        1.0  0.6664575463829722  0.3343847877126577  0.5442392829732299  1.0000
  C   C9        1.0  0.30894287190930203  0.6074319779976918  0.5726387461027826  1.0000
  C   C10       1.0  0.691063779066802  0.392545450539096  0.42739231486775253  1.0000
  C   C11       1.0  0.2468165600943308  0.48937077598274203  0.5971967343804394  1.0000
  C   C12       1.0  0.7531767137374957  0.5106130707832219  0.40282525317448414  1.0000
  C   C13       1.0  0.20928647531798114  0.4181907299126378  0.5050437826006304  1.0000
  C   C14       1.0  0.7906814486446051  0.5818361446538417  0.4949634084057593  1.0000
  C   C15       1.0  0.15691131884307913  0.29272440815456946  0.5222096537766278  1.0000
  C   C16       1.0  0.8430288487769176  0.7073106681344825  0.47780840215153836  1.0000
  C   C17       1.0  0.1314730579880603  0.23220101503865465  0.4257867366612089  1.0000
  C   C18       1.0  0.8684723727904353  0.7678171296979812  0.5742236914482178  1.0000
  C   C19       1.0  0.15205208890876074  0.29602770282725993  0.31299065925364294  1.0000
  C   C20       1.0  0.8479184603706856  0.7039662551254083  0.6870315144137891  1.0000
  C   C21       1.0  0.22885113916894537  0.4746621689860646  0.38876770588618115  1.0000
  C   C22       1.0  0.771094183826328  0.5253569462373376  0.611252094905673  1.0000
  C   C23       1.0  0.2890007224773044  0.5984186462658485  0.36439190788561154  1.0000
  C   C24       1.0  0.7109677023385856  0.40160166714760953  0.6356255194092242  1.0000
  C   C25       1.0  0.8860893323069945  0.8345138018663718  0.00240516532888081  1.0000
  C   C26       1.0  0.1139093144525063  0.1654369990431235  0.9975800321430912  1.0000
  C   C27       1.0  0.8541344788665911  0.9165380496674798  0.09781488442087037  1.0000
  C   C28       1.0  0.14585965688362282  0.0834202761624496  0.9021816060046038  1.0000
  C   C29       1.0  0.7245096938722712  0.012565351910353701  0.09043899988175498  1.0000
  C   C30       1.0  0.27546572574303957  0.9874012511437728  0.9095595260100924  1.0000
  C   C31       1.0  0.9571461912644779  0.899808666085754  0.19582943737653113  1.0000
  C   C32       1.0  0.0429162803459491  0.10021351679133518  0.8041417290258651  1.0000
  C   C33       1.0  0.6972868377555416  0.0921879126528466  0.1773614015192635  1.0000
  C   C34       1.0  0.3026989348528062  0.9078107847306712  0.8226133299077675  1.0000
  C   C35       1.0  0.9298990754356496  0.976797853781797  0.2838840705057848  1.0000
  C   C36       1.0  0.07011607439725512  0.023236033425781996  0.7160833286233912  1.0000
  C   C37       1.0  0.800836460929446  0.07219733912295109  0.27535416281379105  1.0000
  C   C38       1.0  0.1991416867703819  0.9278003083536958  0.7246139621563119  1.0000
  C   C39       1.0  0.5690285143619888  0.20190881842524525  0.16334379469100924  1.0000
  C   C40       1.0  0.43094828919625167  0.7980745962972619  0.8365992915917887  1.0000
  N   N1        1.0  0.3047549302149902  0.6442373163971384  0.2499981795639599  1.0000
  N   N2        1.0  0.6952364775110026  0.3558323454529244  0.7500414440972849  1.0000
  N   N3        1.0  0.19757825236519722  0.4156094864434507  0.2943558365788662  1.0000
  N   N4        1.0  0.8023950295194451  0.5843826124333801  0.7056647690391672  1.0000
  O   O1        1.0  0.7217140827912586  0.347384478879242  0.9809975662049342  1.0000
  O   O2        1.0  0.2781552018774605  0.6527797232010641  0.018970808424335  1.0000
  O   O3        1.0  0.9477060567886612  0.6177274120078166  0.150784061712578  1.0000
  O   O4        1.0  0.05240130030045261  0.3821743013534941  0.8490837564688791  1.0000
  O   O5        1.0  0.5379040643384341  0.45587190887171386  0.13724631066997978  1.0000
  O   O6        1.0  0.4619865097969367  0.5441044075412549  0.8628520999551271  1.0000
  O   O7        1.0  0.8751404062876986  0.6031159599624161  0.9351565566224523  1.0000
  O   O8        1.0  0.12480173253916858  0.39689987550341504  0.06472920570490001  1.0000
  O   O9        1.0  0.6432910907749231  0.6758492925404411  0.07705515895003151  1.0000
  O   O10       1.0  0.35679808801346974  0.3241111838741517  0.9229820899333276  1.0000
  O   O11       1.0  0.8343835748245211  0.3506975498393601  0.18147390850587897  1.0000
  O   O12       1.0  0.1655747110262311  0.6493554001844616  0.8184657997969469  1.0000
