data_image0
_chemical_formula_structural       Dy4Ag4H32C56N8O32
_chemical_formula_sum              "Dy4 Ag4 H32 C56 N8 O32"
_cell_length_a       9.103352265806475
_cell_length_b       9.774240206488866
_cell_length_c       22.067697224037396
_cell_angle_alpha    90.00013222795741
_cell_angle_beta     90.00008148533473
_cell_angle_gamma    118.32688893135473

_space_group_name_H-M_alt    "P 1"
_space_group_IT_number       1

loop_
  _space_group_symop_operation_xyz
  'x, y, z'

loop_
  _atom_site_type_symbol
  _atom_site_label
  _atom_site_symmetry_multiplicity
  _atom_site_fract_x
  _atom_site_fract_y
  _atom_site_fract_z
  _atom_site_occupancy
  Dy  Dy1       1.0  0.38271854194321264  0.6497811999042398  0.9912062669323731  1.0000
  Dy  Dy2       1.0  0.11728636761800716  0.35022294952563027  0.4912095987339526  1.0000
  Dy  Dy3       1.0  0.6172832646483286  0.35021787926825  0.0087910365470947  1.0000
  Dy  Dy4       1.0  0.8827229678669397  0.6497889227563293  0.5087945020198745  1.0000
  Ag  Ag1       1.0  0.9771983611330838  0.3069703381789638  0.1498815096578525  1.0000
  Ag  Ag2       1.0  0.5227956199493066  0.6930329597409469  0.6498811829942781  1.0000
  Ag  Ag3       1.0  0.02279338948436312  0.6930240332582259  0.8501203253266922  1.0000
  Ag  Ag4       1.0  0.4772014540413139  0.3069741879800033  0.3501201988472999  1.0000
  H   H1        1.0  0.07025583240479709  0.7662270801931188  0.0684040141774176  1.0000
  H   H2        1.0  0.42974081285635884  0.23377450697464747  0.5683998326785584  1.0000
  H   H3        1.0  0.929737605156639  0.2337684618909464  0.9315991802613439  1.0000
  H   H4        1.0  0.5702493164372271  0.7662210098846742  0.4315956581914975  1.0000
  H   H5        1.0  0.2861494245164737  0.977414929364855  0.1327017865215367  1.0000
  H   H6        1.0  0.21384785915708454  0.0225918500022004  0.6326981694461864  1.0000
  H   H7        1.0  0.7138463498107868  0.0225852616888602  0.8673000484671506  1.0000
  H   H8        1.0  0.7861435041636541  0.9774083074375924  0.3672977745776437  1.0000
  H   H9        1.0  0.23700802632540532  0.1970248192749011  0.1649929175925635  1.0000
  H   H10       1.0  0.2629811429853036  0.8029787042282808  0.6649901249312364  1.0000
  H   H11       1.0  0.7629810658835724  0.8029730053017445  0.8350080110908777  1.0000
  H   H12       1.0  0.7370069120997513  0.1970214280222891  0.3350062722426514  1.0000
  H   H13       1.0  0.795807551858239  0.024140248529306498  0.06653867889920662  1.0000
  H   H14       1.0  0.7041901172314056  0.9758600410033365  0.5665401063804012  1.0000
  H   H15       1.0  0.20418750698596003  0.9758541480872437  0.9334604371800593  1.0000
  H   H16       1.0  0.29580228321146507  0.024137808760571  0.4334599160019366  1.0000
  H   H17       1.0  0.011245229909462865  0.34642862891142573  0.2840647080703746  1.0000
  H   H18       1.0  0.48876141973564563  0.6535760576312343  0.7840623486104903  1.0000
  H   H19       1.0  0.9887639086561677  0.6535762950983895  0.7159393926798572  1.0000
  H   H20       1.0  0.5112438263872078  0.34642767892967197  0.2159385800806959  1.0000
  H   H21       1.0  0.9023302220733029  0.7072588043740353  0.3431959264372964  1.0000
  H   H22       1.0  0.5976639183873614  0.29273690446663647  0.8431879851536478  1.0000
  H   H23       1.0  0.09767891649411103  0.2927461196377479  0.656808627463974  1.0000
  H   H24       1.0  0.40232945349855953  0.7072563214872505  0.1568061462630652  1.0000
  H   H25       1.0  0.858902194149529  0.7513603507123889  0.23255548398179118  1.0000
  H   H26       1.0  0.6410876997847978  0.2486320531954078  0.7325466168929111  1.0000
  H   H27       1.0  0.14109954683261353  0.2486364124029308  0.7674495230642008  1.0000
  H   H28       1.0  0.3589063219283305  0.7513646510871653  0.2674461550726406  1.0000
  H   H29       1.0  0.883927068022814  0.5790216782959092  0.1537315922501179  1.0000
  H   H30       1.0  0.616061882580695  0.4209781412017152  0.653723792494219  1.0000
  H   H31       1.0  0.11606682246617347  0.420970393866405  0.8462752273953457  1.0000
  H   H32       1.0  0.38393746251453825  0.579031339374481  0.3462707920835726  1.0000
  C   C1        1.0  0.7803031365220575  0.7528021414084023  0.025545189891367705  1.0000
  C   C2        1.0  0.719704586869291  0.24719439671936527  0.5255467898954862  1.0000
  C   C3        1.0  0.21970281850261847  0.24718770699935533  0.9744543793398251  1.0000
  C   C4        1.0  0.28029332730805845  0.7528034950357922  0.4744545919416154  1.0000
  C   C5        1.0  0.9158710491930293  0.8789448283127967  0.0628799551641066  1.0000
  C   C6        1.0  0.5841293150732696  0.12105429228871152  0.5628786281770815  1.0000
  C   C7        1.0  0.08412614951019753  0.12104726901506523  0.9371209735187875  1.0000
  C   C8        1.0  0.415863085362453  0.8789435574673021  0.43711958160108816  1.0000
  C   C9        1.0  0.05476003670538191  0.8654815698254694  0.0823003900955115  1.0000
  C   C10       1.0  0.4452311387992225  0.13451778030921702  0.5822983822442325  1.0000
  C   C11       1.0  0.9452306111698191  0.1345127932186045  0.9177023511907904  1.0000
  C   C12       1.0  0.5547567850045  0.8654777197579477  0.41769756177621536  1.0000
  C   C13       1.0  0.17324581569124584  0.980950135275755  0.118894242965311  1.0000
  C   C14       1.0  0.3267518119926862  0.0190530538942326  0.6188906884779968  1.0000
  C   C15       1.0  0.8267482060558323  0.0190465690443133  0.8811071388700427  1.0000
  C   C16       1.0  0.6732401355137014  0.9809482657815565  0.3811034429424254  1.0000
  C   C17       1.0  0.147842367422804  0.1047999976796135  0.1361298419492698  1.0000
  C   C18       1.0  0.35214605568426555  0.8952044282798399  0.6361267424369217  1.0000
  C   C19       1.0  0.8521484117265816  0.8951989975399715  0.863871539886304  1.0000
  C   C20       1.0  0.6478392753561195  0.10479684102342193  0.3638696547367459  1.0000
  C   C21       1.0  0.9014030629751487  0.0088521897005762  0.0811206494535313  1.0000
  C   C22       1.0  0.5985936183779048  0.9911482184376583  0.5811215774603582  1.0000
  C   C23       1.0  0.09859030893221658  0.9911410362769931  0.9188789197756932  1.0000
  C   C24       1.0  0.40139936625240585  0.0088507935642141  0.4188770854696173  1.0000
  C   C25       1.0  0.9751417309419849  0.4353720949373425  0.2737336453539427  1.0000
  C   C26       1.0  0.5248586750674846  0.564630007581826  0.7737304700856669  1.0000
  C   C27       1.0  0.02485728599191377  0.5646258052267187  0.7262704553897449  1.0000
  C   C28       1.0  0.47514040748831826  0.43537020865321807  0.2262690991487943  1.0000
  C   C29       1.0  0.9591008099098558  0.5224286753268998  0.3207730289830479  1.0000
  C   C30       1.0  0.5408971117742924  0.47757034175106144  0.8207670554566847  1.0000
  C   C31       1.0  0.040904436229077086  0.4775750612517696  0.67923197806752  1.0000
  C   C32       1.0  0.4591024236786723  0.5224264045286873  0.1792284354167535  1.0000
  C   C33       1.0  0.9157371527019862  0.6383839147803059  0.3067077201749555  1.0000
  C   C34       1.0  0.5842566343322347  0.36160916017192335  0.8067007475495346  1.0000
  C   C35       1.0  0.08426575666575087  0.3616151728227949  0.6932972868725571  1.0000
  C   C36       1.0  0.41573946160014696  0.6383829287312467  0.1932938370184374  1.0000
  C   C37       1.0  0.89144205863618  0.6617250557566835  0.2459270287876549  1.0000
  C   C38       1.0  0.6085530672290957  0.3382732926392222  0.7459209529150144  1.0000
  C   C39       1.0  0.10855974798037245  0.3382740234434323  0.7540766188064083  1.0000
  C   C40       1.0  0.39144491256121955  0.6617269151770488  0.2540736316576542  1.0000
  C   C41       1.0  0.9065851837601356  0.567536577045999  0.20149597865982116  1.0000
  C   C42       1.0  0.5934102415077689  0.4324648627109156  0.7014918025398842  1.0000
  C   C43       1.0  0.09341558575215468  0.43246480984974073  0.7985081220861544  1.0000
  C   C44       1.0  0.4065872853818036  0.5675388150567073  0.2985059540917163  1.0000
  C   C45       1.0  0.9891000323888121  0.48843874195355136  0.3846446598743469  1.0000
  C   C46       1.0  0.5109066964803191  0.5115620524536411  0.8846391565670758  1.0000
  C   C47       1.0  0.01091461991307343  0.5115662240494885  0.6153612534816943  1.0000
  C   C48       1.0  0.4890943946353019  0.4884312322895781  0.1153572406071461  1.0000
  C   C49       1.0  0.4918101125077856  0.9928324141189576  0.035092213837757  1.0000
  C   C50       1.0  0.0081979473423388  0.0071724452570905  0.5350970703401288  1.0000
  C   C51       1.0  0.5081956521448561  0.007170168569466302  0.9649028238894459  1.0000
  C   C52       1.0  0.9918118410558561  0.9928359570873295  0.4649070304120713  1.0000
  C   C53       1.0  0.0030505602401191927  0.48048880155154444  0.0336589457981518  1.0000
  C   C54       1.0  0.49695755393059937  0.5195183614156492  0.5336600796784836  1.0000
  C   C55       1.0  0.9969511150861691  0.5195056454552969  0.9663419828872577  1.0000
  C   C56       1.0  0.5030570392770173  0.4805039710475187  0.4663408490249239  1.0000
  N   N1        1.0  0.013990483277112314  0.1189339051206204  0.11789773087707539  1.0000
  N   N2        1.0  0.4860016228271888  0.8810692333948467  0.6178965080354075  1.0000
  N   N3        1.0  0.9860002302253505  0.8810627740003483  0.8821018383531296  1.0000
  N   N4        1.0  0.5139887033964285  0.11893323174845699  0.38210170174450303  1.0000
  N   N5        1.0  0.9479316880491596  0.4555453191061929  0.21522912918317158  1.0000
  N   N6        1.0  0.5520661166704671  0.5444585731517722  0.7152259493013489  1.0000
  N   N7        1.0  0.05206687596433581  0.5444560509875205  0.7847731589579824  1.0000
  N   N8        1.0  0.4479347840999283  0.455547445901722  0.2847727136345171  1.0000
  O   O1        1.0  0.6765922298162793  0.7848551775540146  0.9990559042895342  1.0000
  O   O2        1.0  0.82340690114669  0.2151384440915507  0.49906057867850967  1.0000
  O   O3        1.0  0.3234082114614125  0.2151346288486806  0.0009391334295897999  1.0000
  O   O4        1.0  0.17659289689395766  0.7848675665826336  0.5009421626164112  1.0000
  O   O5        1.0  0.7802244651143724  0.6231284514490981  0.0252850150688673  1.0000
  O   O6        1.0  0.719786761382224  0.3768750578765463  0.5252867473259144  1.0000
  O   O7        1.0  0.2197872661967182  0.3768707033048884  0.9747141010177173  1.0000
  O   O8        1.0  0.28021848474598704  0.6231286786902784  0.4747155408184014  1.0000
  O   O9        1.0  0.04830465957806507  0.3953236493105053  0.3920547156170572  1.0000
  O   O10       1.0  0.45170264489725304  0.6046750295319612  0.8920545503336186  1.0000
  O   O11       1.0  0.9517138851272903  0.6046825040980224  0.6079444004750982  1.0000
  O   O12       1.0  0.548295006719222  0.39531359785836173  0.1079463783476413  1.0000
  O   O13       1.0  0.9535195308686608  0.555097828650261  0.42675102513058505  1.0000
  O   O14       1.0  0.5464932407544297  0.4449103227526764  0.9267463810324087  1.0000
  O   O15       1.0  0.04650193482212471  0.4449141360014012  0.5732535287778973  1.0000
  O   O16       1.0  0.4535094716618244  0.5550818165427599  0.0732504692927449  1.0000
  O   O17       1.0  0.8654124082972032  0.3831746417783109  0.057593227593415  1.0000
  O   O18       1.0  0.6346005039489383  0.6168407377744745  0.5575906230347414  1.0000
  O   O19       1.0  0.13458790830362236  0.6168302150569432  0.9424113263052405  1.0000
  O   O20       1.0  0.3654185658710177  0.38318394435582803  0.44240758676492925  1.0000
  O   O21       1.0  0.14232921176491706  0.5463049785484061  0.06005506839522211  1.0000
  O   O22       1.0  0.3576726844692928  0.4536896296301974  0.560054240906382  1.0000
  O   O23       1.0  0.857669345678062  0.4536767089668389  0.9399458602827693  1.0000
  O   O24       1.0  0.6423373008357062  0.5463257209725539  0.43994668779211576  1.0000
  O   O25       1.0  0.4250039775395963  0.8561983166743092  0.056894580706867294  1.0000
  O   O26       1.0  0.0750038013580294  0.1438102025324994  0.556899615676933  1.0000
  O   O27       1.0  0.575003539691437  0.14380775274579352  0.9431004570226236  1.0000
  O   O28       1.0  0.9250065712383276  0.8561993620617231  0.4431058445291498  1.0000
  O   O29       1.0  0.5460875228216439  0.1179594387422611  0.0647423627877259  1.0000
  O   O30       1.0  0.9539256361887068  0.8820432688027395  0.5647456536378357  1.0000
  O   O31       1.0  0.4539220029870776  0.8820396992057482  0.9352540343919458  1.0000
  O   O32       1.0  0.04609011885007422  0.11796170558749712  0.4352579939633188  1.0000
