data_image0
_chemical_formula_structural       Cd4H20C20N12O20
_chemical_formula_sum              "Cd4 H20 C20 N12 O20"
_cell_length_a       7.19736506598436
_cell_length_b       10.013937660811568
_cell_length_c       11.630468988021747
_cell_angle_alpha    89.99997084705133
_cell_angle_beta     90.00021854640543
_cell_angle_gamma    106.7227327191658

_space_group_name_H-M_alt    "P 1"
_space_group_IT_number       1

loop_
  _space_group_symop_operation_xyz
  'x, y, z'

loop_
  _atom_site_type_symbol
  _atom_site_label
  _atom_site_symmetry_multiplicity
  _atom_site_fract_x
  _atom_site_fract_y
  _atom_site_fract_z
  _atom_site_occupancy
  Cd  Cd1       1.0  0.3500175851269987  0.8733110953299601  0.38177416082706356  1.0000
  Cd  Cd2       1.0  0.14998155912368108  0.6266893619319448  0.8817735934509154  1.0000
  Cd  Cd3       1.0  0.6499816950066163  0.12668868139299155  0.6182260229996358  1.0000
  Cd  Cd4       1.0  0.850018138963236  0.3733114574968114  0.11822659037603955  1.0000
  H   H1        1.0  0.737808491215958  0.49277400478003847  0.6518609741196996  1.0000
  H   H2        1.0  0.7621905891076893  0.0072272026814986  0.15185977786621407  1.0000
  H   H3        1.0  0.26219217816073837  0.5072257715577776  0.34813920970863405  1.0000
  H   H4        1.0  0.23780910897644944  0.9927736167469302  0.8481395461501858  1.0000
  H   H5        1.0  0.6541715535196816  0.5067219095700678  0.442350834330959  1.0000
  H   H6        1.0  0.8458279649252916  0.9932766687488551  0.9423505655535533  1.0000
  H   H7        1.0  0.3458273086634237  0.4932768244474134  0.5576502093060325  1.0000
  H   H8        1.0  0.15417270444861944  0.006723107588634001  0.05764875846422509  1.0000
  H   H9        1.0  0.8390876314950334  0.6082383109359739  0.3473049915887357  1.0000
  H   H10       1.0  0.6609121078206783  0.8917622807887325  0.8473043318469917  1.0000
  H   H11       1.0  0.1609130378816559  0.3917614654018422  0.652695192239598  1.0000
  H   H12       1.0  0.3390875902634606  0.10823853863968938  0.15269499216941537  1.0000
  H   H13       1.0  0.9991420888615822  0.9407351825914959  0.38441109059819917  1.0000
  H   H14       1.0  0.5008578905669836  0.5592654372446192  0.8844110613050444  1.0000
  H   H15       1.0  0.0008571912720398919  0.05926459413146289  0.6155890932285002  1.0000
  H   H16       1.0  0.49914319676300783  0.44073538179899435  0.11558912252354497  1.0000
  H   H17       1.0  0.1675773229039592  0.0658642077431892  0.43366111317691747  1.0000
  H   H18       1.0  0.33242234486438355  0.4341360099252328  0.9336608391366779  1.0000
  H   H19       1.0  0.8324233464727298  0.9341355685946268  0.5663390706514164  1.0000
  H   H20       1.0  0.6675773532197556  0.5658648095031965  0.0663384848797222  1.0000
  C   C1        1.0  0.14852763830761254  0.7211348958079355  0.6212544116471574  1.0000
  C   C2        1.0  0.35147315196277873  0.7788632775202302  0.12125416474177797  1.0000
  C   C3        1.0  0.8514726131185597  0.27886383782441015  0.3787466319914685  1.0000
  C   C4        1.0  0.6485243209744737  0.22113545688206676  0.8787460190830172  1.0000
  C   C5        1.0  0.3416810393210453  0.8119142573526401  0.657968529953038  1.0000
  C   C6        1.0  0.1583209597815056  0.6880829006950577  0.15795840995161828  1.0000
  C   C7        1.0  0.6583192121023489  0.1880844762793785  0.3420316538750398  1.0000
  C   C8        1.0  0.8416805454962175  0.3119189610536992  0.842040054256131  1.0000
  C   C9        1.0  0.8693956380917952  0.5735520239149494  0.6288603191555564  1.0000
  C   C10       1.0  0.6306058841207615  0.9264494442536486  0.12885862563589254  1.0000
  C   C11       1.0  0.13060364204181948  0.42644775280800923  0.37113986467113586  1.0000
  C   C12       1.0  0.3693938139633772  0.07355137517478029  0.8711406983805074  1.0000
  C   C13       1.0  0.7600971748792774  0.6083613938801733  0.42825864161449073  1.0000
  C   C14       1.0  0.7399026703288029  0.8916382164683863  0.9282581682645556  1.0000
  C   C15       1.0  0.2399016873010424  0.391637340136981  0.5717415422119456  1.0000
  C   C16       1.0  0.260097999045108  0.10836155986910971  0.07174115575323009  1.0000
  C   C17       1.0  0.6604469169733705  0.7247689579330155  0.42144793872603253  1.0000
  C   C18       1.0  0.8395514949237893  0.7752306476414076  0.9214486121434078  1.0000
  C   C19       1.0  0.33955236316302984  0.27523081879026273  0.578553104911215  1.0000
  C   C20       1.0  0.1604482031631278  0.22477017178734826  0.07855157168354757  1.0000
  N   N1        1.0  0.07576673744620169  0.7256360323096872  0.5167503704898307  1.0000
  N   N2        1.0  0.4242333765896475  0.7743620618477819  0.016751157041731794  1.0000
  N   N3        1.0  0.9242335139744144  0.27436270132200485  0.4832489535276848  1.0000
  N   N4        1.0  0.5757677107375657  0.2256387571955045  0.9832481669763095  1.0000
  N   N5        1.0  0.8985383795369232  0.6310722042598513  0.5224991955767492  1.0000
  N   N6        1.0  0.6014612005662343  0.868926055213997  0.022499178567812795  1.0000
  N   N7        1.0  0.10146187188647099  0.3689265293721746  0.47750098825132875  1.0000
  N   N8        1.0  0.39853946881046204  0.13107372112381907  0.977501005260521  1.0000
  N   N9        1.0  0.026676586142428984  0.6280666281986668  0.6925523593512322  1.0000
  N   N10       1.0  0.4733250834485645  0.8719326418502433  0.1925532182180021  1.0000
  N   N11       1.0  0.9733250545212612  0.3719321050478896  0.3074469646679319  1.0000
  N   N12       1.0  0.526676003881427  0.12806817719336996  0.8074469656105944  1.0000
  O   O1        1.0  0.4778569543081943  0.6847835620032754  0.40579488111375633  1.0000
  O   O2        1.0  0.02214192742702171  0.8152158707508406  0.905794787946469  1.0000
  O   O3        1.0  0.5221423258254204  0.3152162147196761  0.5942053027129361  1.0000
  O   O4        1.0  0.9778573527010367  0.1847839059714644  0.0942036762591201  1.0000
  O   O5        1.0  0.7630859667125877  0.8502440938334459  0.4296961944816644  1.0000
  O   O6        1.0  0.7369138877981102  0.6497555176042268  0.9296958218946113  1.0000
  O   O7        1.0  0.23691331342381264  0.14975568288983251  0.5703048491555904  1.0000
  O   O8        1.0  0.2630853923355048  0.3502442591187318  0.070304361932088  1.0000
  O   O9        1.0  0.3962954257500543  0.794838592233262  0.7581846772694405  1.0000
  O   O10       1.0  0.10370375469035759  0.7051638568127458  0.258190757218962  1.0000
  O   O11       1.0  0.6037056615799372  0.20516222681035154  0.24181550655915623  1.0000
  O   O12       1.0  0.8962969146863317  0.29483591952507027  0.7418094266093715  1.0000
  O   O13       1.0  0.13081694944845176  0.0030777382711093997  0.3664324964854443  1.0000
  O   O14       1.0  0.36918228328869424  0.4969224284656875  0.866432281176003  1.0000
  O   O15       1.0  0.8691823306851705  0.9969220384518495  0.633567687341248  1.0000
  O   O16       1.0  0.6308183860880022  0.5030773478721213  0.13356790265233087  1.0000
  O   O17       1.0  0.433139895859462  0.9013139603995414  0.5840550035098315  1.0000
  O   O18       1.0  0.06686371476457952  0.5986883551862191  0.084058464576529  1.0000
  O   O19       1.0  0.5668607735172274  0.09868581593827493  0.4159451803185091  1.0000
  O   O20       1.0  0.9331369546121098  0.40131142115159685  0.9159417192518047  1.0000
