data_image0
_chemical_formula_structural       K4H44C24N16O20
_chemical_formula_sum              "K4 H44 C24 N16 O20"
_cell_length_a       7.4395226779900145
_cell_length_b       10.042906841228238
_cell_length_c       15.750974916554902
_cell_angle_alpha    108.58858363317593
_cell_angle_beta     103.66073190591128
_cell_angle_gamma    90.00307494494625

_space_group_name_H-M_alt    "P 1"
_space_group_IT_number       1

loop_
  _space_group_symop_operation_xyz
  'x, y, z'

loop_
  _atom_site_type_symbol
  _atom_site_label
  _atom_site_symmetry_multiplicity
  _atom_site_fract_x
  _atom_site_fract_y
  _atom_site_fract_z
  _atom_site_occupancy
  K   K1        1.0  0.7685911696220773  0.7688134304173319  0.5375812463524452  1.0000
  K   K2        1.0  0.231338079882633  0.23136727552630984  0.46237761153641077  1.0000
  K   K3        1.0  0.2609369104417851  0.7610842222806935  0.5223929961136021  1.0000
  K   K4        1.0  0.739142792946815  0.23878129849430965  0.4775964340732627  1.0000
  H   H1        1.0  0.5657411821537437  0.32714512912315297  0.7209953987510216  1.0000
  H   H2        1.0  0.1551438917636148  0.39387636997889797  0.7210667386400971  1.0000
  H   H3        1.0  0.4339719851089896  0.6061802413424787  0.278979330810337  1.0000
  H   H4        1.0  0.8451590335456916  0.6728687123059983  0.2789823743987013  1.0000
  H   H5        1.0  0.7562466029542563  0.36275778271264864  0.9878207603156638  1.0000
  H   H6        1.0  0.2314617742194258  0.6249565519868556  0.987894543587437  1.0000
  H   H7        1.0  0.2436960444956995  0.37502554769342566  0.0121290069021782  1.0000
  H   H8        1.0  0.7684727382898658  0.6371324069241382  0.012122604460081723  1.0000
  H   H9        1.0  0.41130643557836066  0.079619443797931  0.7216982880699588  1.0000
  H   H10       1.0  0.31017114303523396  0.6420647607665515  0.721764029259738  1.0000
  H   H11       1.0  0.5884622963863465  0.3580375032176661  0.2782888906415407  1.0000
  H   H12       1.0  0.6901389818858021  0.9203634874414564  0.2783397030085411  1.0000
  H   H13       1.0  0.8359422289245089  0.08573299005399089  0.7611834165534572  1.0000
  H   H14       1.0  0.9251244602246304  0.6755110228708361  0.7613764252899669  1.0000
  H   H15       1.0  0.16380455246418532  0.3243609211839101  0.2386342069451857  1.0000
  H   H16       1.0  0.07514058266536952  0.9143411645597868  0.23870180480426478  1.0000
  H   H17       1.0  0.6844391978612735  0.9307708086881877  0.7084484743289536  1.0000
  H   H18       1.0  0.023833264925663365  0.7777396054111276  0.7086117608585523  1.0000
  H   H19       1.0  0.3154171914364881  0.22222013620891085  0.29141267741272253  1.0000
  H   H20       1.0  0.9763495252353849  0.0692893308986555  0.29144859174599697  1.0000
  H   H21       1.0  0.6140047412237166  0.9328473487427404  0.8452914603193519  1.0000
  H   H22       1.0  0.23147745949494694  0.9123573374436377  0.8454066181951845  1.0000
  H   H23       1.0  0.38613599171006296  0.0876040665676356  0.15460773098106978  1.0000
  H   H24       1.0  0.7685965488121341  0.06698658689828112  0.1546909724999139  1.0000
  H   H25       1.0  0.8412662613620087  0.014909869231217999  0.888779611507651  1.0000
  H   H26       1.0  0.047598849279154344  0.8739920293616305  0.8889244194579005  1.0000
  H   H27       1.0  0.1588101491727585  0.1259949818350421  0.11106982645925707  1.0000
  H   H28       1.0  0.9524245023601311  0.9851483092580299  0.11111504291605463  1.0000
  H   H29       1.0  0.6562554109646257  0.1503161527435495  0.9861256538067379  1.0000
  H   H30       1.0  0.3298482043331746  0.8356776039899786  0.9862378094520778  1.0000
  H   H31       1.0  0.34382830225686684  0.1643452733166271  0.0138055626118998  1.0000
  H   H32       1.0  0.6701266774556983  0.8495838397745742  0.013884716149213676  1.0000
  H   H33       1.0  0.47273433582478225  0.14940243021722927  0.8910169656256597  1.0000
  H   H34       1.0  0.418206373206317  0.7414316651477649  0.8911230923842552  1.0000
  H   H35       1.0  0.5272668103603807  0.2585948099878124  0.1089475082864766  1.0000
  H   H36       1.0  0.5819042697871666  0.8503158066753118  0.10901896951883573  1.0000
  H   H37       1.0  0.5917426524522541  0.5968296088365008  0.6603103752908764  1.0000
  H   H38       1.0  0.06850353460363581  0.06346658988793759  0.6603654812517376  1.0000
  H   H39       1.0  0.40832272859307756  0.936578799614267  0.3396532535099155  1.0000
  H   H40       1.0  0.9315370182403485  0.40326187449672796  0.33966102581683794  1.0000
  H   H41       1.0  0.5223353042975489  0.5456123128303433  0.5512791092969208  1.0000
  H   H42       1.0  0.029177914519955602  0.0055321425607247005  0.5513591968405862  1.0000
  H   H43       1.0  0.4775765811367307  0.9944654978838726  0.4486786029904265  1.0000
  H   H44       1.0  0.9709509802377242  0.4543561487706641  0.4486814437254836  1.0000
  C   C1        1.0  0.5328993307501478  0.0996885771722233  0.6164637639978565  1.0000
  C   C2        1.0  0.08323186890497418  0.5169014769092826  0.6165721501582411  1.0000
  C   C3        1.0  0.46668680695711373  0.4831678636405881  0.38346752753631097  1.0000
  C   C4        1.0  0.9170343747219932  0.9003199090027749  0.38352350854383127  1.0000
  C   C5        1.0  0.5482672520098504  0.11976829198182062  0.7200630220217261  1.0000
  C   C6        1.0  0.17155284250372196  0.6003175829400363  0.720159834978851  1.0000
  C   C7        1.0  0.4514236847623536  0.39973776433026137  0.279881631108985  1.0000
  C   C8        1.0  0.8287731321247307  0.8802531315441795  0.27994612571816885  1.0000
  C   C9        1.0  0.7013495318106494  0.0376551472052782  0.7585076731157798  1.0000
  C   C10       1.0  0.057012499338355796  0.7208930583118089  0.7586588489263163  1.0000
  C   C11       1.0  0.2984922665944438  0.2790723577388405  0.2413689801466674  1.0000
  C   C12       1.0  0.9432063884674663  0.9623782245604817  0.24143233594058702  1.0000
  C   C13       1.0  0.6995008748305551  0.02772053982587151  0.853627634198574  1.0000
  C   C14       1.0  0.1541567882357455  0.8259093245095883  0.8537667895483451  1.0000
  C   C15       1.0  0.3005227289604306  0.17406172391450533  0.14625765636534283  1.0000
  C   C16       1.0  0.8459488962363224  0.9722112755554164  0.14631968684871313  1.0000
  C   C17       1.0  0.624875690613301  0.15338472363585964  0.9152959509086998  1.0000
  C   C18       1.0  0.2903485217087081  0.761806955037855  0.9154029876241693  1.0000
  C   C19       1.0  0.375131080487364  0.2381872550338286  0.0846482714095131  1.0000
  C   C20       1.0  0.7097219053452337  0.8464849056049248  0.08470800322940167  1.0000
  C   C21       1.0  0.6595770839302021  0.3471623843166327  0.8546037327292239  1.0000
  C   C22       1.0  0.19472723717140641  0.507432600417758  0.8546647054470212  1.0000
  C   C23       1.0  0.3401596912028921  0.4926100166562009  0.14536005843073949  1.0000
  C   C24       1.0  0.8054644992728016  0.6528359387387186  0.14537586280469134  1.0000
  N   N1        1.0  0.5754595077779356  0.2728119026011342  0.7674876165634146  1.0000
  N   N2        1.0  0.19183411437317943  0.49469206311003683  0.7675668953499437  1.0000
  N   N3        1.0  0.42426127386369217  0.5053704905997025  0.23247883882557116  1.0000
  N   N4        1.0  0.8085293840349622  0.7272128625574723  0.23249637248925129  1.0000
  N   N5        1.0  0.7042722510135705  0.2909810045634416  0.9226153000088431  1.0000
  N   N6        1.0  0.21809434474816672  0.631592355626303  0.9226939899487119  1.0000
  N   N7        1.0  0.2955887862264177  0.36842864897455035  0.07733957760225249  1.0000
  N   N8        1.0  0.7819710765312422  0.7089556598774464  0.07733832253200028  1.0000
  N   N9        1.0  0.7009322239684365  0.491689719273374  0.8867749938190953  1.0000
  N   N10       1.0  0.18552621424211682  0.39506274599366253  0.8868135052644986  1.0000
  N   N11       1.0  0.2988746167967378  0.6049828320576937  0.1132053756382234  1.0000
  N   N12       1.0  0.8145470548455833  0.5083056422995041  0.11320768046249435  1.0000
  N   N13       1.0  0.6904701712200634  0.5633229450449592  0.8282827687238593  1.0000
  N   N14       1.0  0.1375412365739521  0.26495161327777345  0.828305466170427  1.0000
  N   N15       1.0  0.30943811694491075  0.7350993578911869  0.17171301381361553  1.0000
  N   N16       1.0  0.8623900015127505  0.4366628078943435  0.17169242871817403  1.0000
  O   O1        1.0  0.5210143145942823  0.9736090030235119  0.5616685191198627  1.0000
  O   O2        1.0  0.0400508363583327  0.5882515024828763  0.5618299374220399  1.0000
  O   O3        1.0  0.47860279624559615  0.4118244306646446  0.438241051549312  1.0000
  O   O4        1.0  0.9603002734822113  0.026389728844513603  0.43829641335595676  1.0000
  O   O5        1.0  0.5297710652016505  0.2092445376618812  0.5933456926283398  1.0000
  O   O6        1.0  0.06353660656535001  0.3842101839657985  0.5933842757166019  1.0000
  O   O7        1.0  0.4699120684118867  0.6158418894445746  0.40662012572860107  1.0000
  O   O8        1.0  0.9365516700495816  0.7907738348812856  0.40667657318564204  1.0000
  O   O9        1.0  0.6594708982507528  0.5048467967442107  0.7407579509288595  1.0000
  O   O10       1.0  0.08105780610333822  0.23595850993689996  0.7407851097276533  1.0000
  O   O11       1.0  0.3403883476679823  0.7641276648700598  0.25923604872878764  1.0000
  O   O12       1.0  0.918809125462694  0.4951553996406445  0.25922208565044963  1.0000
  O   O13       1.0  0.7151363756998067  0.6953040406526014  0.8635206115691787  1.0000
  O   O14       1.0  0.14811874216172777  0.1681740026182723  0.8635075959107608  1.0000
  O   O15       1.0  0.28497396746974596  0.83186713938705  0.13649631342174465  1.0000
  O   O16       1.0  0.8517366482528602  0.304683115412992  0.1364540757171113  1.0000
  O   O17       1.0  0.5461489422024856  0.6309044315931303  0.60747516239784  1.0000
  O   O18       1.0  0.061233768096229775  0.9764891361133079  0.6075807801437775  1.0000
  O   O19       1.0  0.45393908069200256  0.0235129290787981  0.3924622998465921  1.0000
  O   O20       1.0  0.9388116490866026  0.3690996680210574  0.3924642079471568  1.0000
