data_image0
_chemical_formula_structural       Zn2H26C32N4O8F6
_chemical_formula_sum              "Zn2 H26 C32 N4 O8 F6"
_cell_length_a       8.381826567515034
_cell_length_b       9.77713569562419
_cell_length_c       10.769856546419492
_cell_angle_alpha    98.99898629132974
_cell_angle_beta     98.72444501018106
_cell_angle_gamma    105.40630821093141

_space_group_name_H-M_alt    "P 1"
_space_group_IT_number       1

loop_
  _space_group_symop_operation_xyz
  'x, y, z'

loop_
  _atom_site_type_symbol
  _atom_site_label
  _atom_site_symmetry_multiplicity
  _atom_site_fract_x
  _atom_site_fract_y
  _atom_site_fract_z
  _atom_site_occupancy
  Zn  Zn1       1.0  0.6767504485448868  0.4374130775338828  0.6089639734581527  1.0000
  Zn  Zn2       1.0  0.3232505840974155  0.5625866626131354  0.39103610695229213  1.0000
  H   H1        1.0  0.4506383274290399  0.4258577815534252  0.8057958885634663  1.0000
  H   H2        1.0  0.5493623259631519  0.5741408743313555  0.19420399145346326  1.0000
  H   H3        1.0  0.37564785561715297  0.6027893496062403  0.9631843387532014  1.0000
  H   H4        1.0  0.6243531770251565  0.3972103905407706  0.03681574165724299  1.0000
  H   H5        1.0  0.796607929160089  0.9351042433406463  0.9032014819367903  1.0000
  H   H6        1.0  0.20338949687253924  0.0648955131361788  0.09679630791536203  1.0000
  H   H7        1.0  0.853134401003722  0.7449149694019824  0.7507180560800252  1.0000
  H   H8        1.0  0.14686581036822585  0.25508586109124554  0.24928115199084294  1.0000
  H   H9        1.0  0.8921188735674335  0.43769299674549683  0.4101345226945412  1.0000
  H   H10       1.0  0.10788102637279447  0.5623034925369339  0.5898640288943469  1.0000
  H   H11       1.0  0.8706531036214286  0.2992422140165445  0.19421406464056187  1.0000
  H   H12       1.0  0.12934596495192344  0.700755361767861  0.8057854698907506  1.0000
  H   H13       1.0  0.4665054241803829  0.9598604266262356  0.26918713393399685  1.0000
  H   H14       1.0  0.5334899598683691  0.040140418592308394  0.7308124214095032  1.0000
  H   H15       1.0  0.504963697833631  0.11659607645837157  0.48297077240143693  1.0000
  H   H16       1.0  0.4950352978730591  0.883404754352476  0.5170301458593515  1.0000
  H   H17       1.0  0.4504582022306494  0.8456256180850159  0.0920102742528499  1.0000
  H   H18       1.0  0.5495412405445563  0.154373040039502  0.9079903883129888  1.0000
  H   H19       1.0  0.7419245348967393  0.07523492114164299  0.032918855077362266  1.0000
  H   H20       1.0  0.25807452862834884  0.9247626527206451  0.9670816070949613  1.0000
  H   H21       1.0  0.8762730930021121  0.9121521329551713  0.5434503613199767  1.0000
  H   H22       1.0  0.12372711332157135  0.08784869561593207  0.4565497743918954  1.0000
  H   H23       1.0  0.8160178150943693  0.8675760716524579  0.3733413075264736  1.0000
  H   H24       1.0  0.18398201702746766  0.1324236745785328  0.6266577001508722  1.0000
  H   H25       1.0  0.98107177801635  0.8074009564635035  0.45531308307489143  1.0000
  H   H26       1.0  0.018931223743180684  0.19260094996823798  0.5446866155736816  1.0000
  C   C1        1.0  0.5240370106694738  0.5398984674429456  0.8315955423385618  1.0000
  C   C2        1.0  0.4759640219728354  0.4601012727040724  0.16840453807188283  1.0000
  C   C3        1.0  0.48357008790625844  0.6390802006599611  0.9188372243504332  1.0000
  C   C4        1.0  0.5164301862358228  0.36091737096258214  0.0811624552729739  1.0000
  C   C5        1.0  0.5766645364796189  0.7861150750265082  0.9449560630911549  1.0000
  C   C6        1.0  0.4233349113438436  0.21388358502013455  0.055043671833679815  1.0000
  C   C7        1.0  0.7159184247931093  0.8238094431154508  0.8866552228286653  1.0000
  C   C8        1.0  0.28408020680824825  0.1761903091995194  0.11334271211558192  1.0000
  C   C9        1.0  0.7490212433539583  0.7181623398074848  0.8007970398559652  1.0000
  C   C10       1.0  0.25097737310262147  0.2818374067411256  0.19920367801130112  1.0000
  C   C11       1.0  0.8008617979981949  0.3308028128087912  0.3764067366259028  1.0000
  C   C12       1.0  0.19914044021284377  0.6691969231763579  0.6235934888766368  1.0000
  C   C13       1.0  0.7876488147666763  0.25141007633002493  0.25462938981065264  1.0000
  C   C14       1.0  0.21235025380666878  0.7485874994543876  0.74537014472066  1.0000
  C   C15       1.0  0.6616443009894368  0.11814867637131236  0.20877146762489227  1.0000
  C   C16       1.0  0.33835394631354626  0.8818499897593027  0.7912271945668437  1.0000
  C   C17       1.0  0.5636931217591012  0.0647143611999041  0.2952232388637627  1.0000
  C   C18       1.0  0.4363027043098952  0.9352843094101926  0.704776988425799  1.0000
  C   C19       1.0  0.5848063384408775  0.1507810704078452  0.4157821790628375  1.0000
  C   C20       1.0  0.4151926623140766  0.84921976232512  0.5842178115569397  1.0000
  C   C21       1.0  0.5104108053247385  0.8937002880135906  0.01891329623872902  1.0000
  C   C22       1.0  0.48958743692998746  0.106298376194907  0.981086293594011  1.0000
  C   C23       1.0  0.6238178514105357  0.051652285926294894  0.06844643421786861  1.0000
  C   C24       1.0  0.376180006545816  0.9483452920978477  0.9315538828623604  1.0000
  C   C25       1.0  0.858122930482388  0.3303712407835988  0.7774348913291506  1.0000
  C   C26       1.0  0.14187967688224745  0.6696295756195524  0.22256738984891916  1.0000
  C   C27       1.0  0.990772144812304  0.29000633132261555  0.8704793448453716  1.0000
  C   C28       1.0  0.009229272128372639  0.7099944950087432  0.12952000831759142  1.0000
  C   C29       1.0  0.7286864027264172  0.6921897745875257  0.470299749702754  1.0000
  C   C30       1.0  0.27131216105654943  0.30781323467600435  0.5296986413299579  1.0000
  C   C31       1.0  0.8589955491670908  0.8274963695083102  0.45789571307425814  1.0000
  C   C32       1.0  0.14100744754416886  0.17250553500131358  0.5421049132153187  1.0000
  N   N1        1.0  0.6520688114840568  0.5790359687443143  0.770226900616713  1.0000
  N   N2        1.0  0.3479322211582526  0.4209637714026968  0.22977317979373882  1.0000
  N   N3        1.0  0.6967191503136617  0.28410418713297486  0.45472862353447857  1.0000
  N   N4        1.0  0.3032790919410644  0.7158944770755227  0.5452709662982614  1.0000
  O   O1        1.0  0.9145084855295946  0.4284849356156286  0.7176427529971577  1.0000
  O   O2        1.0  0.08549254711270748  0.5715148045313825  0.28235732741329406  1.0000
  O   O3        1.0  0.7071859334774899  0.261624761133639  0.7719741169433905  1.0000
  O   O4        1.0  0.2928135042494517  0.7383738950687615  0.22802747326345957  1.0000
  O   O5        1.0  0.7838681018839891  0.6081339993349532  0.5328043492057902  1.0000
  O   O6        1.0  0.21613691156985473  0.39186680682236386  0.46719914979747307  1.0000
  O   O7        1.0  0.575925634864518  0.6753212944893928  0.42063952355593404  1.0000
  O   O8        1.0  0.42407742461688974  0.3246773511495533  0.5793615742861888  1.0000
  F   F1        1.0  0.9753954669575576  0.1446841985711558  0.8395067291184688  1.0000
  F   F2        1.0  0.024606319136715578  0.8553177081782053  0.16049467972001713  1.0000
  F   F3        1.0  0.9659726484696023  0.3177661527835625  0.9936958036796855  1.0000
  F   F4        1.0  0.03403072749177476  0.6822368359882914  0.006305023003413601  1.0000
  F   F5        1.0  0.15368837200563948  0.36263970883685914  0.8721953091888183  1.0000
  F   F6        1.0  0.8463146348021482  0.6373621995169927  0.12780346181874344  1.0000
