data_image0
_chemical_formula_structural       Gd4H36C24O36
_chemical_formula_sum              "Gd4 H36 C24 O36"
_cell_length_a       6.047330548673202
_cell_length_b       9.525533924022133
_cell_length_c       16.773427320146656
_cell_angle_alpha    89.99984512272034
_cell_angle_beta     94.05861335312257
_cell_angle_gamma    90.00019959412893

_space_group_name_H-M_alt    "P 1"
_space_group_IT_number       1

loop_
  _space_group_symop_operation_xyz
  'x, y, z'

loop_
  _atom_site_type_symbol
  _atom_site_label
  _atom_site_symmetry_multiplicity
  _atom_site_fract_x
  _atom_site_fract_y
  _atom_site_fract_z
  _atom_site_occupancy
  Gd  Gd1       1.0  0.1318929826796023  0.8113382455503243  0.06251968619389457  1.0000
  Gd  Gd2       1.0  0.36810580845985896  0.3113394062532607  0.43748101522609767  1.0000
  Gd  Gd3       1.0  0.8681079055867685  0.18866219452809224  0.9374815401318128  1.0000
  Gd  Gd4       1.0  0.6318883686540103  0.6886599840123824  0.5625182903397102  1.0000
  H   H1        1.0  0.7129777619651917  0.9092370698136282  0.8461276919920023  1.0000
  H   H2        1.0  0.7870214631565986  0.40923833262989723  0.6538748409332342  1.0000
  H   H3        1.0  0.28702478386416896  0.09076442007645372  0.1538735669303435  1.0000
  H   H4        1.0  0.2129761099920628  0.5907631572549549  0.3461263201969586  1.0000
  H   H5        1.0  0.3106907307226551  0.5479116159430221  0.11468197397105938  1.0000
  H   H6        1.0  0.1893216219062097  0.04791262901456151  0.3853199927287249  1.0000
  H   H7        1.0  0.6893134456890663  0.45208672452041293  0.8853187207605372  1.0000
  H   H8        1.0  0.8106792124209504  0.9520878110665979  0.614680040016239  1.0000
  H   H9        1.0  0.18754830814222603  0.47634611723737674  0.03851846640938559  1.0000
  H   H10       1.0  0.31245640320140206  0.9763434819390114  0.46148388820952846  1.0000
  H   H11       1.0  0.8124525531545429  0.5236543228424113  0.9614821631259503  1.0000
  H   H12       1.0  0.6875444041534068  0.0236559083335948  0.538515547745817  1.0000
  H   H13       1.0  0.8247987240691188  0.7206176655188303  0.9223698630257786  1.0000
  H   H14       1.0  0.6752044291560749  0.22061694091149772  0.5776318427015497  1.0000
  H   H15       1.0  0.17520545235086618  0.2793838243743636  0.07763083170357987  1.0000
  H   H16       1.0  0.3247963782014907  0.7793834991710327  0.42236759325304957  1.0000
  H   H17       1.0  0.6905406618741807  0.7261112264130177  0.004252838036471502  1.0000
  H   H18       1.0  0.8094610269260727  0.2261140848797112  0.4957474894504726  1.0000
  H   H19       1.0  0.30946348756793896  0.2738871140517817  0.9957472599047604  1.0000
  H   H20       1.0  0.1905364383414181  0.7738863552007018  0.5042512845189859  1.0000
  H   H21       1.0  0.1431913740645925  0.9544907464828755  0.7840899489352251  1.0000
  H   H22       1.0  0.35680803162434666  0.45449712055140884  0.7159124832436345  1.0000
  H   H23       1.0  0.8568128562808112  0.04550549435797541  0.21591193937860703  1.0000
  H   H24       1.0  0.643194325420552  0.5455054191581753  0.2840845981453767  1.0000
  H   H25       1.0  0.36679423986893767  0.8319655642408819  0.7892929373460758  1.0000
  H   H26       1.0  0.1332061798715571  0.33197042238249713  0.7107097019040081  1.0000
  H   H27       1.0  0.6332132246963981  0.16803382603732336  0.21070722578917153  1.0000
  H   H28       1.0  0.8667962580849107  0.6680331671328973  0.28928916985535835  1.0000
  H   H29       1.0  0.5696107558121497  0.003939951870151501  0.7077778567061017  1.0000
  H   H30       1.0  0.9303913133763757  0.5039467673992705  0.792225351140182  1.0000
  H   H31       1.0  0.4303884748939808  0.9960604882065238  0.2922233370222216  1.0000
  H   H32       1.0  0.0696128360767645  0.49605577230520487  0.20777474679805855  1.0000
  H   H33       1.0  0.3464170279004506  0.12175778017639521  0.7054354257334976  1.0000
  H   H34       1.0  0.1535788648374918  0.6217671269263576  0.7945650604877201  1.0000
  H   H35       1.0  0.6535822297725317  0.8782416100889919  0.2945663647859432  1.0000
  H   H36       1.0  0.8464218885836202  0.3782343629688256  0.2054331818853967  1.0000
  C   C1        1.0  0.2259339997663687  0.8749275685033168  0.9012062173696049  1.0000
  C   C2        1.0  0.2740648532081309  0.3749343102099731  0.5987933441531013  1.0000
  C   C3        1.0  0.7740750953813348  0.12506867234824168  0.09879338157490027  1.0000
  C   C4        1.0  0.7259308735985927  0.6250692793025651  0.40120360684562667  1.0000
  C   C5        1.0  0.2927757996763845  0.9202271306348638  0.8198224066012968  1.0000
  C   C6        1.0  0.20722337211697808  0.4202322943000001  0.6801788807882116  1.0000
  C   C7        1.0  0.7072300342928061  0.0797701600203879  0.1801783207284373  1.0000
  C   C8        1.0  0.7927757507162597  0.5797702454019887  0.31981992577713914  1.0000
  C   C9        1.0  0.35759335358798694  0.16266639269001365  0.8729299640312502  1.0000
  C   C10       1.0  0.142406123045177  0.6626691516146296  0.6270717227173391  1.0000
  C   C11       1.0  0.6424075616424717  0.8373319477671971  0.12707185908632104  1.0000
  C   C12       1.0  0.8575980533775719  0.33733338808848157  0.37292897201127306  1.0000
  C   C13       1.0  0.4566236763273109  0.0443551369521771  0.8243355950881293  1.0000
  C   C14       1.0  0.043368548693429404  0.5443585005848349  0.6756661297427299  1.0000
  C   C15       1.0  0.5433771579943426  0.9556432035091406  0.1756644376583338  1.0000
  C   C16       1.0  0.95662728598343  0.45564193949247317  0.3243332084197164  1.0000
  C   C17       1.0  0.501161198149127  0.09279361332863799  0.7399444605876652  1.0000
  C   C18       1.0  0.9988378607578027  0.5927986302251398  0.7600549747975477  1.0000
  C   C19       1.0  0.4988412667659148  0.907205776945709  0.2600550079650645  1.0000
  C   C20       1.0  0.001164604162752901  0.4072028596690488  0.23994449375368987  1.0000
  C   C21       1.0  0.6565407646794412  0.21781040056319514  0.7388488793200023  1.0000
  C   C22       1.0  0.8434540050978682  0.7178119220339526  0.7611508770451749  1.0000
  C   C23       1.0  0.34345838511789145  0.7821900395175876  0.2611505240372125  1.0000
  C   C24       1.0  0.15654685619890074  0.2821885180458352  0.23884975249016085  1.0000
  O   O1        1.0  0.2682924162611329  0.753239886497525  0.9274304612791722  1.0000
  O   O2        1.0  0.23169761768180314  0.2532456084201371  0.5725714976990017  1.0000
  O   O3        1.0  0.7317151561688319  0.24675425472560164  0.07257208902129968  1.0000
  O   O4        1.0  0.7682948479436646  0.7467579810861765  0.42742658168569386  1.0000
  O   O5        1.0  0.1247994712594718  0.963961734720755  0.9447601838616391  1.0000
  O   O6        1.0  0.3751966151109444  0.46396785268671437  0.5552409760554438  1.0000
  O   O7        1.0  0.8752047590859319  0.03603450612009601  0.055241704452193084  1.0000
  O   O8        1.0  0.6247958505117596  0.5360346870096819  0.4447571033299979  1.0000
  O   O9        1.0  0.4743610724405797  0.20743237228504094  0.9339507238100422  1.0000
  O   O10       1.0  0.025632009071813396  0.7074383105999901  0.5660507688011192  1.0000
  O   O11       1.0  0.5256398967208115  0.7925628187396755  0.066052292890511  1.0000
  O   O12       1.0  0.9743554029586291  0.2925631792853665  0.4339454224218143  1.0000
  O   O13       1.0  0.6624635797896162  0.0048698127251541  0.8666981228734868  1.0000
  O   O14       1.0  0.8375384942646847  0.5048698210518342  0.6333050836535534  1.0000
  O   O15       1.0  0.3375422811602108  0.9951316771684091  0.1333032012436277  1.0000
  O   O16       1.0  0.1624590249392526  0.4951295692159193  0.36669488389739496  1.0000
  O   O17       1.0  0.7267994915087498  0.2764233136199152  0.8034358819850522  1.0000
  O   O18       1.0  0.7731805601791137  0.7764228841759363  0.6965611103802656  1.0000
  O   O19       1.0  0.2731914244293705  0.7235781762593451  0.19656455196523123  1.0000
  O   O20       1.0  0.22681193240492087  0.22357650608933716  0.3034375657977861  1.0000
  O   O21       1.0  0.7054112751685225  0.2623015592454152  0.6703039001598369  1.0000
  O   O22       1.0  0.7945903045916295  0.7623079011709138  0.8296947296564168  1.0000
  O   O23       1.0  0.29459458577027675  0.7376957314084721  0.32969742396026186  1.0000
  O   O24       1.0  0.205413817891916  0.23769463853493286  0.170304771491459  1.0000
  O   O25       1.0  0.16467468162976934  0.20598348795753918  0.8516119340219317  1.0000
  O   O26       1.0  0.3353199419528893  0.7059886697475264  0.6483872060888486  1.0000
  O   O27       1.0  0.8353262066310806  0.794014852501043  0.14838929230526784  1.0000
  O   O28       1.0  0.6646691815769897  0.2940128201368423  0.3516102113122058  1.0000
  O   O29       1.0  0.20821045403113908  0.566492197380967  0.06858091995522388  1.0000
  O   O30       1.0  0.29179218566718385  0.0664921692727845  0.4314238086545714  1.0000
  O   O31       1.0  0.7917855154909788  0.43350719287956724  0.9314214021598202  1.0000
  O   O32       1.0  0.7082119368080838  0.9335072210033033  0.5685756924955427  1.0000
  O   O33       1.0  0.8338067236740017  0.6981180112841373  0.9812005292952222  1.0000
  O   O34       1.0  0.666192996268279  0.19811964238166274  0.5188011432746009  1.0000
  O   O35       1.0  0.1661974527459904  0.30188347860905657  0.018800165434136294  1.0000
  O   O36       1.0  0.3338061535262896  0.8018797478892028  0.4811982600833601  1.0000
