data_image0
_chemical_formula_structural       Zn2H32C36N4Cl4O4
_chemical_formula_sum              "Zn2 H32 C36 N4 Cl4 O4"
_cell_length_a       8.209226958545631
_cell_length_b       9.57932067248484
_cell_length_c       12.259047548865658
_cell_angle_alpha    108.40633132473677
_cell_angle_beta     94.63214054325348
_cell_angle_gamma    102.83104132285051

_space_group_name_H-M_alt    "P 1"
_space_group_IT_number       1

loop_
  _space_group_symop_operation_xyz
  'x, y, z'

loop_
  _atom_site_type_symbol
  _atom_site_label
  _atom_site_symmetry_multiplicity
  _atom_site_fract_x
  _atom_site_fract_y
  _atom_site_fract_z
  _atom_site_occupancy
  Zn  Zn1       1.0  0.9465037508029039  0.09297710687629028  0.17167673028380648  1.0000
  Zn  Zn2       1.0  0.5837270522131774  0.3881043247646688  0.8137899314939789  1.0000
  H   H1        1.0  0.07999391900647608  0.9463183843783366  0.3130442493274542  1.0000
  H   H2        1.0  0.18283517458583984  0.8682178294345276  0.4762114551077445  1.0000
  H   H3        1.0  0.18469100104667288  0.030527940138107088  0.6839706940204592  1.0000
  H   H4        1.0  0.07171854001425257  0.25968777125797254  0.7172861598461538  1.0000
  H   H5        1.0  0.8972426365118694  0.37400150808586125  0.6448459790146615  1.0000
  H   H6        1.0  0.8658676916851817  0.350494206372133  0.4927056168263563  1.0000
  H   H7        1.0  0.10150042151012427  0.47647063828311786  0.4088099865367951  1.0000
  H   H8        1.0  0.3479794271241801  0.7021571282649645  0.44799547509545334  1.0000
  H   H9        1.0  0.4805287769638581  0.8596375643193355  0.6515277481757523  1.0000
  H   H10       1.0  0.13620014621798052  0.5599650313170059  0.7774202570480355  1.0000
  H   H11       1.0  0.3775185974251798  0.9283696879020764  0.8817883532646178  1.0000
  H   H12       1.0  0.36502080217361044  0.7561605541251878  0.9119812043383887  1.0000
  H   H13       1.0  0.6196831283294201  0.0732528828375365  0.8804965328805423  1.0000
  H   H14       1.0  0.9291989590435251  0.12153851408184121  0.8717915926124179  1.0000
  H   H15       1.0  0.06275352394739998  0.9003280631703136  0.8411883002315435  1.0000
  H   H16       1.0  0.8843011959581587  0.6461999939483648  0.829469404628597  1.0000
  H   H17       1.0  0.6514502906158698  0.11458819058371006  0.6833670192738239  1.0000
  H   H18       1.0  0.6925640294108673  0.8909893994203699  0.5267436231858014  1.0000
  H   H19       1.0  0.6072715005721817  0.8598143176790954  0.3159890612904519  1.0000
  H   H20       1.0  0.47855778928525433  0.053341930019385586  0.2727961877988179  1.0000
  H   H21       1.0  0.35839922327332374  0.3442308875061215  0.48591857697272905  1.0000
  H   H22       1.0  0.3317280669990907  0.230163177005366  0.3347153295176923  1.0000
  H   H23       1.0  0.6324058581168899  0.5497466376352024  0.5789250180167899  1.0000
  H   H24       1.0  0.8651245990215628  0.7416025131607356  0.5457903872656119  1.0000
  H   H25       1.0  0.9157570747228974  0.7167966599764668  0.344503621054038  1.0000
  H   H26       1.0  0.5157962541757115  0.3016001070343606  0.2095402988585349  1.0000
  H   H27       1.0  0.6789031597979258  0.38145595963932516  0.07929887460599619  1.0000
  H   H28       1.0  0.7136955757168124  0.5822116316553831  0.11401963564748743  1.0000
  H   H29       1.0  0.9566626226187153  0.726822102883261  0.12138122443764839  1.0000
  H   H30       1.0  0.2654193321576841  0.7710809771708754  0.1127311749816329  1.0000
  H   H31       1.0  0.4028819484995765  0.557245619451315  0.11091614471300199  1.0000
  H   H32       1.0  0.22702664973584064  0.31521438827380177  0.12170602368645692  1.0000
  C   C1        1.0  0.019804760284642994  0.14460855893704408  0.4246413968129161  1.0000
  C   C2        1.0  0.0777797518081442  0.0107731799705988  0.4034578627801295  1.0000
  C   C3        1.0  0.1355296496388405  0.9694254570246983  0.4941952715920054  1.0000
  C   C4        1.0  0.1355542806354606  0.0575175961427448  0.6102499827231966  1.0000
  C   C5        1.0  0.07653632746930579  0.18518963610218717  0.6303034626960128  1.0000
  C   C6        1.0  0.9586229998920999  0.36615054425129767  0.5676976107930116  1.0000
  C   C7        1.0  0.10222617490094167  0.5061655618931198  0.5906913841502188  1.0000
  C   C8        1.0  0.1618609851012351  0.5461088146777016  0.49781738560500344  1.0000
  C   C9        1.0  0.2986561564000496  0.6726665467761632  0.5201453414199761  1.0000
  C   C10       1.0  0.3739322701918439  0.760734376956897  0.6347054381797436  1.0000
  C   C11       1.0  0.3158663953791958  0.7220473697683475  0.7282249943020106  1.0000
  C   C12       1.0  0.1802958384652555  0.5936841713151891  0.7053609464962207  1.0000
  C   C13       1.0  0.4040130737874747  0.8159679030436634  0.8516674273109004  1.0000
  C   C14       1.0  0.6857642639143646  0.9835376336455396  0.8676580376192079  1.0000
  C   C15       1.0  0.8557739161483298  0.007731936961448597  0.862254925078723  1.0000
  C   C16       1.0  0.9281295805697239  0.8837747173465331  0.845646591184817  1.0000
  C   C17       1.0  0.8309157842402612  0.7428957839963743  0.8383100700322288  1.0000
  C   C18       1.0  0.6563014977889239  0.7197842852612054  0.8472049086225226  1.0000
  C   C19       1.0  0.5411571262399235  0.20534152983621815  0.5651206935430935  1.0000
  C   C20       1.0  0.6121007933841014  0.09527408872021681  0.5917093971117424  1.0000
  C   C21       1.0  0.6355897782517983  0.9729247372626444  0.5045562506496282  1.0000
  C   C22       1.0  0.5872211582541595  0.9530907926202374  0.3869267076085806  1.0000
  C   C23       1.0  0.5183682669273466  0.05958457826315568  0.361557136587578  1.0000
  C   C24       1.0  0.42328916235611996  0.2937892063406408  0.4150096828377201  1.0000
  C   C25       1.0  0.5588662307371166  0.41482347102947875  0.39627650766421846  1.0000
  C   C26       1.0  0.6569196462967284  0.5392030270133575  0.49101554090977834  1.0000
  C   C27       1.0  0.7860049344913519  0.6466548028319535  0.4719934660055713  1.0000
  C   C28       1.0  0.8154768394563519  0.6319516300256821  0.35889720465173985  1.0000
  C   C29       1.0  0.7182087136736681  0.5085283909563287  0.2636998767835053  1.0000
  C   C30       1.0  0.5906411605636563  0.399780698842008  0.283248084789065  1.0000
  C   C31       1.0  0.750453182845163  0.4930983690372556  0.14129352201721448  1.0000
  C   C32       1.0  0.025467418019502485  0.6424981284553154  0.1246981213266665  1.0000
  C   C33       1.0  0.19520948749162406  0.6640836040594208  0.11894541744622704  1.0000
  C   C34       1.0  0.2696438357937012  0.5450703472984841  0.11890789892696321  1.0000
  C   C35       1.0  0.1739733351647317  0.4109484700090746  0.1254245364947693  1.0000
  C   C36       1.0  0.9988749163373923  0.38983542357622264  0.13235461207002433  1.0000
  N   N1        1.0  0.0191720004774325  0.22643290483163978  0.540781796386746  1.0000
  N   N2        1.0  0.5886523881454835  0.8433828184143978  0.8572862771644267  1.0000
  N   N3        1.0  0.495604012515372  0.1811390590799746  0.44752029222895834  1.0000
  N   N4        1.0  0.9313077962222635  0.511079048613311  0.13307087408822577  1.0000
  Cl  Cl1       1.0  0.727778366230318  0.8869025169272291  0.1275095379979447  1.0000
  Cl  Cl2       1.0  0.19190172916186296  0.041242142283024905  0.12367302109817052  1.0000
  Cl  Cl3       1.0  0.4039756257532048  0.24599851549590568  0.8883770365639307  1.0000
  Cl  Cl4       1.0  0.8557630476387672  0.3811891928980772  0.8502554784442112  1.0000
  O   O1        1.0  0.9717851559728032  0.196519312878884  0.3472546704763317  1.0000
  O   O2        1.0  0.8969409564673043  0.2699072811485834  0.136662195467629  1.0000
  O   O3        1.0  0.5545249043056301  0.5968127926998007  0.8459913171021826  1.0000
  O   O4        1.0  0.5177401017185231  0.32409942869737307  0.6394247588503178  1.0000
