data_image0
_chemical_formula_structural       Zn8H40C75Br6O26
_chemical_formula_sum              "Zn8 H40 C75 Br6 O26"
_cell_length_a       18.325490776997526
_cell_length_b       18.32437690006534
_cell_length_c       18.363576047084354
_cell_angle_alpha    119.62428691801
_cell_angle_beta     90.25455568741391
_cell_angle_gamma    119.84811406215623

_space_group_name_H-M_alt    "P 1"
_space_group_IT_number       1

loop_
  _space_group_symop_operation_xyz
  'x, y, z'

loop_
  _atom_site_type_symbol
  _atom_site_label
  _atom_site_symmetry_multiplicity
  _atom_site_fract_x
  _atom_site_fract_y
  _atom_site_fract_z
  _atom_site_occupancy
  Zn  Zn1       1.0  0.4587504666607245  0.4109002202797285  0.543127749774371  1.0000
  Zn  Zn2       1.0  0.45827144447485313  0.5885346540417586  0.5454415542846647  1.0000
  Zn  Zn3       1.0  0.45604354907651856  0.4166704933220444  0.3710647280681981  1.0000
  Zn  Zn4       1.0  0.6323075091557157  0.5855378776731754  0.5465343804526839  1.0000
  Zn  Zn5       1.0  0.04575019993776421  0.5896153957262342  0.9570304576056685  1.0000
  Zn  Zn6       1.0  0.045286303862667465  0.5875693045034893  0.1299705620482285  1.0000
  Zn  Zn7       1.0  0.0431997853778512  0.4131680622303903  0.9538349066982053  1.0000
  Zn  Zn8       1.0  0.8684983287186584  0.41130546680810903  0.9548809792329112  1.0000
  H   H1        1.0  0.7247264841615362  0.3333705630924229  0.6799480187867388  1.0000
  H   H2        1.0  0.8809564241771852  0.9043476798568051  0.511677140590244  1.0000
  H   H3        1.0  0.9424185597250558  0.19024188893764196  0.7354672317185946  1.0000
  H   H4        1.0  0.7103353671883426  0.09537828425038701  0.8602176408018283  1.0000
  H   H5        1.0  0.3671861820164538  0.4892529869885038  0.21906376344589523  1.0000
  H   H6        1.0  0.23936840834088713  0.5052004280787372  0.44984565765027185  1.0000
  H   H7        1.0  0.9088882250516691  0.6302707397357922  0.7835903280920251  1.0000
  H   H8        1.0  0.27004704053790357  0.48605853602644083  0.11977069300910158  1.0000
  H   H9        1.0  0.5484832404623603  0.7569428148112748  0.9699241347350596  1.0000
  H   H10       1.0  0.44549768814022866  0.7484056510496159  0.05748827826114679  1.0000
  H   H11       1.0  0.2822444707971029  0.6301602935919132  0.9803126891238989  1.0000
  H   H12       1.0  0.03109228197808287  0.8059473157727552  0.08725841015870371  1.0000
  H   H13       1.0  0.7794214852850062  0.67201715837119  0.8267382968481344  1.0000
  H   H14       1.0  0.7225557229119773  0.5489256503097052  0.8943047506778967  1.0000
  H   H15       1.0  0.5950979227707763  0.3752210142791129  0.7232780944784383  1.0000
  H   H16       1.0  0.3921166959885483  0.10045175441366891  0.3607647148528629  1.0000
  H   H17       1.0  0.216229819835803  0.18822473053661068  0.2729510365396877  1.0000
  H   H18       1.0  0.0652113596182886  0.08858667218512288  0.16966129456420737  1.0000
  H   H19       1.0  0.011337278646443806  0.06090954287527241  0.5465105114816924  1.0000
  H   H20       1.0  0.9768077890713158  0.1413488316973499  0.5645220047932327  1.0000
  H   H21       1.0  0.05557006565943108  0.17732013894673318  0.6530515068529681  1.0000
  H   H22       1.0  0.15224503838282297  0.5056944940607906  0.5397519547131467  1.0000
  H   H23       1.0  0.6869338939463249  0.666430055153633  0.37824522903809327  1.0000
  H   H24       1.0  0.08021602793273529  0.5413390582877254  0.5288690484914582  1.0000
  H   H25       1.0  0.03564366752902259  0.4110577491830156  0.4808242546354863  1.0000
  H   H26       1.0  0.9718886534456741  0.4465165671216694  0.19924885366592804  1.0000
  H   H27       1.0  0.9973909515971258  0.36029279820412796  0.1251293657903076  1.0000
  H   H28       1.0  0.9239043342798965  0.3259432132583838  0.1821393729201688  1.0000
  H   H29       1.0  0.5831865281587765  0.7163304371447621  0.8490411137354813  1.0000
  H   H30       1.0  0.5134313443398  0.5865851840523675  0.7563732340850466  1.0000
  H   H31       1.0  0.5109895781878251  0.6824468379451432  0.7566541848243704  1.0000
  H   H32       1.0  0.0378763227123926  0.4256803295299747  0.6919051464287096  1.0000
  H   H33       1.0  0.03886032295167042  0.3271970402341965  0.5987995215226648  1.0000
  H   H34       1.0  0.7655831584244126  0.8094249173179406  0.361581621948325  1.0000
  H   H35       1.0  0.0264822547097339  0.3246432084938249  0.6936072577100563  1.0000
  H   H36       1.0  0.8883491219960009  0.674508693979924  0.19628247699410667  1.0000
  H   H37       1.0  0.7648238255851963  0.3572865337717559  0.1689025255807408  1.0000
  H   H38       1.0  0.6158112126477633  0.9035939479347944  0.7669998606438285  1.0000
  H   H39       1.0  0.7815901830952611  0.456616166644018  0.6125160687476381  1.0000
  H   H40       1.0  0.7559863354155425  0.8091573061960203  0.5494761428800174  1.0000
  C   C1        1.0  0.6406563020820785  0.7771360903307637  0.636358547142173  1.0000
  C   C2        1.0  0.07210623613276104  0.8894399048839362  0.1288221276816088  1.0000
  C   C3        1.0  0.15856650028098343  0.9450352012009803  0.18831187646799208  1.0000
  C   C4        1.0  0.358539544357363  0.22455749677533277  0.3609840139237405  1.0000
  C   C5        1.0  0.21196798030586453  0.055246870214496396  0.24186082931707636  1.0000
  C   C6        1.0  0.29736718956081626  0.1097274796339178  0.30359574046767085  1.0000
  C   C7        1.0  0.32750962250997884  0.057769491789251504  0.31238434885145244  1.0000
  C   C8        1.0  0.2755031596289967  0.9498855468155583  0.25790449796714643  1.0000
  C   C9        1.0  0.19257399620377652  0.8932208355249002  0.19663762585081196  1.0000
  C   C10       1.0  0.73054758294073  0.6671698234183979  0.3380288902383272  1.0000
  C   C11       1.0  0.7744452658246317  0.7474930791409945  0.3291764991898631  1.0000
  C   C12       1.0  0.8389858094780961  0.5737112577049855  0.7697369746408499  1.0000
  C   C13       1.0  0.8316417774084003  0.7490525911223643  0.27777444364981824  1.0000
  C   C14       1.0  0.8434332501781794  0.6712786621337726  0.23500532054556794  1.0000
  C   C15       1.0  0.7977493764236244  0.5871815919991761  0.2422833202335681  1.0000
  C   C16       1.0  0.3646041641620599  0.4980157338999973  0.6400244431363193  1.0000
  C   C17       1.0  0.7409204356661051  0.5854012234649133  0.2958275837096949  1.0000
  C   C18       1.0  0.6961548378282741  0.5019549589371337  0.3047303371711436  1.0000
  C   C19       1.0  0.7067381147401831  0.4230734332261363  0.2601964930083441  1.0000
  C   C20       1.0  0.7592733234438711  0.4216390386976272  0.20439754454486092  1.0000
  C   C21       1.0  0.8045586127628396  0.5024648467563891  0.1962041456299204  1.0000
  C   C22       1.0  0.7953891338274487  0.8924848094962811  0.5899496262746596  1.0000
  C   C23       1.0  0.7679428456586949  0.5968845471426291  0.7949317385083888  1.0000
  C   C24       1.0  0.865926680155887  0.9461941961279408  0.5691407037849459  1.0000
  C   C25       1.0  0.9198513579848964  0.05479234981234529  0.6208613360542331  1.0000
  C   C26       1.0  0.900637468907945  0.10671083117108539  0.6942203274106121  1.0000
  C   C27       1.0  0.8281817361558624  0.054618645120960714  0.7178420058465564  1.0000
  C   C28       1.0  0.6384144522719524  0.5012443021433057  0.36266410198786764  1.0000
  C   C29       1.0  0.7735248899403971  0.9440100916283712  0.6641148598031918  1.0000
  C   C30       1.0  0.697912801411917  0.8913299512544129  0.6854151560034369  1.0000
  C   C31       1.0  0.6749842190351318  0.9455802160154506  0.7535878688532737  1.0000
  C   C32       1.0  0.7280613481037721  0.0532388855802424  0.8059056454577489  1.0000
  C   C33       1.0  0.8044695536092162  0.1073931185001769  0.7905823115033501  1.0000
  C   C34       1.0  0.7347311248352639  0.5282999362181969  0.8309847914797219  1.0000
  C   C35       1.0  0.19049286626176354  0.4872963514737875  0.3988478206622404  1.0000
  C   C36       1.0  0.1108785638779111  0.4714736747715733  0.41112379048864517  1.0000
  C   C37       1.0  0.04631945740656826  0.44216018817206054  0.34102004383128565  1.0000
  C   C38       1.0  0.06091832307456007  0.4352325886939711  0.2643653577267103  1.0000
  C   C39       1.0  0.14829682511410172  0.46520001076489587  0.2585130830110601  1.0000
  C   C40       1.0  0.35688817325274874  0.5025509750684876  0.36647419750207905  1.0000
  C   C41       1.0  0.21131637452008792  0.48332661192932136  0.3233629709283861  1.0000
  C   C42       1.0  0.29079214273223636  0.49199570754885974  0.30713369117751205  1.0000
  C   C43       1.0  0.3081373021762134  0.48639656381605073  0.23182454259839594  1.0000
  C   C44       1.0  0.2523931507482615  0.4816778256785597  0.17475490418559758  1.0000
  C   C45       1.0  0.6650220189460326  0.43167541963345707  0.7370604792795918  1.0000
  C   C46       1.0  0.1754369727212151  0.4743984406780442  0.1888048575198269  1.0000
  C   C47       1.0  0.44682945688744263  0.6430974842315037  0.8429914487407972  1.0000
  C   C48       1.0  0.476657005340364  0.7035367706416198  0.9350704804008461  1.0000
  C   C49       1.0  0.4184511380292762  0.6991225857044443  0.9851096846185287  1.0000
  C   C50       1.0  0.32787195603591374  0.6332529337798364  0.9422264607140394  1.0000
  C   C51       1.0  0.2928687492360069  0.5692904464108679  0.8480156505970415  1.0000
  C   C52       1.0  0.6401367902627442  0.4992820263395644  0.6427237912478463  1.0000
  C   C53       1.0  0.3520346522398512  0.5721764574374006  0.7964658965165087  1.0000
  C   C54       1.0  0.31110325806086087  0.5027281804935413  0.7019664326359775  1.0000
  C   C55       1.0  0.21903728670526593  0.437962511153998  0.6629189983527157  1.0000
  C   C56       1.0  0.6968567730740888  0.4993340284615472  0.7004183158412617  1.0000
  C   C57       1.0  0.15991855168100952  0.43805385492994736  0.712285917929826  1.0000
  C   C58       1.0  0.19920300553863513  0.5029885109949532  0.8039142743342468  1.0000
  C   C59       1.0  0.8618950088929938  0.4997994612375791  0.1381384684964786  1.0000
  C   C60       1.0  0.1392634906252326  0.5019075774928012  0.8594544226847066  1.0000
  C   C61       1.0  0.13781299055320048  0.7782055518957447  0.13894259157966354  1.0000
  C   C62       1.0  0.8606307445546763  0.2216864939022328  0.8534874981828794  1.0000
  C   C63       1.0  0.1304729208015942  0.48855652330448135  0.1337715568651773  1.0000
  C   C64       1.0  0.7692778625498277  0.4771098656528494  0.6757794547234043  1.0000
  C   C65       1.0  0.8638383041020176  0.5062126171702417  0.8642222576755004  1.0000
  C   C66       1.0  0.736066913294863  0.40845687098939726  0.711837883553109  1.0000
  C   C67       1.0  0.17602193760331633  0.10480055075657192  0.23337206088509535  1.0000
  C   C68       1.0  0.8071219786228029  0.5059683219770151  0.8063024541792532  1.0000
  C   C69       1.0  0.9949928496549492  0.1114146353306751  0.5951008958295889  1.0000
  C   C70       1.0  0.09413486985585712  0.48303303007805454  0.49480363376203956  1.0000
  C   C71       1.0  0.9850076247252133  0.39020153530891843  0.18848096750301838  1.0000
  C   C72       1.0  0.5167718410520834  0.6572053237665828  0.7982694087864106  1.0000
  C   C73       1.0  0.060337183631837384  0.3749872161968922  0.671369098292445  1.0000
  C   C74       1.0  0.09189452617820139  0.0495636000544692  0.17547383805428754  1.0000
  C   C75       1.0  0.04053282538392014  0.9413471514874487  0.12325788213716043  1.0000
  Br  Br1       1.0  0.9244684137993744  0.8656144929615337  0.043181464942726705  1.0000
  Br  Br2       1.0  0.3253816241943213  0.8847693690641447  0.26898840206358426  1.0000
  Br  Br3       1.0  0.6526310118837413  0.3136682081213421  0.2746399086012588  1.0000
  Br  Br4       1.0  0.8936283390222003  0.8616093420712263  0.26781793834224743  1.0000
  Br  Br5       1.0  0.9319319323094462  0.4080717254848167  0.35333555014099016  1.0000
  Br  Br6       1.0  0.16994762345263584  0.342781426433362  0.535916675490718  1.0000
  O   O1        1.0  0.5012036401549977  0.5003810262695083  0.5012973133084131  1.0000
  O   O2        1.0  0.9450141426460519  0.2672282586092294  0.8787927421035777  1.0000
  O   O3        1.0  0.11486588605383478  0.5564871642033468  0.1754429715366542  1.0000
  O   O4        1.0  0.67941574031196  0.7314683068313599  0.6134405441047833  1.0000
  O   O5        1.0  0.8232661460869082  0.4429560159770248  0.8853503565981885  1.0000
  O   O6        1.0  0.11612866836309618  0.435607080073602  0.05036979308980693  1.0000
  O   O7        1.0  0.9482189016549396  0.5695774450013715  0.8880234220250715  1.0000
  O   O8        1.0  0.12443631886590377  0.7360429641990509  0.05609603380861471  1.0000
  O   O9        1.0  0.8195416228314018  0.2646032993021947  0.8785888894895493  1.0000
  O   O10       1.0  0.9456035632756256  0.5665709604027711  0.17777681401051376  1.0000
  O   O11       1.0  0.11354830800501503  0.4360178641256027  0.8775218636776289  1.0000
  O   O12       1.0  0.38447426632559006  0.43411354155686155  0.6162567074224158  1.0000
  O   O13       1.0  0.39490549612671083  0.2662200574993676  0.44255875190619076  1.0000
  O   O14       1.0  0.38350786346280336  0.5582480400042726  0.6165206526150514  1.0000
  O   O15       1.0  0.5546188226613609  0.44055611185545723  0.3224488979938158  1.0000
  O   O16       1.0  0.379652088449525  0.5638566349452958  0.45044733089861927  1.0000
  O   O17       1.0  0.6809770901019689  0.5595442890589412  0.6185909302874251  1.0000
  O   O18       1.0  0.3867586895030827  0.4488504046417106  0.32659182893834793  1.0000
  O   O19       1.0  0.5558058519781994  0.4397146994165623  0.622108690071137  1.0000
  O   O20       1.0  0.6790082181846203  0.5623814195272558  0.4459474212988683  1.0000
  O   O21       1.0  0.5569509589880325  0.7343032985067309  0.6227645604663155  1.0000
  O   O22       1.0  0.3704625522074281  0.2705670165205447  0.32342862826762103  1.0000
  O   O23       1.0  8.094895027704997e-05  0.5008901370204554  0.999528745274155  1.0000
  O   O24       1.0  0.8218813206122135  0.43087879432742676  0.055203592822636  1.0000
  O   O25       1.0  0.11953481898163434  0.5659804924342141  0.8831525035698323  1.0000
  O   O26       1.0  0.10901882513747553  0.7337920569309376  0.17815524512312922  1.0000
