data_image0
_chemical_formula_structural       Cu4H40C24N4Cl4O2
_chemical_formula_sum              "Cu4 H40 C24 N4 Cl4 O2"
_cell_length_a       7.222332403475089
_cell_length_b       10.047321569540259
_cell_length_c       10.514445998017731
_cell_angle_alpha    89.99991004467553
_cell_angle_beta     89.99982802106341
_cell_angle_gamma    98.99988460471579

_space_group_name_H-M_alt    "P 1"
_space_group_IT_number       1

loop_
  _space_group_symop_operation_xyz
  'x, y, z'

loop_
  _atom_site_type_symbol
  _atom_site_label
  _atom_site_symmetry_multiplicity
  _atom_site_fract_x
  _atom_site_fract_y
  _atom_site_fract_z
  _atom_site_occupancy
  Cu  Cu1       1.0  0.3302896490845129  0.9340963724549171  0.9197915779184669  1.0000
  Cu  Cu2       1.0  0.6697132607006822  0.0659035221327073  0.4197893415754522  1.0000
  Cu  Cu3       1.0  0.416734679061662  0.9752640195208359  0.1791723143020931  1.0000
  Cu  Cu4       1.0  0.583279872954016  0.024733417458385497  0.6791725989328371  1.0000
  H   H1        1.0  0.5331919904239939  0.5674124345393137  0.9073192937405782  1.0000
  H   H2        1.0  0.4667927195038287  0.43259948442902635  0.407312141971211  1.0000
  H   H3        1.0  0.5809736727952027  0.43878157497120174  0.8003322535302715  1.0000
  H   H4        1.0  0.41902647732202775  0.5612356743456389  0.30032975377462634  1.0000
  H   H5        1.0  0.6503563019913301  0.4347656882458323  0.9614219864149692  1.0000
  H   H6        1.0  0.3496385966788864  0.5652431422439433  0.46142247356206684  1.0000
  H   H7        1.0  0.35556923939918056  0.3501314119933667  0.14092262906385142  1.0000
  H   H8        1.0  0.6444168514001446  0.6498549027940684  0.6409227710478476  1.0000
  H   H9        1.0  0.3032716796341788  0.5076971962726731  0.08869917082436272  1.0000
  H   H10       1.0  0.6967208444031597  0.4922922785231095  0.5886918433593564  1.0000
  H   H11       1.0  0.978739696893939  0.41950659141939883  0.0775282122274632  1.0000
  H   H12       1.0  0.021250110340822904  0.580482894687762  0.5775287674273812  1.0000
  H   H13       1.0  0.0253618119371524  0.2642853536526887  0.1377645169876018  1.0000
  H   H14       1.0  0.9746233297748574  0.735702976949689  0.6377667130747184  1.0000
  H   H15       1.0  0.8976472886742569  0.2585192450483688  0.893738802410802  1.0000
  H   H16       1.0  0.1023505385653891  0.7414756480281638  0.39374331891443876  1.0000
  H   H17       1.0  0.11499340656234838  0.5698304177403486  0.947158236626372  1.0000
  H   H18       1.0  0.8849891225893172  0.4301652994230949  0.44715024534298925  1.0000
  H   H19       1.0  0.9724413886993374  0.5196820488853504  0.812692884784326  1.0000
  H   H20       1.0  0.027542557617472586  0.48031093937650127  0.3126817893048398  1.0000
  H   H21       1.0  0.20896126479891555  0.5971348604650116  0.792819033277617  1.0000
  H   H22       1.0  0.791014341805173  0.4028641723231416  0.2928093717222993  1.0000
  H   H23       1.0  0.0576032490239839  0.34166679707210795  0.6622666189288327  1.0000
  H   H24       1.0  0.9424000546643825  0.6583427052488202  0.16227052164295944  1.0000
  H   H25       1.0  0.23544939332213485  0.24475944644375855  0.7008933716451581  1.0000
  H   H26       1.0  0.7645610708333379  0.7552520200260702  0.2008993846825718  1.0000
  H   H27       1.0  0.29805850747111867  0.41693625873111984  0.6603879499676638  1.0000
  H   H28       1.0  0.7019428761830467  0.5830772657317951  0.16038579688656543  1.0000
  H   H29       1.0  0.019286508056012487  0.8024765358788457  0.8273972064897704  1.0000
  H   H30       1.0  0.9807215585635376  0.1975195509545102  0.3274007962063337  1.0000
  H   H31       1.0  0.7763155874920357  0.7844130042696377  0.8679872786849573  1.0000
  H   H32       1.0  0.22369026110028054  0.2155799663567421  0.3679876115248888  1.0000
  H   H33       1.0  0.9481478918206392  0.769004418781165  0.9884157163217112  1.0000
  H   H34       1.0  0.05186118792444461  0.2309933450345767  0.4884192249462986  1.0000
  H   H35       1.0  0.7675862597643288  0.10408139311015668  0.9989780741094452  1.0000
  H   H36       1.0  0.2324215925897376  0.8959173494753754  0.4989830396689641  1.0000
  H   H37       1.0  0.8807766067254124  0.009769582322448398  0.11234834278309343  1.0000
  H   H38       1.0  0.11923474894294371  0.9902310018333296  0.6123528197245918  1.0000
  H   H39       1.0  0.6850537337907951  0.9309431379945465  0.0210458202325157  1.0000
  H   H40       1.0  0.3149570189657851  0.069052603221337  0.5210446749780645  1.0000
  C   C1        1.0  0.15218082285071688  0.1643074596735232  0.9263319292020284  1.0000
  C   C2        1.0  0.8478178968547921  0.8356924020206123  0.426334796245989  1.0000
  C   C3        1.0  0.34967249214712837  0.22397691973491618  0.9264305953066058  1.0000
  C   C4        1.0  0.6503368932658871  0.7760209767525622  0.4264434639280382  1.0000
  C   C5        1.0  0.3535085992394826  0.37546135387314183  0.931792620379504  1.0000
  C   C6        1.0  0.6464835851366003  0.6245404800083205  0.4317924168916036  1.0000
  C   C7        1.0  0.5394913008759304  0.45932742328352577  0.8979769865266861  1.0000
  C   C8        1.0  0.46049719165038283  0.540682519214549  0.39797253289000173  1.0000
  C   C9        1.0  0.27912347856741354  0.3990107878739977  0.068920776693588  1.0000
  C   C10       1.0  0.7208658277456551  0.6009827410704813  0.5689189382511515  1.0000
  C   C11       1.0  0.06670884265631828  0.3408339555075415  0.0646944700085044  1.0000
  C   C12       1.0  0.9332883788448285  0.659157604907236  0.5646921129229341  1.0000
  C   C13       1.0  0.04185732260643248  0.280074345323662  0.9291480761270847  1.0000
  C   C14       1.0  0.9581405406431713  0.7199214796331501  0.429153753638687  1.0000
  C   C15       1.0  0.17528327983117006  0.38698109399128094  0.8490998941235189  1.0000
  C   C16       1.0  0.8247180492577113  0.6130229700241258  0.34910220233968664  1.0000
  C   C17       1.0  0.1147935632561286  0.5260302586297526  0.8518151590529968  1.0000
  C   C18       1.0  0.8851940151877286  0.4739676968598445  0.3518080504395087  1.0000
  C   C19       1.0  0.19320514124880359  0.3447029130933856  0.7106037864603678  1.0000
  C   C20       1.0  0.8067997312776497  0.6553085074107088  0.21060606517590233  1.0000
  C   C21       1.0  0.9190570200581264  0.8217029917561973  0.9007239709024973  1.0000
  C   C22       1.0  0.08095333471784019  0.1782989904746231  0.400726551595497  1.0000
  C   C23       1.0  0.8114242636078758  0.0070223926511588  0.0185878876375227  1.0000
  C   C24       1.0  0.18858595788019974  0.9929773782303495  0.5185922204697277  1.0000
  N   N1        1.0  0.1128677296904215  0.0325345127668584  0.9150875414458567  1.0000
  N   N2        1.0  0.8871438516332262  0.9674603975702567  0.415093928940614  1.0000
  N   N3        1.0  0.9358100650157579  0.9665363028493059  0.9208742137642363  1.0000
  N   N4        1.0  0.0641993478172722  0.03346160553952159  0.4208799062912406  1.0000
  Cl  Cl1       1.0  0.3272163909578865  0.7861730145233139  0.0927894931798292  1.0000
  Cl  Cl2       1.0  0.6727967798633899  0.2138225857173737  0.5927854994795538  1.0000
  Cl  Cl3       1.0  0.46992339231152164  0.8353273735872763  0.7580797126878169  1.0000
  Cl  Cl4       1.0  0.5300905599282543  0.1646688868153987  0.2580757024348515  1.0000
  O   O1        1.0  0.48411348958455147  0.1594861197784425  0.9256297068050902  1.0000
  O   O2        1.0  0.5158881825306239  0.8405278508838094  0.4256389421157181  1.0000
