data_image0
_chemical_formula_structural       Cu8H32C44N16O28
_chemical_formula_sum              "Cu8 H32 C44 N16 O28"
_cell_length_a       7.780057833258634
_cell_length_b       13.457253842933158
_cell_length_c       16.724384622405637
_cell_angle_alpha    90.04623412282268
_cell_angle_beta     99.32594062197433
_cell_angle_gamma    90.02466307928145

_space_group_name_H-M_alt    "P 1"
_space_group_IT_number       1

loop_
  _space_group_symop_operation_xyz
  'x, y, z'

loop_
  _atom_site_type_symbol
  _atom_site_label
  _atom_site_symmetry_multiplicity
  _atom_site_fract_x
  _atom_site_fract_y
  _atom_site_fract_z
  _atom_site_occupancy
  Cu  Cu1       1.0  0.8277231813619395  0.3992696520623795  0.5517889189040799  1.0000
  Cu  Cu2       1.0  0.6716595975032289  0.9007414524937047  0.9489865511234536  1.0000
  Cu  Cu3       1.0  0.16981975978959704  0.5996083654392593  0.44952640827791146  1.0000
  Cu  Cu4       1.0  0.3299106573910534  0.0994225372632229  0.05065968863240757  1.0000
  Cu  Cu5       1.0  0.47620435431992547  0.45946539170774514  0.41421019602891096  1.0000
  Cu  Cu6       1.0  0.024484015304132394  0.9585805663112339  0.08675892256431438  1.0000
  Cu  Cu7       1.0  0.5226999406458432  0.5405900142917305  0.5874088491210967  1.0000
  Cu  Cu8       1.0  0.9763176204453925  0.04209380614240391  0.9128398775307641  1.0000
  H   H1        1.0  0.7330964230985371  0.5612014635194883  0.4796427849976153  1.0000
  H   H2        1.0  0.7696708008340564  0.062222513772070415  0.021023748063839824  1.0000
  H   H3        1.0  0.26711182963443747  0.4382639768494983  0.5217443324257685  1.0000
  H   H4        1.0  0.23115127155586626  0.9385714623058589  0.978501407998912  1.0000
  H   H5        1.0  0.23316418115247467  0.5350709021942209  0.7052505809233548  1.0000
  H   H6        1.0  0.26620399517876336  0.034996139239112295  0.7953284325081282  1.0000
  H   H7        1.0  0.7652112446643782  0.46497230081801894  0.2944059021547928  1.0000
  H   H8        1.0  0.734920958510649  0.9645768641904482  0.2054564095082866  1.0000
  H   H9        1.0  0.8165625853905494  0.12099860329805522  0.2738045967694588  1.0000
  H   H10       1.0  0.6856671539289251  0.6201714273111423  0.2252790278472005  1.0000
  H   H11       1.0  0.1835415851815156  0.8795078140991706  0.7259407009911596  1.0000
  H   H12       1.0  0.3179576171177487  0.37959239283682666  0.7745534220542392  1.0000
  H   H13       1.0  0.6784931658775333  0.05829379110455331  0.32165836042854307  1.0000
  H   H14       1.0  0.8208843230541091  0.5570931913219895  0.17605735710232293  1.0000
  H   H15       1.0  0.32029986861766  0.9429480196249502  0.6778865855761678  1.0000
  H   H16       1.0  0.18046424725095983  0.442680084736864  0.8224752160177355  1.0000
  H   H17       1.0  0.4432299405461464  0.62945537907531  0.8059025184457053  1.0000
  H   H18       1.0  0.05587549596105389  0.1279601331052547  0.6940985928068951  1.0000
  H   H19       1.0  0.5572957605959983  0.37136461948829697  0.19225127645137252  1.0000
  H   H20       1.0  0.9432579138281765  0.8712822929505324  0.3073917348820385  1.0000
  H   H21       1.0  0.8168241551640848  0.7211783614257142  0.7591362838881675  1.0000
  H   H22       1.0  0.6816084239934169  0.22175873817061392  0.7411509049348265  1.0000
  H   H23       1.0  0.1828616626484489  0.27806682253162757  0.24326248509505172  1.0000
  H   H24       1.0  0.31796572773309606  0.776914785522422  0.2564116952993557  1.0000
  H   H25       1.0  0.482621130496149  0.2368955995838036  0.3066778314043787  1.0000
  H   H26       1.0  0.017572100303425493  0.7361537045975767  0.19261532427107395  1.0000
  H   H27       1.0  0.5182298306487354  0.7652364241589069  0.6923155097296313  1.0000
  H   H28       1.0  0.9829703570429653  0.26471854201199824  0.807468935861834  1.0000
  H   H29       1.0  0.977199708936453  0.20884958827573996  0.45451022436049  1.0000
  H   H30       1.0  0.5230259852113831  0.7086541489062128  0.04466709900387398  1.0000
  H   H31       1.0  0.021993930105921305  0.7912511747143754  0.5456159046953102  1.0000
  H   H32       1.0  0.4786928752513119  0.2911834583733608  0.9546150005289528  1.0000
  C   C1        1.0  0.88120269113282  0.565228209745122  0.6673930409150938  1.0000
  C   C2        1.0  0.6175476182155251  0.0665485108417485  0.8337412467291611  1.0000
  C   C3        1.0  0.1167690662224246  0.4339495979046432  0.3344548003818132  1.0000
  C   C4        1.0  0.38363007293285273  0.9332875531339653  0.16556557801255412  1.0000
  C   C5        1.0  0.010990626342696397  0.6219792166746032  0.7261209785095273  1.0000
  C   C6        1.0  0.4879836473593641  0.12228747639031211  0.7743597772114579  1.0000
  C   C7        1.0  0.987997745512132  0.37769765312566517  0.2748781043747427  1.0000
  C   C8        1.0  0.5123875732819413  0.8770142124426242  0.22497273431829962  1.0000
  C   C9        1.0  0.18810862648945909  0.5960443035778696  0.739532646173927  1.0000
  C   C10       1.0  0.3110928494608984  0.0957153460585403  0.7608122491331879  1.0000
  C   C11       1.0  0.8111109399578423  0.40409273955862807  0.260325915384655  1.0000
  C   C12       1.0  0.6891940312841953  0.9036603968970881  0.2395102556270742  1.0000
  C   C13       1.0  0.3058434709564821  0.6500017431268219  0.794880644429767  1.0000
  C   C14       1.0  0.19313467566441736  0.1488865635224172  0.7051317609349536  1.0000
  C   C15       1.0  0.6945119819940117  0.35054744943698074  0.2041567770222982  1.0000
  C   C16       1.0  0.8059946697355255  0.8503287441843882  0.2956310831073308  1.0000
  C   C17       1.0  0.2501345865407244  0.7316732613554108  0.8362746120122109  1.0000
  C   C18       1.0  0.24835859506807614  0.23041312647533368  0.6635287387262419  1.0000
  C   C19       1.0  0.7511348733137949  0.26893860426157795  0.1630321558572446  1.0000
  C   C20       1.0  0.7496353969276794  0.7687780645397736  0.33685347243307  1.0000
  C   C21       1.0  0.37528132036586465  0.7909336904986974  0.8961729860014739  1.0000
  C   C22       1.0  0.12288142153153807  0.28947259279026133  0.6038147787100312  1.0000
  C   C23       1.0  0.6270965722060068  0.2097308455992604  0.10267386445863015  1.0000
  C   C24       1.0  0.8736978516195676  0.7099224335663552  0.3973804291097734  1.0000
  C   C25       1.0  0.0726086229337994  0.7575920213740163  0.8218789489712104  1.0000
  C   C26       1.0  0.4257189894006144  0.25677987685237014  0.6778636877176181  1.0000
  C   C27       1.0  0.928401619733492  0.2425811818400305  0.17849849475939544  1.0000
  C   C28       1.0  0.5724494243354028  0.7420793235446297  0.3213408371318066  1.0000
  C   C29       1.0  0.0015586215469412074  0.845047897194064  0.8615173797527758  1.0000
  C   C30       1.0  0.49656288527773274  0.3439300176881446  0.6378661459248886  1.0000
  C   C31       1.0  0.0002799549297094011  0.15518276942724898  0.13913880699436726  1.0000
  C   C32       1.0  0.5011384362834974  0.6547067696447402  0.36100489195336377  1.0000
  C   C33       1.0  0.954514375524006  0.7021164639547308  0.7681394564159159  1.0000
  C   C34       1.0  0.5440975860579087  0.2021470165286345  0.7320064306073344  1.0000
  C   C35       1.0  0.0453257547280046  0.29756215241909706  0.2331591682413502  1.0000
  C   C36       1.0  0.4553934529212497  0.7967425180273296  0.26659713652369976  1.0000
  C   C37       1.0  0.5932792417531729  0.2503917384093056  0.3538109010753485  1.0000
  C   C38       1.0  0.9067822484495521  0.7500963966318038  0.1456995540805933  1.0000
  C   C39       1.0  0.4071293361236528  0.7510738720042126  0.6455767700130506  1.0000
  C   C40       1.0  0.0939823944891458  0.25063015721197257  0.8542359050132542  1.0000
  C   C41       1.0  0.8485547031353774  0.23586021811110666  0.42964100488234874  1.0000
  C   C42       1.0  0.6515404507381035  0.7357987933167324  0.06974455729812228  1.0000
  C   C43       1.0  0.15110776044004123  0.76469452128255  0.570258518634837  1.0000
  C   C44       1.0  0.3497794907175659  0.26438963452873304  0.9297987976986231  1.0000
  N   N1        1.0  0.7719121033571311  0.3155893519669489  0.45289879550293916  1.0000
  N   N2        1.0  0.7277261802658684  0.8160781100192337  0.047205248682352874  1.0000
  N   N3        1.0  0.22800483149151055  0.6849291021092938  0.5471864686546437  1.0000
  N   N4        1.0  0.273133881344684  0.1843882997364119  0.9525842116017098  1.0000
  N   N5        1.0  0.6115259268691416  0.3246413568828217  0.4060738375875202  1.0000
  N   N6        1.0  0.888125235182862  0.8250023557951496  0.09416557735639224  1.0000
  N   N7        1.0  0.3888262564599926  0.6763993819353399  0.5936816496730016  1.0000
  N   N8        1.0  0.11238920583220846  0.17581562846439885  0.905893064106358  1.0000
  N   N9        1.0  0.7402738272484725  0.1925898296847848  0.36721015380535943  1.0000
  N   N10       1.0  0.7600537735213916  0.6920623846737682  0.13175983507623096  1.0000
  N   N11       1.0  0.25968503001339366  0.8084975422928055  0.6322849097684509  1.0000
  N   N12       1.0  0.2412645143600471  0.30822564759132126  0.8678432152876209  1.0000
  N   N13       1.0  0.7828847955206512  0.10535042457835431  0.32938639001189046  1.0000
  N   N14       1.0  0.7173493408419416  0.6046931704461259  0.1692778920854535  1.0000
  N   N15       1.0  0.21648072847267485  0.8954731511908846  0.6702642130940288  1.0000
  N   N16       1.0  0.2844356242211531  0.39537637013871313  0.8301621465290264  1.0000
  O   O1        1.0  0.6718992042154212  0.501006072128476  0.49606274571047465  1.0000
  O   O2        1.0  0.8308115475039697  0.0020796623023571  0.004310099431521075  1.0000
  O   O3        1.0  0.32768866209145386  0.4987067690360689  0.5053845883399075  1.0000
  O   O4        1.0  0.16996151589677305  0.9985850896667258  0.9953748733778265  1.0000
  O   O5        1.0  0.7228926177775674  0.5933602155585477  0.6605154287389394  1.0000
  O   O6        1.0  0.7760214994556945  0.09460987661256579  0.8403374422308185  1.0000
  O   O7        1.0  0.2756252075021662  0.40692099803924003  0.34101782040041667  1.0000
  O   O8        1.0  0.22480445006247857  0.905948491774389  0.15909347300532764  1.0000
  O   O9        1.0  0.9424402138249518  0.4939005985545748  0.6305724088576096  1.0000
  O   O10       1.0  0.5560582678848078  0.9962047417728712  0.8713257427341075  1.0000
  O   O11       1.0  0.0541451490974154  0.5038864541406342  0.3722576580795191  1.0000
  O   O12       1.0  0.44584206145080424  0.0033601708855285997  0.12795130461694976  1.0000
  O   O13       1.0  0.9042475183179375  0.8263527918704766  0.9122021394995269  1.0000
  O   O14       1.0  0.5920537682830158  0.32504256622056726  0.5864702500913448  1.0000
  O   O15       1.0  0.09955235544680358  0.1739811154952875  0.08932746027547717  1.0000
  O   O16       1.0  0.4019689581753666  0.6734577395314076  0.410880890512132  1.0000
  O   O17       1.0  0.040984211838541305  0.9312175966618524  0.8363171920853884  1.0000
  O   O18       1.0  0.45909672383135086  0.4302032166370465  0.6636846595191696  1.0000
  O   O19       1.0  0.9591262426026858  0.06897307739208712  0.16356844337750684  1.0000
  O   O20       1.0  0.542804844067497  0.5684304951029944  0.3368599089016015  1.0000
  O   O21       1.0  0.3227875416465196  0.8295944700622258  0.9564610601656863  1.0000
  O   O22       1.0  0.17548435987715993  0.3292218502051867  0.5440366914700261  1.0000
  O   O23       1.0  0.6801092102279538  0.1719208799161365  0.04219687073164376  1.0000
  O   O24       1.0  0.8203948191465357  0.67217379507003  0.4577551758224912  1.0000
  O   O25       1.0  0.5322739872397051  0.7968168989243126  0.8814532929408396  1.0000
  O   O26       1.0  0.965508640960813  0.29437668355249264  0.6182454489760543  1.0000
  O   O27       1.0  0.4703648733018467  0.20290254162748061  0.11756458632473964  1.0000
  O   O28       1.0  0.030620429626935685  0.7032525371836869  0.3826380814460462  1.0000
