data_image0
_chemical_formula_structural       Rb4H12C24N36O2
_chemical_formula_sum              "Rb4 H12 C24 N36 O2"
_cell_length_a       4.968665765407315
_cell_length_b       10.38147755250008
_cell_length_c       21.07471866346402
_cell_angle_alpha    82.88267245790655
_cell_angle_beta     83.22384392278273
_cell_angle_gamma    76.11684218511697

_space_group_name_H-M_alt    "P 1"
_space_group_IT_number       1

loop_
  _space_group_symop_operation_xyz
  'x, y, z'

loop_
  _atom_site_type_symbol
  _atom_site_label
  _atom_site_symmetry_multiplicity
  _atom_site_fract_x
  _atom_site_fract_y
  _atom_site_fract_z
  _atom_site_occupancy
  Rb  Rb1       1.0  0.06557188893660994  0.46803893029706967  0.7138094034391145  1.0000
  Rb  Rb2       1.0  0.24693025435741592  0.0323101449285801  0.7860847680701893  1.0000
  Rb  Rb3       1.0  0.9344433461168861  0.5319603005849203  0.2861897720499869  1.0000
  Rb  Rb4       1.0  0.7530687401045383  0.9676880936442415  0.2139149246339827  1.0000
  H   H1        1.0  0.128682996711497  0.352323839415682  0.43837425127195223  1.0000
  H   H2        1.0  0.9197233545019686  0.14747979020738458  0.06161172907480508  1.0000
  H   H3        1.0  0.871306690239429  0.647676395883323  0.5616255783927073  1.0000
  H   H4        1.0  0.08028297661982722  0.8525164429577217  0.9383858109774721  1.0000
  H   H5        1.0  0.8289553656292551  0.10094346784471503  0.5128048449521857  1.0000
  H   H6        1.0  0.44228323727380603  0.39901458385575234  0.9871018085764831  1.0000
  H   H7        1.0  0.17103535818526422  0.899059765394448  0.4871963804651003  1.0000
  H   H8        1.0  0.5577192830587164  0.6009886403111439  0.012897820596755582  1.0000
  H   H9        1.0  0.663328683145501  0.23485395679573165  0.7143336050181404  1.0000
  H   H10       1.0  0.6124029240014225  0.2651385002743396  0.7856266020646032  1.0000
  H   H11       1.0  0.33667031540062453  0.7651442905144491  0.2856680434563756  1.0000
  H   H12       1.0  0.38759512477249564  0.7348617413404525  0.21437494909228152  1.0000
  C   C1        1.0  0.4777893338831303  0.23792443144403558  0.4833510358302959  1.0000
  C   C2        1.0  0.19922760827363106  0.26180547885915934  0.016594909851796992  1.0000
  C   C3        1.0  0.5221979470680581  0.762078799708469  0.5166495957825674  1.0000
  C   C4        1.0  0.8007778402985721  0.7381967371639676  0.9834023981686215  1.0000
  C   C5        1.0  0.3258245226462296  0.18896629365863757  0.3871082601412894  1.0000
  C   C6        1.0  0.9022514182382366  0.3106672844992744  0.11290513116490077  1.0000
  C   C7        1.0  0.674171555276502  0.8110339392746083  0.6128912753241949  1.0000
  C   C8        1.0  0.09775300163870068  0.6893319510583993  0.8870946926436004  1.0000
  C   C9        1.0  0.7134288066864088  0.04948479869445071  0.4274300803589526  1.0000
  C   C10       1.0  0.19050635858594245  0.4500953852258148  0.0725820788974048  1.0000
  C   C11       1.0  0.28656680043437893  0.9505164401284676  0.5725713622180706  1.0000
  C   C12       1.0  0.8094985320929313  0.5499028444422009  0.9274158377995647  1.0000
  C   C13       1.0  0.2946854641842624  0.4128597129109861  0.5463344846822267  1.0000
  C   C14       1.0  0.253815541689896  0.0870356789580384  0.9535623684184102  1.0000
  C   C15       1.0  0.7053027981083488  0.5871435138449356  0.45366519900598234  1.0000
  C   C16       1.0  0.7461855025463109  0.9129675430663795  0.04643672687144828  1.0000
  C   C17       1.0  0.15322705454580185  0.16005910277832666  0.2966685263044512  1.0000
  C   C18       1.0  0.610392310303517  0.33946254451510066  0.20337926560820563  1.0000
  C   C19       1.0  0.8467704638198442  0.839939133652024  0.7033306325163409  1.0000
  C   C20       1.0  0.38961840175337414  0.6605307102153902  0.7966214439576262  1.0000
  C   C21       1.0  0.971753766496988  0.8630426598929547  0.3829892467736755  1.0000
  C   C22       1.0  0.2180078741652308  0.6363235922875817  0.11711297831217142  1.0000
  C   C23       1.0  0.028254199119281488  0.13696256495015288  0.6170119466531006  1.0000
  C   C24       1.0  0.7819965457116994  0.36367564327008484  0.8828868454963299  1.0000
  N   N1        1.0  0.29697049229575584  0.2681194319750588  0.43718482079497534  1.0000
  N   N2        1.0  0.002570164444797737  0.23164071395212457  0.0627731544566927  1.0000
  N   N3        1.0  0.703020702320707  0.7318827953744389  0.5628144975107787  1.0000
  N   N4        1.0  0.9974347618874612  0.7683595143612649  0.9372256727683422  1.0000
  N   N5        1.0  0.5363232153639927  0.0803385296601746  0.3821861713112114  1.0000
  N   N6        1.0  0.9992048076251836  0.419214737373494  0.11786835503649942  1.0000
  N   N7        1.0  0.4636743386550393  0.9196617054155568  0.617813898037646  1.0000
  N   N8        1.0  0.000798136155445716  0.5807844960417015  0.8821309348886288  1.0000
  N   N9        1.0  0.6860666906685607  0.12631347886971864  0.47761272550054207  1.0000
  N   N10       1.0  0.2900598439710861  0.3733712362093727  0.02233756741505029  1.0000
  N   N11       1.0  0.31392157570821405  0.8736897566235555  0.5223889139580252  1.0000
  N   N12       1.0  0.7099455730318879  0.6266289899057256  0.9776607858476539  1.0000
  N   N13       1.0  0.47161403836753385  0.3037569871052597  0.5329772599803135  1.0000
  N   N14       1.0  0.30848281556411905  0.1959907222727892  0.9669458522907775  1.0000
  N   N15       1.0  0.5283712916012318  0.6962472390570794  0.4670227890903504  1.0000
  N   N16       1.0  0.6915221779907553  0.8040134945940094  0.03305284022003717  1.0000
  N   N17       1.0  0.1317422799082522  0.22781066891425183  0.3462270716202198  1.0000
  N   N18       1.0  0.70623994926828  0.27177240711176853  0.1537898142350755  1.0000
  N   N19       1.0  0.8682606124343694  0.7721855709015485  0.6537718303979787  1.0000
  N   N20       1.0  0.2937668292545651  0.7282208477303557  0.8462107754886575  1.0000
  N   N21       1.0  0.9271720495647315  0.9420860302849691  0.4289005234091191  1.0000
  N   N22       1.0  0.2982269682512709  0.5574495386933477  0.0711246755516228  1.0000
  N   N23       1.0  0.07282996431246151  0.05791620112621132  0.5711001023475788  1.0000
  N   N24       1.0  0.7017690623176163  0.44254770937786253  0.9288764277772898  1.0000
  N   N25       1.0  0.15217590836818584  0.511491131101458  0.565033744074249  1.0000
  N   N26       1.0  0.2285307047205762  0.9884998519133673  0.9348504415210074  1.0000
  N   N27       1.0  0.8478094017318086  0.4885120913695146  0.4349648718472068  1.0000
  N   N28       1.0  0.7714610004353801  0.0115033769292125  0.06514983597162428  1.0000
  N   N29       1.0  0.1549752333792398  0.10726974270721709  0.2501422600383876  1.0000
  N   N30       1.0  0.5128302988702842  0.39223484634068473  0.2499258796097195  1.0000
  N   N31       1.0  0.8450276589633817  0.8927264971085905  0.749856641979811  1.0000
  N   N32       1.0  0.48718328237200853  0.6077534291673387  0.7500765550582286  1.0000
  N   N33       1.0  0.030440910019024176  0.7848011250648312  0.3447548645621907  1.0000
  N   N34       1.0  0.1605403988698129  0.7145171099922861  0.1553710113529121  1.0000
  N   N35       1.0  0.9695669369366376  0.21519711762548613  0.655246075671883  1.0000
  N   N36       1.0  0.8394684650806707  0.285483126946822  0.8446298914845727  1.0000
  O   O1        1.0  0.5144874523485402  0.24984955084892138  0.7499963974177177  1.0000
  O   O2        1.0  0.4855115461975787  0.7501486964612596  0.2500052510568054  1.0000
