data_image0
_chemical_formula_structural       CdH16C16N4Cl2O2
_chemical_formula_sum              "Cd1 H16 C16 N4 Cl2 O2"
_cell_length_a       7.796879391289168
_cell_length_b       7.864337742211865
_cell_length_c       8.171493472299918
_cell_angle_alpha    83.1154003992261
_cell_angle_beta     76.53609027476159
_cell_angle_gamma    62.238474671307046

_space_group_name_H-M_alt    "P 1"
_space_group_IT_number       1

loop_
  _space_group_symop_operation_xyz
  'x, y, z'

loop_
  _atom_site_type_symbol
  _atom_site_label
  _atom_site_symmetry_multiplicity
  _atom_site_fract_x
  _atom_site_fract_y
  _atom_site_fract_z
  _atom_site_occupancy
  Cd  Cd1       1.0  0.9999987910775302  1.5959740338013056e-06  0.9999999645951548  1.0000
  H   H1        1.0  0.45082642440915055  0.6883858676678404  0.9001286399631069  1.0000
  H   H2        1.0  0.5491721562327497  0.3116147769489076  0.09987274130880769  1.0000
  H   H3        1.0  0.7822550480567896  0.5578589229097306  0.9851051780529119  1.0000
  H   H4        1.0  0.2177428586574237  0.4421431687492046  0.014897401234954068  1.0000
  H   H5        1.0  0.48450058764213083  0.9423278491979803  0.4066589363780224  1.0000
  H   H6        1.0  0.5154960013844059  0.05767424007581922  0.5933439396836206  1.0000
  H   H7        1.0  0.16706252081217335  0.04777701844511033  0.30834077892078676  1.0000
  H   H8        1.0  0.832932751150423  0.9522250584576075  0.6916611711968841  1.0000
  H   H9        1.0  0.05978382513231391  0.7189981633546199  0.5122323168485181  1.0000
  H   H10       1.0  0.9402193849951955  0.28100100143150547  0.48776208521503855  1.0000
  H   H11       1.0  0.17042474726181192  0.6523651522528698  0.2981734129540854  1.0000
  H   H12       1.0  0.8295778172345365  0.34763259306380695  0.7018237560205947  1.0000
  H   H13       1.0  0.655058010095736  0.5937963436548658  0.4902012776384835  1.0000
  H   H14       1.0  0.34494587146455985  0.4062014140328999  0.5097968172801756  1.0000
  H   H15       1.0  0.7322817844149294  0.6891113450741103  0.630011765576235  1.0000
  H   H16       1.0  0.26772145213792686  0.3108849831582604  0.3699878735357771  1.0000
  C   C1        1.0  0.4674489407582242  0.7378368331723666  0.012139940177412697  1.0000
  C   C2        1.0  0.5325556128585798  0.26215950743108624  0.9878606248785785  1.0000
  C   C3        1.0  0.6491875543953823  0.6688614379562454  0.05800192412647924  1.0000
  C   C4        1.0  0.3508090333837115  0.33114067128946817  0.9420033973706906  1.0000
  C   C5        1.0  0.659660042565434  0.7434442160795885  0.2004565706181225  1.0000
  C   C6        1.0  0.3403405007715816  0.2565578603776829  0.799542969686648  1.0000
  C   C7        1.0  0.484952594845815  0.8808422944650545  0.2942355454282647  1.0000
  C   C8        1.0  0.5150420031890943  0.11916122947984326  0.7057676027053503  1.0000
  C   C9        1.0  0.30852714566451295  0.9421022886596264  0.2396590335723231  1.0000
  C   C10       1.0  0.6914694446094811  0.05789978064225923  0.7603413970538  1.0000
  C   C11       1.0  0.8604585814377543  0.6919969469154524  0.23017374613696961  1.0000
  C   C12       1.0  0.13953800945996153  0.3080051124004799  0.76982546177139  1.0000
  C   C13       1.0  0.09056616638837756  0.6173471155729973  0.4149469829926673  1.0000
  C   C14       1.0  0.9094383884758764  0.3826492050585417  0.5850511366277971  1.0000
  C   C15       1.0  0.7844320036389262  0.5872523814829408  0.5269834408682144  1.0000
  C   C16       1.0  0.21557120461741153  0.41274681326105184  0.4730146293486328  1.0000
  N   N1        1.0  0.3000863308060032  0.8742466408861421  0.10009316786069178  1.0000
  N   N2        1.0  0.6999082672289062  0.12575688305875593  0.8999099802729229  1.0000
  N   N3        1.0  0.9031742671576806  0.6406565347313846  0.38449292213839925  1.0000
  N   N4        1.0  0.09682630634703307  0.3593426452563906  0.6155045189082529  1.0000
  Cl  Cl1       1.0  0.7993204899469288  0.15151370821427435  0.29013989052591427  1.0000
  Cl  Cl2       1.0  0.20067876399893672  0.8484854993462466  0.7098615154478052  1.0000
  O   O1        1.0  0.9846092782709094  0.7037888396776921  0.10569103363068423  1.0000
  O   O2        1.0  0.0153879865544937  0.2962117725960525  0.8943069762617168  1.0000
