data_image0
_chemical_formula_structural       Zn6H66C54Br6N12O12
_chemical_formula_sum              "Zn6 H66 C54 Br6 N12 O12"
_cell_length_a       10.234652377034738
_cell_length_b       17.78091697501655
_cell_length_c       17.78269305929972
_cell_angle_alpha    120.01225890992804
_cell_angle_beta     89.9997716272277
_cell_angle_gamma    90.00028057223341

_space_group_name_H-M_alt    "P 1"
_space_group_IT_number       1

loop_
  _space_group_symop_operation_xyz
  'x, y, z'

loop_
  _atom_site_type_symbol
  _atom_site_label
  _atom_site_symmetry_multiplicity
  _atom_site_fract_x
  _atom_site_fract_y
  _atom_site_fract_z
  _atom_site_occupancy
  Zn  Zn1       1.0  0.8668674651547049  0.4554669226546579  0.9208217270197424  1.0000
  Zn  Zn2       1.0  0.7001872945766651  0.9207757753143325  0.4651455216730794  1.0000
  Zn  Zn3       1.0  0.5337544187430369  0.4653055810994078  0.5445869297517448  1.0000
  Zn  Zn4       1.0  0.36686647868492633  0.5445331578203677  0.07918108214265365  1.0000
  Zn  Zn5       1.0  0.20018701239384742  0.07922475620748776  0.5348544108359905  1.0000
  Zn  Zn6       1.0  0.03375953551243071  0.5346963303091383  0.45541819644358117  1.0000
  H   H1        1.0  0.9827241737954755  0.5186017971761101  0.06363806366634595  1.0000
  H   H2        1.0  0.8160505250671406  0.06366862668000552  0.5449927718611889  1.0000
  H   H3        1.0  0.6496358048513927  0.544889662690295  0.4813503788408653  1.0000
  H   H4        1.0  0.48272355111434734  0.48140306484765444  0.9363645866126901  1.0000
  H   H5        1.0  0.31605808149714687  0.9363341117328686  0.4550050765535402  1.0000
  H   H6        1.0  0.14963296749816382  0.4551108839502688  0.5186562342164577  1.0000
  H   H7        1.0  0.9493449380441277  0.37106598320529116  0.02012383814147256  1.0000
  H   H8        1.0  0.7828910613721689  0.02005142980208773  0.6489725946379324  1.0000
  H   H9        1.0  0.6166351041661927  0.6490744924976114  0.6288977049966817  1.0000
  H   H10       1.0  0.4493335430330064  0.6289380679815153  0.979880712399634  1.0000
  H   H11       1.0  0.2828958006960677  0.9799518839679774  0.35102464351661644  1.0000
  H   H12       1.0  0.11663338062344761  0.3509260673634528  0.3711077351533021  1.0000
  H   H13       1.0  0.7814965301193553  0.3926457346838319  0.049619478262144315  1.0000
  H   H14       1.0  0.6150466699017658  0.049560065932645676  0.6569730984294041  1.0000
  H   H15       1.0  0.448782906871351  0.6571004105803978  0.607438197265651  1.0000
  H   H16       1.0  0.28148711017947653  0.6073547176664817  0.9503839937842997  1.0000
  H   H17       1.0  0.11505414504429719  0.9504413364974267  0.34302474859961746  1.0000
  H   H18       1.0  0.948779757113499  0.3429024274684663  0.3925664407406018  1.0000
  H   H19       1.0  0.7683513264095225  0.5650361784725815  0.16494162688621827  1.0000
  H   H20       1.0  0.6018129070483411  0.16501112841772428  0.6001200784263432  1.0000
  H   H21       1.0  0.43532506090330253  0.599989439033969  0.435142118807313  1.0000
  H   H22       1.0  0.2683529650518254  0.4349616698596819  0.8350599354173838  1.0000
  H   H23       1.0  0.10181412161901453  0.834991977757049  0.39987042701370257  1.0000
  H   H24       1.0  0.9353241340174635  0.40001174547775514  0.5648641581954266  1.0000
  H   H25       1.0  0.8037563909720478  0.4423399966024277  0.33797021096130203  1.0000
  H   H26       1.0  0.6370253435006816  0.3379828591233932  0.8956219525132029  1.0000
  H   H27       1.0  0.47044579575322143  0.8955692334229609  0.5576720324915596  1.0000
  H   H28       1.0  0.30374854651623207  0.5576648545184993  0.6620356357483033  1.0000
  H   H29       1.0  0.1370202956660407  0.6620168590660853  0.10438322582928797  1.0000
  H   H30       1.0  0.970442228354436  0.10442610275348585  0.4423243809861718  1.0000
  H   H31       1.0  0.10675458440167063  0.4959114747534983  0.15539427016559415  1.0000
  H   H32       1.0  0.9401944516620518  0.15547583641026128  0.659498736357172  1.0000
  H   H33       1.0  0.7738182531351968  0.6594207389330363  0.5036949393306712  1.0000
  H   H34       1.0  0.6067477185657851  0.5040919853264471  0.8446082599083483  1.0000
  H   H35       1.0  0.4401981128023707  0.8445261181827916  0.34050115165612715  1.0000
  H   H36       1.0  0.2738136200342183  0.3405784203918713  0.4963053180119559  1.0000
  H   H37       1.0  0.7358130405129303  0.39674781229420825  0.18539108578779914  1.0000
  H   H38       1.0  0.5693178314254085  0.1852892875892067  0.7886637401919431  1.0000
  H   H39       1.0  0.4030701537675442  0.7886311140450812  0.6034446299750371  1.0000
  H   H40       1.0  0.2358035493448298  0.6032534252507132  0.8146126778203422  1.0000
  H   H41       1.0  0.06932115700519861  0.8147111895367231  0.21133723334705912  1.0000
  H   H42       1.0  0.9030658583328375  0.21136575918512793  0.39655355013073296  1.0000
  H   H43       1.0  0.1567012163909425  0.5384618032583999  0.3086828379607736  1.0000
  H   H44       1.0  0.9899003652589684  0.3088534375236235  0.7701914228387707  1.0000
  H   H45       1.0  0.8231903578367438  0.7700666779297977  0.4609384298461094  1.0000
  H   H46       1.0  0.6566950509654107  0.4615452302145469  0.6913217963845497  1.0000
  H   H47       1.0  0.4899005584130479  0.6911472423512135  0.22981091696704659  1.0000
  H   H48       1.0  0.32318546508180657  0.2299306663458793  0.5390591949548522  1.0000
  H   H49       1.0  0.930253687960793  0.6697799534153787  0.16963892392986665  1.0000
  H   H50       1.0  0.7632833404895935  0.16959561462054037  0.4998260975174347  1.0000
  H   H51       1.0  0.5969621444138512  0.4998681497124977  0.33033790285835346  1.0000
  H   H52       1.0  0.4302613083470987  0.3302252441529276  0.8303700845148826  1.0000
  H   H53       1.0  0.2632760045687307  0.8303934191658371  0.5001595257061949  1.0000
  H   H54       1.0  0.09695668933655101  0.5001437488447492  0.669668553338191  1.0000
  H   H55       1.0  0.7704321125989608  0.7038014245887253  0.16247525142735225  1.0000
  H   H56       1.0  0.6033415273392394  0.16242328414694637  0.4588222078636406  1.0000
  H   H57       1.0  0.4371129843875039  0.45871424107419034  0.29636772902772174  1.0000
  H   H58       1.0  0.27043939417983154  0.29619837658584197  0.8375243606243714  1.0000
  H   H59       1.0  0.10333103709447763  0.8375751516609781  0.5411662195705416  1.0000
  H   H60       1.0  0.9371074114982536  0.5412935922875235  0.703634152021472  1.0000
  H   H61       1.0  0.8723047710345357  0.6554632720888307  0.06803781946653219  1.0000
  H   H62       1.0  0.7051796250680981  0.06796087391634847  0.41262914378105364  1.0000
  H   H63       1.0  0.5390271718860262  0.4125539552784971  0.3446200505701995  1.0000
  H   H64       1.0  0.37230203841719606  0.34453632202365003  0.9319677313847095  1.0000
  H   H65       1.0  0.2051872049759069  0.932031405129713  0.5873599225292451  1.0000
  H   H66       1.0  0.039015718419761904  0.5874486630934683  0.6553753756318842  1.0000
  C   C1        1.0  0.9153094171682954  0.44358187999208093  0.15772701562585198  1.0000
  C   C2        1.0  0.7487993979600206  0.15770128321879887  0.7141613565591172  1.0000
  C   C3        1.0  0.5824332001702005  0.7140856320693486  0.5562956077306253  1.0000
  C   C4        1.0  0.4153032445336749  0.5564208833159086  0.842277661756718  1.0000
  C   C5        1.0  0.24880537307558373  0.8423013050382122  0.28583657096337584  1.0000
  C   C6        1.0  0.08242748979191111  0.28591470052735696  0.4437077738363868  1.0000
  C   C7        1.0  0.662753514728749  0.5458733758986084  0.05384054939363365  1.0000
  C   C8        1.0  0.49594691979615396  0.05393878145712699  0.5083657946776086  1.0000
  C   C9        1.0  0.32952130385989886  0.508210456466763  0.45436057077424846  1.0000
  C   C10       1.0  0.1627545464817999  0.4541265735442152  0.9461621752313077  1.0000
  C   C11       1.0  0.9959433250792176  0.9460577366477166  0.4916317137196272  1.0000
  C   C12       1.0  0.8295203131755641  0.4917872037406993  0.545641244210742  1.0000
  C   C13       1.0  0.8805033724887821  0.42019415971243024  0.06608152512067271  1.0000
  C   C14       1.0  0.7140310879693033  0.06603185201898051  0.6458836462879063  1.0000
  C   C15       1.0  0.5477311129858721  0.6459181875075187  0.5798179631596836  1.0000
  C   C16       1.0  0.38049774075421544  0.5798098246768432  0.9339218946696236  1.0000
  C   C17       1.0  0.21403834628225843  0.9339719574043953  0.3541130235974847  1.0000
  C   C18       1.0  0.047729076219937404  0.35408174291428196  0.42018578385837907  1.0000
  C   C19       1.0  0.7919351401160172  0.5645924634349199  0.10418152621564035  1.0000
  C   C20       1.0  0.6252303605263877  0.10421320528889304  0.5397514622752766  1.0000
  C   C21       1.0  0.4587999530188895  0.5396384766885658  0.4355517426965958  1.0000
  C   C22       1.0  0.29193440740540666  0.43540801223176123  0.8958219335468628  1.0000
  C   C23       1.0  0.1252326506551569  0.8957864683913215  0.4602413748617379  1.0000
  C   C24       1.0  0.9587956336611684  0.4603608349487516  0.5644519322289483  1.0000
  C   C25       1.0  0.8667191546638551  0.4530920979283478  0.29477874317200287  1.0000
  C   C26       1.0  0.7000260209991042  0.2947951696446723  0.8416889994350073  1.0000
  C   C27       1.0  0.5334814529395899  0.8416001453491333  0.546781022116498  1.0000
  C   C28       1.0  0.3667138507792984  0.5469120934819571  0.7052255799239262  1.0000
  C   C29       1.0  0.20002585194793457  0.7052045383181704  0.15831400598085554  1.0000
  C   C30       1.0  0.0334775239938168  0.1583971145793228  0.4532175059237318  1.0000
  C   C31       1.0  0.034870181901197804  0.4840199009529654  0.19357322105874886  1.0000
  C   C32       1.0  0.8682603899409788  0.19362086995366215  0.7095600908706459  1.0000
  C   C33       1.0  0.7017720106328795  0.7094423432362262  0.5156215508538792  1.0000
  C   C34       1.0  0.5348627045955254  0.5159847614156375  0.8064314055802626  1.0000
  C   C35       1.0  0.3682650507829095  0.8063810109318083  0.2904386700323085  1.0000
  C   C36       1.0  0.2017650808348179  0.2905565683246322  0.4843800029624745  1.0000
  C   C37       1.0  0.8305187949835187  0.4276367923033248  0.20988538820704142  1.0000
  C   C38       1.0  0.6639572250320002  0.20983821978170872  0.7822634522261964  1.0000
  C   C39       1.0  0.4975766193398955  0.7821998380719889  0.5723567146092918  1.0000
  C   C40       1.0  0.33051311927149385  0.5723675560778716  0.7901198645628328  1.0000
  C   C41       1.0  0.1639602976058114  0.7901627933471926  0.21773708535607736  1.0000
  C   C42       1.0  0.9975702090260371  0.21779772175837314  0.42764312851389263  1.0000
  C   C43       1.0  0.06398675715985291  0.5081556694659923  0.2788522275150243  1.0000
  C   C44       1.0  0.8972639685176347  0.27895154410130374  0.7706839423836557  1.0000
  C   C45       1.0  0.7306155420510408  0.7705456584155072  0.4913780087510131  1.0000
  C   C46       1.0  0.5639806426365866  0.4918500960037592  0.7211547015149407  1.0000
  C   C47       1.0  0.3972653963222542  0.721048691144979  0.22931761929712724  1.0000
  C   C48       1.0  0.23061085612570056  0.22945171696235883  0.5086206120362604  1.0000
  C   C49       1.0  0.8446700113021635  0.65392154493761  0.1270496153017006  1.0000
  C   C50       1.0  0.6776809305462806  0.12700585595396063  0.47319806769503714  1.0000
  C   C51       1.0  0.5114016687709153  0.4731338740806591  0.3462042001642728  1.0000
  C   C52       1.0  0.344671608964866  0.34607937317314  0.8729534577944307  1.0000
  C   C53       1.0  0.17768061165966742  0.8729854104971152  0.526787482599971  1.0000
  C   C54       1.0  0.0113965508487226  0.5268728349777518  0.6538006050948583  1.0000
  Br  Br1       1.0  0.8948621745617373  0.5567110520305005  0.8724417573466423  1.0000
  Br  Br2       1.0  0.7265353529446942  0.8727348311450526  0.31544328148159895  1.0000
  Br  Br3       1.0  0.5603559157029708  0.3155131765596479  0.44334558894227893  1.0000
  Br  Br4       1.0  0.3948580381700424  0.44328242790026445  0.12755305766538058  1.0000
  Br  Br5       1.0  0.226540304328843  0.12726963268493552  0.6845572466963789  1.0000
  Br  Br6       1.0  0.0603528105857194  0.6844896814277915  0.5566597437914069  1.0000
  N   N1        1.0  0.8877282158757327  0.4957628517644679  0.05272603271684052  1.0000
  N   N2        1.0  0.7211092544439665  0.052715205722876045  0.5569686849039144  1.0000
  N   N3        1.0  0.5546867773689428  0.556926809428127  0.5042914017929476  1.0000
  N   N4        1.0  0.38772673463212476  0.5042396121699825  0.9472777900148728  1.0000
  N   N5        1.0  0.22111405573311774  0.9472856332213266  0.4430275878166086  1.0000
  N   N6        1.0  0.054683996659370813  0.4430753865052636  0.4957145868760833  1.0000
  N   N7        1.0  0.9808647548826742  0.4935094327138926  0.32917148885567826  1.0000
  N   N8        1.0  0.814075982817812  0.3292488363713346  0.8356478929896555  1.0000
  N   N9        1.0  0.6473750307795215  0.8355207177135283  0.5061221397135184  1.0000
  N   N10       1.0  0.4808573916115648  0.5064971126374405  0.6708328509888447  1.0000
  N   N11       1.0  0.3140745019841447  0.6707505637380747  0.1643544158130224  1.0000
  N   N12       1.0  0.1473689176563369  0.16447599621415773  0.4938748048064028  1.0000
  O   O1        1.0  0.6613157417652077  0.4882430147882386  0.9732824236526553  1.0000
  O   O2        1.0  0.49442862757705813  0.9734021370213453  0.485435028146682  1.0000
  O   O3        1.0  0.32798602550723643  0.48525419562002264  0.5119449832878757  1.0000
  O   O4        1.0  0.16131484017892464  0.5117552439555765  0.026718615290356143  1.0000
  O   O5        1.0  0.9944385542076831  0.026604914228251186  0.5145710699158172  1.0000
  O   O6        1.0  0.8279846518550331  0.5147431364607725  0.488057158136769  1.0000
  O   O7        1.0  0.5658142585547311  0.5905957935841357  0.09710310197281298  1.0000
  O   O8        1.0  0.39897068335368874  0.09731197486821938  0.5071085237831241  1.0000
  O   O9        1.0  0.2326114690650911  0.506972628297049  0.40971919872930557  1.0000
  O   O10       1.0  0.06581520992419601  0.40940322602710927  0.902897075406088  1.0000
  O   O11       1.0  0.8989794132425575  0.9026923343794734  0.49288671683368784  1.0000
  O   O12       1.0  0.732608225456062  0.4930237774437314  0.5902803936098093  1.0000
