data_image0
_chemical_formula_structural       V4H16C32O20
_chemical_formula_sum              "V4 H16 C32 O20"
_cell_length_a       12.15603693404993
_cell_length_b       12.301748861549898
_cell_length_c       12.301805719655503
_cell_angle_alpha    75.87160764004369
_cell_angle_beta     60.392460580931534
_cell_angle_gamma    60.39133075235957

_space_group_name_H-M_alt    "P 1"
_space_group_IT_number       1

loop_
  _space_group_symop_operation_xyz
  'x, y, z'

loop_
  _atom_site_type_symbol
  _atom_site_label
  _atom_site_symmetry_multiplicity
  _atom_site_fract_x
  _atom_site_fract_y
  _atom_site_fract_z
  _atom_site_occupancy
  V   V1        1.0  0.68921581178445  5.6272360710268825e-06  0.6215557253774833  1.0000
  V   V2        1.0  0.3107770463382877  1.62838378586452e-05  0.3784367916701896  1.0000
  V   V3        1.0  0.06076959329761422  0.8784754044757508  0.4999902377953375  1.0000
  V   V4        1.0  0.4392285891065344  0.12153008225648435  0.5000162240240299  1.0000
  H   H1        1.0  0.87499775591305  0.0634670438103697  0.4365106833214297  1.0000
  H   H2        1.0  0.37499450745792  0.9365061779382344  0.5634601553698388  1.0000
  H   H3        1.0  0.06149934613839037  0.06351351792047671  0.5634990090174625  1.0000
  H   H4        1.0  0.6884418336208853  0.93655632238859  0.4365604032523436  1.0000
  H   H5        1.0  0.1329519978557556  0.4999859036728224  0.4999979004205457  1.0000
  H   H6        1.0  0.38290100573665603  1.3112853466239675e-05  1.1747792072500002e-05  1.0000
  H   H7        1.0  0.6170886670265007  0.9999964741332827  0.999947279450744  1.0000
  H   H8        1.0  0.36705630513486653  0.5000023836664979  0.5000188460858581  1.0000
  H   H9        1.0  0.7010400488162816  0.6930607252218123  0.559434400576997  1.0000
  H   H10       1.0  0.9535561368881957  0.3068967609911511  0.440576529748391  1.0000
  H   H11       1.0  0.010454917816147763  0.9405547612565996  0.1930933668454955  1.0000
  H   H12       1.0  0.14410607371555545  0.05941310988921346  0.8069149456410115  1.0000
  H   H13       1.0  0.7964660754609484  0.059423808385588646  0.19304610590447166  1.0000
  H   H14       1.0  0.048983189119489665  0.9405783838485676  0.806874357393248  1.0000
  H   H15       1.0  0.6058836842639223  0.6930849065491955  0.4405698719252413  1.0000
  H   H16       1.0  0.739541604130821  0.306915334185284  0.559434987852498  1.0000
  C   C1        1.0  0.04334186581103695  0.4999845799530435  0.5000219270837576  1.0000
  C   C2        1.0  0.2933150346767093  7.329851264611358e-06  1.1465418921800001e-05  1.0000
  C   C3        1.0  0.7066597336544759  2.456129618634455e-05  0.9999614170253891  1.0000
  C   C4        1.0  0.4566457544026223  0.500012837976776  0.5000387630033032  1.0000
  C   C5        1.0  0.8108245734826554  0.49998919856075474  0.5000155261336799  1.0000
  C   C6        1.0  0.06080715827548743  0.9999807719005106  0.9999925807150731  1.0000
  C   C7        1.0  0.9391886108584233  9.457004360125155e-06  0.9999701863220379  1.0000
  C   C8        1.0  0.6891808379822492  0.5000017327130878  0.5000101334650894  1.0000
  C   C9        1.0  0.9164617247256788  0.6092647948675491  0.528090594030722  1.0000
  C   C10       1.0  0.05380649914511081  0.3907053969894818  0.4719605914019596  1.0000
  C   C11       1.0  0.1945261822903818  0.9719022814513777  0.10927668842685988  1.0000
  C   C12       1.0  0.2757118110880796  0.028086566211463583  0.8907368486448277  1.0000
  C   C13       1.0  0.6961897265765061  0.028118536892478202  0.10923057721910819  1.0000
  C   C14       1.0  0.8335416949473643  0.971940348716828  0.8906973146800539  1.0000
  C   C15       1.0  0.4742482605390848  0.6092872404135434  0.4719552954343413  1.0000
  C   C16       1.0  0.5554498278204035  0.39073700415278984  0.5281060477837727  1.0000
  C   C17       1.0  0.9045287721159737  0.7290281546948665  0.5504196843881104  1.0000
  C   C18       1.0  0.18396907006810886  0.27097339049701225  0.4495929039652111  1.0000
  C   C19       1.0  0.20496790672883952  0.9495662848648082  0.22901685913610237  1.0000
  C   C20       1.0  0.383533758822729  0.05042238366024083  0.771003894741426  1.0000
  C   C21       1.0  0.5660343522391784  0.050439446241895794  0.2290113364213227  1.0000
  C   C22       1.0  0.8454773011929434  0.9495739301655919  0.7709523476344983  1.0000
  C   C23       1.0  0.36644892932226714  0.7290455040616524  0.44958478437446564  1.0000
  C   C24       1.0  0.5450641078102265  0.270972902594906  0.5504431637787519  1.0000
  C   C25       1.0  0.8003051112287383  0.608001716126324  0.5313745020689423  1.0000
  C   C26       1.0  0.9396766608733673  0.39195473657158436  0.4686637677340002  1.0000
  C   C27       1.0  0.08165068110730557  0.9686082141848616  0.1080157134348951  1.0000
  C   C28       1.0  0.1582985377389647  0.03135013003844734  0.8919900193183921  1.0000
  C   C29       1.0  0.8103355453204488  0.03138269191130425  0.10797461936402898  1.0000
  C   C30       1.0  0.9497164082215409  0.9686610091052117  0.8919414423975737  1.0000
  C   C31       1.0  0.5916796777612349  0.6080321716599358  0.46866109603423917  1.0000
  C   C32       1.0  0.6683481410706947  0.391985098593324  0.5313706527447691  1.0000
  O   O1        1.0  0.8749983976217452  0.9991574283079673  0.500751364427046  1.0000
  O   O2        1.0  0.37507404770124  0.0007540027821307471  0.49915589653821263  1.0000
  O   O3        1.0  0.1257719917555989  0.9992462407365393  0.49921063247622033  1.0000
  O   O4        1.0  0.6241602792261816  0.0008211224385235656  0.5008412998575054  1.0000
  O   O5        1.0  0.7799288331458316  0.8153554544756717  0.6081730878070175  1.0000
  O   O6        1.0  0.20349789320781744  0.18466604002531276  0.3917772997268472  1.0000
  O   O7        1.0  0.13816410889834424  0.8917896465012661  0.3153508942487733  1.0000
  O   O8        1.0  0.34527823336633656  0.10817098301579625  0.6846665618704079  1.0000
  O   O9        1.0  0.5465344297599232  0.10822113219742846  0.31533682960245807  1.0000
  O   O10       1.0  0.9700641628596646  0.8917466729299478  0.6846366967037624  1.0000
  O   O11       1.0  0.40473499411569247  0.815353297858465  0.3917673382639109  1.0000
  O   O12       1.0  0.6118815300868191  0.18466338488749307  0.6082330538246978  1.0000
  O   O13       1.0  0.01902478694273669  0.7381140896017655  0.5068949868778532  1.0000
  O   O14       1.0  0.26400656123094995  0.2618708945898192  0.4931571452506063  1.0000
  O   O15       1.0  0.27592396034404515  0.9931312315714605  0.23808000532999773  1.0000
  O   O16       1.0  0.5071108577549096  0.006881457421187157  0.7619405871662294  1.0000
  O   O17       1.0  0.48601233903778507  0.0068596940491262  0.23810245572454386  1.0000
  O   O18       1.0  0.7309664204083219  0.9931483828645254  0.7618669997378901  1.0000
  O   O19       1.0  0.242853615249274  0.7381417322127533  0.4931202526685822  1.0000
  O   O20       1.0  0.47411994914057953  0.26186649134420764  0.5068928973288748  1.0000
