data_image0
_chemical_formula_structural       Cd2H32C40N12O8
_chemical_formula_sum              "Cd2 H32 C40 N12 O8"
_cell_length_a       7.086164084570442
_cell_length_b       9.97029699695827
_cell_length_c       15.509824094583538
_cell_angle_alpha    85.3174735751272
_cell_angle_beta     76.79009297053449
_cell_angle_gamma    69.21930817908488

_space_group_name_H-M_alt    "P 1"
_space_group_IT_number       1

loop_
  _space_group_symop_operation_xyz
  'x, y, z'

loop_
  _atom_site_type_symbol
  _atom_site_label
  _atom_site_symmetry_multiplicity
  _atom_site_fract_x
  _atom_site_fract_y
  _atom_site_fract_z
  _atom_site_occupancy
  Cd  Cd1       1.0  0.0461738286817592  8.46845885647e-05  5.391549258600327e-06  1.0000
  Cd  Cd2       1.0  0.7956582474995243  0.5002075496927318  0.5001524221501512  1.0000
  H   H1        1.0  0.4451451854681494  0.898433273970845  0.6999096593185355  1.0000
  H   H2        1.0  0.043399435706298575  0.10189042247738911  0.3002840969767391  1.0000
  H   H3        1.0  0.09338388570274236  0.6016227454482319  0.2000800525336359  1.0000
  H   H4        1.0  0.8955559075058095  0.39825653270324324  0.7997473381777596  1.0000
  H   H5        1.0  0.7791382383022025  0.8427658835109639  0.5864947679376726  1.0000
  H   H6        1.0  0.2085362343797854  0.1577814158093673  0.4135935931003729  1.0000
  H   H7        1.0  0.37177552461526625  0.6571058953938264  0.08661706126562048  1.0000
  H   H8        1.0  0.11584592078268942  0.34252243843700103  0.9133530750425933  1.0000
  H   H9        1.0  0.11517091545479007  0.696118673888428  0.7955005522082318  1.0000
  H   H10       1.0  0.6071126409511577  0.30403486074433067  0.2043619318477212  1.0000
  H   H11       1.0  0.5616218995170283  0.803816956803182  0.29546917834410646  1.0000
  H   H12       1.0  0.6611365252102033  0.195984244091477  0.704565314097529  1.0000
  H   H13       1.0  0.782185456649067  0.7376662475927204  0.9056839419678937  1.0000
  H   H14       1.0  0.4256986142246575  0.2623160796423534  0.0942918654282465  1.0000
  H   H15       1.0  0.27001759596038266  0.7624737721615276  0.40565479745383465  1.0000
  H   H16       1.0  0.43867740592884263  0.23762296822603454  0.5942432579916286  1.0000
  H   H17       1.0  0.20151123302479598  0.08004151995970692  0.5727426427572695  1.0000
  H   H18       1.0  0.853618515547424  0.920079308835604  0.4273675232416565  1.0000
  H   H19       1.0  0.03111698825942001  0.4198698878952101  0.07260218589924249  1.0000
  H   H20       1.0  0.5239786391822037  0.579878095798243  0.9273517917656449  1.0000
  H   H21       1.0  0.047484331905963004  0.0398810579351547  0.6721654408636653  1.0000
  H   H22       1.0  0.7588826886589076  0.9602628110158802  0.3279746511511802  1.0000
  H   H23       1.0  0.8370768027146127  0.4597991907542537  0.1719951412149214  1.0000
  H   H24       1.0  0.46904311488183487  0.5400266457203244  0.827957060705252  1.0000
  H   H25       1.0  0.9670587263553256  0.056998989189736414  0.569107551232328  1.0000
  H   H26       1.0  0.5924488817967272  0.9433015343268707  0.4310513454689868  1.0000
  H   H27       1.0  0.7736868620144792  0.4429607022228054  0.06890118131275358  1.0000
  H   H28       1.0  0.2859689746672413  0.5566226234380878  0.9310927204624306  1.0000
  H   H29       1.0  0.30900280106499184  0.5238389834523004  0.6153257626153916  1.0000
  H   H30       1.0  0.44930729918225837  0.476370068928169  0.3845488135123887  1.0000
  H   H31       1.0  0.583859623778359  0.9760503100073734  0.11529821915068786  1.0000
  H   H32       1.0  0.6746325775692978  0.023661437686890007  0.8849159431670088  1.0000
  C   C1        1.0  0.3952469407819804  0.8681703680621169  0.8771381770857403  1.0000
  C   C2        1.0  0.14059256294441977  0.1318520711472928  0.12295369868657251  1.0000
  C   C3        1.0  0.013181578560711768  0.6319626266127685  0.3773140166849486  1.0000
  C   C4        1.0  0.0234977460627378  0.3680198343442028  0.622438775964838  1.0000
  C   C5        1.0  0.5940984512864634  0.8220055939532571  0.8091117692347964  1.0000
  C   C6        1.0  0.22532183926055174  0.17805655144496063  0.19096950416386693  1.0000
  C   C7        1.0  0.1661784232903686  0.6779143331510439  0.3092301147296368  1.0000
  C   C8        1.0  0.15392802988635879  0.3219854333374954  0.6906598102027814  1.0000
  C   C9        1.0  0.5931115124029419  0.850923539730104  0.7192759571724493  1.0000
  C   C10       1.0  0.16337446192574834  0.14933757511528253  0.2808331114771292  1.0000
  C   C11       1.0  0.1941274665245771  0.6489543097600006  0.2194170443884289  1.0000
  C   C12       1.0  0.06291223000120996  0.3508472156795008  0.7804714269963142  1.0000
  C   C13       1.0  0.7777231822699232  0.8232919109749943  0.6567244469163852  1.0000
  C   C14       1.0  0.2579712479938863  0.17700899089516747  0.34332856665386663  1.0000
  C   C15       1.0  0.351217392247122  0.6764951508834544  0.1568254603198156  1.0000
  C   C16       1.0  0.18477980733104016  0.3231872701230145  0.8431281986038783  1.0000
  C   C17       1.0  0.9635397442172859  0.7693456973495714  0.6855957743067052  1.0000
  C   C18       1.0  0.41882143694569157  0.23089577365924197  0.3143696784960852  1.0000
  C   C19       1.0  0.4832532145032999  0.7304694481439141  0.1855785061212671  1.0000
  C   C20       1.0  0.39947427087045645  0.2692243317198475  0.8143827201686307  1.0000
  C   C21       1.0  0.9683772952705284  0.7358735088671935  0.7744595171195954  1.0000
  C   C22       1.0  0.4790023905701446  0.2642574486289675  0.2254839973849485  1.0000
  C   C23       1.0  0.45456270133674076  0.764020568873015  0.2744185514320634  1.0000
  C   C24       1.0  0.49329835702683783  0.23581806261101698  0.7255462298731317  1.0000
  C   C25       1.0  0.7826266081959542  0.760709340017776  0.8358933697205089  1.0000
  C   C26       1.0  0.3794441856404802  0.23932999854468315  0.1641008977661187  1.0000
  C   C27       1.0  0.29352315977379817  0.7392848453952398  0.33589853525036517  1.0000
  C   C28       1.0  0.3692159617571131  0.26067790026255727  0.6640139040532418  1.0000
  C   C29       1.0  0.10110538574001281  0.018371319838799107  0.6006198499264457  1.0000
  C   C30       1.0  0.7195308230001415  0.9818391482124512  0.3995066336888867  1.0000
  C   C31       1.0  0.8691639048264507  0.4815123458235319  0.10046512534196239  1.0000
  C   C32       1.0  0.45149171518292536  0.5182009773517962  0.8994762357712817  1.0000
  C   C33       1.0  0.22016714529515002  0.8640190634809316  0.5850612585491888  1.0000
  C   C34       1.0  0.6692211613003992  0.13617618567250392  0.4149942631247255  1.0000
  C   C35       1.0  0.8342649401538368  0.6358906198904464  0.0849564454026961  1.0000
  C   C36       1.0  0.5552822259335387  0.3638546952117778  0.9149899483792368  1.0000
  C   C37       1.0  0.3124302580145866  0.6303258905256469  0.5967027832002714  1.0000
  C   C38       1.0  0.5402612235799893  0.36987488273145885  0.40322966753214473  1.0000
  C   C39       1.0  0.6934645391430296  0.8695766982719275  0.09662234335992538  1.0000
  C   C40       1.0  0.6592947788305635  0.13016756941810573  0.9035018278165055  1.0000
  N   N1        1.0  0.46601620342193667  0.6615743596347983  0.5441280958982944  1.0000
  N   N2        1.0  0.672218560063584  0.338548507926788  0.45591811667788557  1.0000
  N   N3        1.0  0.8781774562190562  0.8383568112661807  0.04404420974963592  1.0000
  N   N4        1.0  0.7601995046879251  0.16145981515884958  0.9560808224899375  1.0000
  N   N5        1.0  0.40953208676606306  0.8087284103038713  0.5365251737567291  1.0000
  N   N6        1.0  0.7548017135728884  0.19140045739976594  0.4635838398844498  1.0000
  N   N7        1.0  0.9684406829434523  0.6912098497287075  0.03641278802888339  1.0000
  N   N8        1.0  0.6960332866634502  0.308624648718407  0.963587498736409  1.0000
  N   N9        1.0  0.15399963327777047  0.7541475928563202  0.6239992013876616  1.0000
  N   N10       1.0  0.5326262372771355  0.24609532086372354  0.3759273441573754  1.0000
  N   N11       1.0  0.6585018316129237  0.7457434676268732  0.12392622410239082  1.0000
  N   N12       1.0  0.5281951495260131  0.2539668084260214  0.8760792179438893  1.0000
  O   O1        1.0  0.22807530951784138  0.9365845264650902  0.8511408096805864  1.0000
  O   O2        1.0  0.015747632181735617  0.0634348860772249  0.1489551790511854  1.0000
  O   O3        1.0  0.9141076281307366  0.5637008852486077  0.3513566151465568  1.0000
  O   O4        1.0  0.8303198886080382  0.43664249477172484  0.6483337254677224  1.0000
  O   O5        1.0  0.4023768058688051  0.8433715114090886  0.9586454615558538  1.0000
  O   O6        1.0  0.20449371600599153  0.1566501600395114  0.0414351010159137  1.0000
  O   O7        1.0  0.9955504796396043  0.6567858610384646  0.4588026708452304  1.0000
  O   O8        1.0  0.11222570422906118  0.3428944654199952  0.5410234418949926  1.0000
