data_image0
_chemical_formula_structural       Cd2H12C4N20Cl4
_chemical_formula_sum              "Cd2 H12 C4 N20 Cl4"
_cell_length_a       3.787093312552131
_cell_length_b       7.8271835017107785
_cell_length_c       16.64037768000572
_cell_angle_alpha    89.99992765062412
_cell_angle_beta     89.9999431065665
_cell_angle_gamma    96.75714818799568

_space_group_name_H-M_alt    "P 1"
_space_group_IT_number       1

loop_
  _space_group_symop_operation_xyz
  'x, y, z'

loop_
  _atom_site_type_symbol
  _atom_site_label
  _atom_site_symmetry_multiplicity
  _atom_site_fract_x
  _atom_site_fract_y
  _atom_site_fract_z
  _atom_site_occupancy
  Cd  Cd1       1.0  0.0  0.0  0.0  1.0000
  Cd  Cd2       1.0  0.5000014124211347  0.49999972663047737  0.4999998601893836  1.0000
  H   H1        1.0  0.725458605554266  0.3770451214193358  0.053023836893281384  1.0000
  H   H2        1.0  0.7745383950271859  0.1229550045807031  0.5530251784260258  1.0000
  H   H3        1.0  0.2745415738881149  0.6229543103768193  0.9469758834858126  1.0000
  H   H4        1.0  0.22546178441519518  0.8770444272154518  0.4469745419530611  1.0000
  H   H5        1.0  0.7014663977242817  0.5091101254234188  0.1389130768880733  1.0000
  H   H6        1.0  0.7985316318943703  0.990890052892112  0.6389135920378166  1.0000
  H   H7        1.0  0.2985337817180991  0.49088930637273614  0.8610866434910205  1.0000
  H   H8        1.0  0.2014685475480107  0.009109378904042799  0.36108612834127735  1.0000
  H   H9        1.0  0.8546377888430358  0.3662978028794583  0.2787837244686528  1.0000
  H   H10       1.0  0.6453607764058162  0.13370168008669478  0.7787844897826871  1.0000
  H   H11       1.0  0.1453626593638546  0.6337029152729485  0.7212159959100218  1.0000
  H   H12       1.0  0.3546367576352338  0.8662977302437794  0.221215831544626  1.0000
  C   C1        1.0  0.9097785316412155  0.28254971261694806  0.1556459126930037  1.0000
  C   C2        1.0  0.5902082023755284  0.21745388453755507  0.6556460403577162  1.0000
  C   C3        1.0  0.09022191656566746  0.7174510055354515  0.8443538076856711  1.0000
  C   C4        1.0  0.4097896004300238  0.7825468121491636  0.3443542809691849  1.0000
  N   N1        1.0  0.7939102857829496  0.4063030605997397  0.1113734570782086  1.0000
  N   N2        1.0  0.7060962107850982  0.09369312044853471  0.6113724287895649  1.0000
  N   N3        1.0  0.20609253905932684  0.5936963926612221  0.8886262633005586  1.0000
  N   N4        1.0  0.2939039686558472  0.906306311346739  0.3886278925374214  1.0000
  N   N5        1.0  0.943003920773407  0.28109710629392043  0.2369884138425888  1.0000
  N   N6        1.0  0.5569972211933134  0.21890123480341123  0.7369873467548088  1.0000
  N   N7        1.0  0.056996258667531684  0.7189023255013537  0.7630119074843975  1.0000
  N   N8        1.0  0.4430003128477439  0.781098175527056  0.2630129745725043  1.0000
  N   N9        1.0  0.08026905579526297  0.1364049707715792  0.25917495650595856  1.0000
  N   N10       1.0  0.4197361379645129  0.3635927495780819  0.7591755184275399  1.0000
  N   N11       1.0  0.9197311236471181  0.8635944610245829  0.7408247638731282  1.0000
  N   N12       1.0  0.5802666868777564  0.6364067036828727  0.2408242019512201  1.0000
  N   N13       1.0  0.12911469851741944  0.05253508820671018  0.19397813812445716  1.0000
  N   N14       1.0  0.37088049451214283  0.4474640245406363  0.6939780608068488  1.0000
  N   N15       1.0  0.8708854809263966  0.9474643435903329  0.8060209813067374  1.0000
  N   N16       1.0  0.6291173082948517  0.5525366721469637  0.3060216595721528  1.0000
  N   N17       1.0  0.028150837081632595  0.13656914112326748  0.1284165123102241  1.0000
  N   N18       1.0  0.47185578892757  0.36343282317009334  0.6284158598668554  1.0000
  N   N19       1.0  0.971849342359313  0.8634302906720065  0.8715838090167622  1.0000
  N   N20       1.0  0.5281470359132638  0.63656663008998  0.3715844614598041  1.0000
  Cl  Cl1       1.0  0.5536765622082171  0.21109958750775348  0.9470288561859803  1.0000
  Cl  Cl2       1.0  0.9463238430359483  0.28889942171250027  0.4470293168676989  1.0000
  Cl  Cl3       1.0  0.4463236172327285  0.7888998442875206  0.052971465141006  1.0000
  Cl  Cl4       1.0  0.05367660516949968  0.7111012964390112  0.5529710044588684  1.0000
