data_image0
_chemical_formula_structural       Gd2H12C18Cl6O18
_chemical_formula_sum              "Gd2 H12 C18 Cl6 O18"
_cell_length_a       9.808245264686152
_cell_length_b       9.80821113913494
_cell_length_c       10.888639740908506
_cell_angle_alpha    94.6780771139952
_cell_angle_beta     94.6768432114313
_cell_angle_gamma    115.53955529303454

_space_group_name_H-M_alt    "P 1"
_space_group_IT_number       1

loop_
  _space_group_symop_operation_xyz
  'x, y, z'

loop_
  _atom_site_type_symbol
  _atom_site_label
  _atom_site_symmetry_multiplicity
  _atom_site_fract_x
  _atom_site_fract_y
  _atom_site_fract_z
  _atom_site_occupancy
  Gd  Gd1       1.0  0.7818457527109786  0.7818492251962327  0.1263774685010546  1.0000
  Gd  Gd2       1.0  0.21815601832639686  0.21815068828826867  0.8736243183179653  1.0000
  H   H1        1.0  0.5789511288418011  0.6739099286737015  0.31628136044034244  1.0000
  H   H2        1.0  0.3260941093196053  0.42104844783955303  0.6837242171569002  1.0000
  H   H3        1.0  0.4210509719165074  0.3260933101103944  0.6837179012876788  1.0000
  H   H4        1.0  0.6739065643890783  0.5789537074078197  0.3162785605230098  1.0000
  H   H5        1.0  0.5166522820231164  0.6094271349684136  0.9038319492082889  1.0000
  H   H6        1.0  0.3905685380733032  0.4833454187864207  0.09617112378604989  1.0000
  H   H7        1.0  0.48334422982874503  0.390574884463156  0.0961696386074351  1.0000
  H   H8        1.0  0.6094260496683502  0.5166543570104097  0.9038329567693565  1.0000
  H   H9        1.0  0.10526013871575657  0.011089988186270702  0.1163905829685064  1.0000
  H   H10       1.0  0.9889085316217745  0.8947380019096656  0.883609981172846  1.0000
  H   H11       1.0  0.8947431645856907  0.9889111140875712  0.8836122942130513  1.0000
  H   H12       1.0  0.011092721312131492  0.10526073042628777  0.11638986117107919  1.0000
  C   C1        1.0  0.8826518837750753  0.9753732455537619  0.4004484698711792  1.0000
  C   C2        1.0  0.024638262667949107  0.11734722954985703  0.5995575284601244  1.0000
  C   C3        1.0  0.11734901544355128  0.0246344633463593  0.5995509982031777  1.0000
  C   C4        1.0  0.9753602785085603  0.8826571387690763  0.40044617293034424  1.0000
  C   C5        1.0  0.9113711252339413  0.0886359370975072  0.5000074349292943  1.0000
  C   C6        1.0  0.08863234145223946  0.9113729892832794  0.49999319065791764  1.0000
  C   C7        1.0  0.6288630859611857  0.9714791501734226  0.981594024748169  1.0000
  C   C8        1.0  0.028514273727914537  0.3711411284445206  0.018403452527031995  1.0000
  C   C9        1.0  0.37114029950489413  0.028517369090977202  0.01840489388519019  1.0000
  C   C10       1.0  0.9714760459390064  0.6288560726781043  0.9815910100499038  1.0000
  C   C11       1.0  0.5156269205857029  0.8890131524264718  0.0703650143987957  1.0000
  C   C12       1.0  0.1109870149719754  0.4843775162349075  0.929634117043733  1.0000
  C   C13       1.0  0.4843775632125329  0.11098345868082762  0.9296367351735455  1.0000
  C   C14       1.0  0.8890088936013925  0.515620904240251  0.0703580194455  1.0000
  C   C15       1.0  0.3959445812538149  0.9271451527420496  0.09006184859251219  1.0000
  C   C16       1.0  0.0728477801045528  0.6040528819252415  0.9099342291446249  1.0000
  C   C17       1.0  0.6040566917195206  0.072851267038665  0.9099350932144289  1.0000
  C   C18       1.0  0.9271436158481734  0.39594205638398705  0.09005832130853257  1.0000
  Cl  Cl1       1.0  0.80752382818698  0.19249434594555478  0.5000082163870943  1.0000
  Cl  Cl2       1.0  0.19248541478473402  0.8075113220309332  0.49999073087864315  1.0000
  Cl  Cl3       1.0  0.2741940753410645  0.8412651547644145  0.1952641370264487  1.0000
  Cl  Cl4       1.0  0.15872860475026582  0.7258048096316045  0.8047315089712583  1.0000
  Cl  Cl5       1.0  0.7258038875547612  0.15872564634010902  0.8047368341979603  1.0000
  Cl  Cl6       1.0  0.8412657094338342  0.27419469250840933  0.19526059516664415  1.0000
  O   O1        1.0  0.7817384682380392  0.9398626713591515  0.3072108645820322  1.0000
  O   O2        1.0  0.06014151285746999  0.2182640952873527  0.6927973554140435  1.0000
  O   O3        1.0  0.2182618547068316  0.06013613753810181  0.6927935169259882  1.0000
  O   O4        1.0  0.939855724516377  0.7817323149806938  0.3072039241060196  1.0000
  O   O5        1.0  0.7416918862038527  0.9396220661646736  0.9802126378004488  1.0000
  O   O6        1.0  0.06038063189737391  0.2583103123112096  0.0197894178909905  1.0000
  O   O7        1.0  0.2583093887764035  0.060379020827575396  0.019791947606222497  1.0000
  O   O8        1.0  0.9396188593076074  0.741691666891171  0.9802068437983991  1.0000
  O   O9        1.0  0.5378147917829351  0.786265439643742  0.11989227151504168  1.0000
  O   O10       1.0  0.2137386818336111  0.4621900693722196  0.8801114465205799  1.0000
  O   O11       1.0  0.4621892580833844  0.2137300745171089  0.8801112186337362  1.0000
  O   O12       1.0  0.7862608504536864  0.5378096183254473  0.1198828358947139  1.0000
  O   O13       1.0  0.6072068899546537  0.6072078576662963  0.2638635649426107  1.0000
  O   O14       1.0  0.39279339090443705  0.39279090912990716  0.7361389740396405  1.0000
  O   O15       1.0  0.615147173036675  0.6151497980954234  0.9351323628083037  1.0000
  O   O16       1.0  0.384850457186772  0.38485000062379277  0.0648691554094185  1.0000
  O   O17       1.0  0.014326297649496698  0.014325571014410298  0.1472091736941152  1.0000
  O   O18       1.0  0.9856780198125463  0.9856755389002243  0.8527928493748788  1.0000
