data_image0
_chemical_formula_structural       Zn3H28C38S6N10O12
_chemical_formula_sum              "Zn3 H28 C38 S6 N10 O12"
_cell_length_a       8.848511491564702
_cell_length_b       11.501763367490442
_cell_length_c       12.903631736121092
_cell_angle_alpha    111.54057020677837
_cell_angle_beta     108.2302714279721
_cell_angle_gamma    93.26061537890398

_space_group_name_H-M_alt    "P 1"
_space_group_IT_number       1

loop_
  _space_group_symop_operation_xyz
  'x, y, z'

loop_
  _atom_site_type_symbol
  _atom_site_label
  _atom_site_symmetry_multiplicity
  _atom_site_fract_x
  _atom_site_fract_y
  _atom_site_fract_z
  _atom_site_occupancy
  Zn  Zn1       1.0  0.4999986612170276  9.560795249002646e-07  0.9999999219899607  1.0000
  Zn  Zn2       1.0  0.3487987636803567  0.24791636248983195  0.1503256420479815  1.0000
  Zn  Zn3       1.0  0.6512011575864706  0.7520849842575144  0.8496721720826343  1.0000
  H   H1        1.0  0.05685360075507623  0.7964637648502658  0.024084738504605296  1.0000
  H   H2        1.0  0.9431489089998735  0.2035385525436268  0.9759170549982841  1.0000
  H   H3        1.0  0.9919062746377919  0.9311240236987072  0.1118174042385788  1.0000
  H   H4        1.0  0.008096230494999199  0.06887829262187489  0.8881851628914105  1.0000
  H   H5        1.0  0.3064481465854385  0.2929216175439605  0.7968297500622228  1.0000
  H   H6        1.0  0.6935507810354551  0.707080665607293  0.20317203020756122  1.0000
  H   H7        1.0  0.1190809198838281  0.18730413298249718  0.7453545041095282  1.0000
  H   H8        1.0  0.8809182389502297  0.8126991051423216  0.25464608919644155  1.0000
  H   H9        1.0  0.9341125979276939  0.2578089923002054  0.21255026049817624  1.0000
  H   H10       1.0  0.06588417589843226  0.7421942237117275  0.7874498082343209  1.0000
  H   H11       1.0  0.8267357000490778  0.11041837790011036  0.19491321479529228  1.0000
  H   H12       1.0  0.17326354606687736  0.8895801082198174  0.8050850657183588  1.0000
  H   H13       1.0  0.15126615783439226  0.426857432733918  0.05958002244793902  1.0000
  H   H14       1.0  0.8487410485210134  0.5731496841105894  0.9404228121128924  1.0000
  H   H15       1.0  0.9819476993823671  0.585366753818654  0.1333661532786792  1.0000
  H   H16       1.0  0.01805218490715529  0.41463458434216693  0.8666378498687592  1.0000
  H   H17       1.0  0.9808570068746786  0.640378280337714  0.3408712648862248  1.0000
  H   H18       1.0  0.019134468615540395  0.35961252037135677  0.6591282372603686  1.0000
  H   H19       1.0  0.14606898487610923  0.5369746904813795  0.46360468069008937  1.0000
  H   H20       1.0  0.8539289016937985  0.4630180722370766  0.5363960798438541  1.0000
  H   H21       1.0  0.3101128408018993  0.46626235671238453  0.5665081302827133  1.0000
  H   H22       1.0  0.6898890949505796  0.5337323512691439  0.43348949592959213  1.0000
  H   H23       1.0  0.47755155907179875  0.3444810482114419  0.663747631234628  1.0000
  H   H24       1.0  0.5224520269888232  0.6555155797003349  0.3362486569638747  1.0000
  H   H25       1.0  0.5968800146913152  0.17202804099548524  0.5432745107629131  1.0000
  H   H26       1.0  0.4031193279508685  0.8279656952661796  0.45671990970422643  1.0000
  H   H27       1.0  0.5459784211433032  0.13779909329770845  0.3322153780186098  1.0000
  H   H28       1.0  0.45402346892673506  0.8622003763485534  0.6677775983420772  1.0000
  C   C1        1.0  0.16677375414180054  0.9823774651012723  0.34375769874367973  1.0000
  C   C2        1.0  0.8332323377472122  0.017624886535266195  0.6562441079923076  1.0000
  C   C3        1.0  0.2118069025985321  0.075078569451982  0.5412681636693932  1.0000
  C   C4        1.0  0.7881929955574805  0.9249227719287914  0.4587335185967378  1.0000
  C   C5        1.0  0.04879731289626928  0.14683984106502374  0.41450217393521877  1.0000
  C   C6        1.0  0.9512033476925054  0.8531596089382772  0.5854967291555582  1.0000
  C   C7        1.0  0.09645029526716085  0.8900715612157907  0.09930691635674552  1.0000
  C   C8        1.0  0.9035491450846679  0.1099278712911698  0.9006963662099137  1.0000
  C   C9        1.0  0.2102439195424992  0.9776551916368488  0.07970889396260351  1.0000
  C   C10       1.0  0.7897476172192555  0.022346069128886398  0.920293273177691  1.0000
  C   C11       1.0  0.251562200931339  0.19748751871243536  0.7818846082798102  1.0000
  C   C12       1.0  0.7484353260832249  0.8025138037753972  0.21811422853154733  1.0000
  C   C13       1.0  0.3014244592877161  0.18004781955720967  0.8992306207532221  1.0000
  C   C14       1.0  0.6985744821996603  0.8199544668139962  0.10076883863525406  1.0000
  C   C15       1.0  0.8481264438735323  0.21419115020871962  0.23958427473143462  1.0000
  C   C16       1.0  0.1518725617849341  0.7858063787910082  0.7604167400002452  1.0000
  C   C17       1.0  0.6922786898300899  0.2671100082367984  0.21754346716071643  1.0000
  C   C18       1.0  0.3077191233244037  0.7328875097064936  0.7824572852842236  1.0000
  C   C19       1.0  0.1447338940657019  0.4547473770375276  0.14824735500664593  1.0000
  C   C20       1.0  0.8552728637298515  0.5452578330797947  0.8517555326005067  1.0000
  C   C21       1.0  0.05190882903456637  0.5417868974458171  0.18976642474766686  1.0000
  C   C22       1.0  0.9480924789721001  0.4582154067450117  0.8102366537226898  1.0000
  C   C23       1.0  0.05161960711948408  0.5723038514555653  0.3048480955301898  1.0000
  C   C24       1.0  0.9483744111764308  0.42769268156478546  0.6951507361370587  1.0000
  C   C25       1.0  0.14439558884291154  0.515065831459168  0.37382496042856417  1.0000
  C   C26       1.0  0.8556050486350486  0.48493361317755285  0.6261778107977349  1.0000
  C   C27       1.0  0.23515773027749992  0.42864050094956946  0.32697575377069654  1.0000
  C   C28       1.0  0.7648429210669504  0.5713589469070964  0.6730246965742879  1.0000
  C   C29       1.0  0.3362147983448124  0.3639388539265268  0.39519684936058747  1.0000
  C   C30       1.0  0.6637854136841097  0.636058689349589  0.6048021067765177  1.0000
  C   C31       1.0  0.3609505777530941  0.39195691375169867  0.5151197534661236  1.0000
  C   C32       1.0  0.6390506140552646  0.6080396899005647  0.484877557413121  1.0000
  C   C33       1.0  0.4563994320765445  0.3238080613731284  0.5702786416839416  1.0000
  C   C34       1.0  0.5436043759529239  0.6761895193655787  0.4297180068049541  1.0000
  C   C35       1.0  0.5235838358526194  0.2297220383566198  0.5053960449550629  1.0000
  C   C36       1.0  0.47641563685434807  0.7702774016635486  0.49460182222187393  1.0000
  C   C37       1.0  0.49540314449505013  0.20927371023803687  0.38699958637466386  1.0000
  C   C38       1.0  0.5045978299666274  0.7907219416606067  0.6129965905870876  1.0000
  S   S1        1.0  0.20338641203390753  0.8611888654324034  0.22963558142619442  1.0000
  S   S2        1.0  0.7966180434134529  0.13881156949383205  0.7703652424422741  1.0000
  S   S3        1.0  0.3156864278795624  0.07400704351191217  0.6792960547909317  1.0000
  S   S4        1.0  0.6843113026151996  0.9259952275095881  0.3207062368192197  1.0000
  S   S5        1.0  0.9305389604256719  0.25952913655113  0.39963610322858045  1.0000
  S   S6        1.0  0.06945960591725957  0.7404664878680547  0.6003634172952133  1.0000
  N   N1        1.0  0.2417446674306518  0.9843200302379457  0.45214092606678236  1.0000
  N   N2        1.0  0.7582608932387699  0.01568516774962349  0.5478624728807374  1.0000
  N   N3        1.0  0.11479879820289801  0.15832970402451704  0.5282671440421751  1.0000
  N   N4        1.0  0.8851996901024606  0.8416706745461936  0.4717331420197298  1.0000
  N   N5        1.0  0.06997842817914089  0.06179041682474209  0.318914116666086  1.0000
  N   N6        1.0  0.9300276683320375  0.9382119358851141  0.6810869164427942  1.0000
  N   N7        1.0  0.23353357661809326  0.399098072289391  0.2149121814808055  1.0000
  N   N8        1.0  0.7664722152644999  0.6009080806717433  0.7850900305028999  1.0000
  N   N9        1.0  0.40507610111293246  0.27523913745256573  0.3339738885724088  1.0000
  N   N10       1.0  0.5949238247760462  0.7247622103680982  0.6660231519310998  1.0000
  O   O1        1.0  0.3220274607422339  0.9305371508355615  0.046980225938312956  1.0000
  O   O2        1.0  0.6779674500512199  0.06946319456582727  0.9530192732633864  1.0000
  O   O3        1.0  0.1837563978879544  0.09010639423876647  0.0999879746401291  1.0000
  O   O4        1.0  0.8162414152665463  0.9098911237045254  0.9000127778048181  1.0000
  O   O5        1.0  0.3391120295469463  0.07450737241939717  0.894910632147429  1.0000
  O   O6        1.0  0.6608871292871116  0.9254958657054216  0.10508996115853358  1.0000
  O   O7        1.0  0.29707052808858947  0.27204623713714676  0.9902193176008255  1.0000
  O   O8        1.0  0.7029305718157132  0.7279551174466972  0.009781079697830757  1.0000
  O   O9        1.0  0.5583219561074273  0.18366353911252983  0.14759581689843057  1.0000
  O   O10       1.0  0.44167414718999953  0.816336817345295  0.8524039445900016  1.0000
  O   O11       1.0  0.6964016367290994  0.38286560499960837  0.2690523924012637  1.0000
  O   O12       1.0  0.303598792646504  0.6171328900301276  0.7309476976533347  1.0000
