data_image0
_chemical_formula_structural       Ag4H20C28N16O16
_chemical_formula_sum              "Ag4 H20 C28 N16 O16"
_cell_length_a       5.225655716035869
_cell_length_b       13.189313129949678
_cell_length_c       14.43851054732411
_cell_angle_alpha    114.41468791249855
_cell_angle_beta     90.00018934510281
_cell_angle_gamma    89.99989760635519

_space_group_name_H-M_alt    "P 1"
_space_group_IT_number       1

loop_
  _space_group_symop_operation_xyz
  'x, y, z'

loop_
  _atom_site_type_symbol
  _atom_site_label
  _atom_site_symmetry_multiplicity
  _atom_site_fract_x
  _atom_site_fract_y
  _atom_site_fract_z
  _atom_site_occupancy
  Ag  Ag1       1.0  0.25981787678783524  0.11566365216610557  0.528848529486794  1.0000
  Ag  Ag2       1.0  0.7598705339883763  0.3843112154091486  0.9711404530842245  1.0000
  Ag  Ag3       1.0  0.7401888085488723  0.8843278644928247  0.47114660807365977  1.0000
  Ag  Ag4       1.0  0.24015528775545653  0.6156719842946287  0.028852311677461284  1.0000
  H   H1        1.0  0.759515083633609  0.8465811349431999  0.6911270611865489  1.0000
  H   H2        1.0  0.259500761564702  0.6534285334239625  0.8088709583745838  1.0000
  H   H3        1.0  0.24048203346552552  0.15341859060158208  0.3088620977580803  1.0000
  H   H4        1.0  0.7404963555016622  0.3465788836474955  0.1911362734227068  1.0000
  H   H5        1.0  0.6538388271314587  0.804300336907154  0.8442837209954773  1.0000
  H   H6        1.0  0.153819810525043  0.6956999296503735  0.6557078358633603  1.0000
  H   H7        1.0  0.3461850808371524  0.19570444729806974  0.1557121509212607  1.0000
  H   H8        1.0  0.8461868747459248  0.30430243780283917  0.3442933789663414  1.0000
  H   H9        1.0  0.27201450853566195  0.89045935122283  0.9486857756644439  1.0000
  H   H10       1.0  0.7719723656071409  0.6095470922915992  0.5513173157826969  1.0000
  H   H11       1.0  0.7280323630353678  0.10955054567842379  0.05132098493308491  1.0000
  H   H12       1.0  0.22802857876270363  0.3904544425579387  0.4486835921609113  1.0000
  H   H13       1.0  0.007345251452861101  0.0294020692488246  0.909722587519596  1.0000
  H   H14       1.0  0.5073271107469282  0.47060150720945854  0.5902812828911763  1.0000
  H   H15       1.0  0.9926690884021596  0.970593646434075  0.09027686825058366  1.0000
  H   H16       1.0  0.4926642654007694  0.5294075480327859  0.409724474796512  1.0000
  H   H17       1.0  0.9147611600299328  0.19750209246817  0.708591328944685  1.0000
  H   H18       1.0  0.41478884274954453  0.3024905634401235  0.7914045426230487  1.0000
  H   H19       1.0  0.0851823753462284  0.8024877409196446  0.2914018028647332  1.0000
  H   H20       1.0  0.585196792569242  0.6975059938192344  0.20859591593616497  1.0000
  C   C1        1.0  0.5995311487398567  0.8822483875051785  0.7426068358072656  1.0000
  C   C2        1.0  0.09952102286125349  0.6177568312137465  0.7573912781664162  1.0000
  C   C3        1.0  0.400464054726207  0.11775318336496098  0.2573968559375501  1.0000
  C   C4        1.0  0.9004741805847304  0.3822471744046324  0.242608462545455  1.0000
  C   C5        1.0  0.5354016244715254  0.8604392958349221  0.8246612194265098  1.0000
  C   C6        1.0  0.0353795632705456  0.639565788126468  0.6753360145630792  1.0000
  C   C7        1.0  0.4646050607019419  0.13957800434378945  0.1753413434904871  1.0000
  C   C8        1.0  0.9646041583965472  0.3604332579186006  0.32466466867460747  1.0000
  C   C9        1.0  0.3197862988072444  0.9118380211093036  0.8854931177749918  1.0000
  C   C10       1.0  0.8197694430710456  0.5881693036617149  0.6145069379018651  1.0000
  C   C11       1.0  0.6802337818670169  0.08817096210863437  0.1145070723350017  1.0000
  C   C12       1.0  0.18022384676870468  0.4118305839973359  0.38549474817976653  1.0000
  C   C13       1.0  0.17153261893256652  0.9863784403629197  0.8643476103486663  1.0000
  C   C14       1.0  0.6715206199005692  0.5136244577601159  0.6356525734007192  1.0000
  C   C15       1.0  0.8284817208880357  0.013622225875479897  0.1356502069268544  1.0000
  C   C16       1.0  0.3284745835446757  0.48638044350220594  0.3643523458555293  1.0000
  C   C17       1.0  0.23843779249560978  0.008063528951595298  0.7800653650227716  1.0000
  C   C18       1.0  0.7384349386807827  0.4919371252017014  0.7199344612384806  1.0000
  C   C19       1.0  0.7615574109951949  0.9919338609151962  0.21993540042802803  1.0000
  C   C20       1.0  0.26155452387904177  0.508063541012298  0.28006335600134946  1.0000
  C   C21       1.0  0.14483757252159526  0.07358137279187098  0.7308971821837815  1.0000
  C   C22       1.0  0.6448548212576384  0.4264198764171353  0.7690985066915701  1.0000
  C   C23       1.0  0.8551423218993505  0.9264134922460978  0.2691005747543968  1.0000
  C   C24       1.0  0.3551556912835849  0.5735824820332666  0.23090201219126522  1.0000
  C   C25       1.0  0.9300954849774496  0.14969723397487658  0.7560568084510065  1.0000
  C   C26       1.0  0.430101389399546  0.3503029093343955  0.7439390851774021  1.0000
  C   C27       1.0  0.0698537913404635  0.8502903808276937  0.2439569772562463  1.0000
  C   C28       1.0  0.569874677676559  0.6497017847583562  0.25604982714710184  1.0000
  N   N1        1.0  0.29994542012323683  0.0551759038439315  0.6496312246227518  1.0000
  N   N2        1.0  0.799953020192781  0.4448190247186686  0.8503652380950513  1.0000
  N   N3        1.0  0.7000344742912219  0.944819775778967  0.3503654472885671  1.0000
  N   N4        1.0  0.2000517514746107  0.5551783561509395  0.14963483141711714  1.0000
  N   N5        1.0  0.4838070951986637  0.9845122928659149  0.6427123585178549  1.0000
  N   N6        1.0  0.9837993437279451  0.5154894892983676  0.8572832358623259  1.0000
  N   N7        1.0  0.5161804536815211  0.015494998104365696  0.3572851299326558  1.0000
  N   N8        1.0  0.0161920324815625  0.48450956576076704  0.14271814333869767  1.0000
  N   N9        1.0  0.448349620571868  0.9548019129158617  0.7222417084964619  1.0000
  N   N10       1.0  0.9483470569473625  0.5452006503429059  0.777755482931326  1.0000
  N   N11       1.0  0.5516436692549149  0.045199603913054894  0.2777578075314437  1.0000
  N   N12       1.0  0.05164240561109071  0.4548009025084809  0.22224681690052964  1.0000
  N   N13       1.0  0.7897678787283484  0.21782024959205862  0.48899762052290896  1.0000
  N   N14       1.0  0.2897761311144151  0.2821740539399257  0.01100453622609619  1.0000
  N   N15       1.0  0.2102541156625222  0.7821771943403346  0.5110073206804912  1.0000
  N   N16       1.0  0.7102248132495887  0.717828304501097  0.9889959826430116  1.0000
  O   O1        1.0  0.7757052828919698  0.16130571512250916  0.8245991314840778  1.0000
  O   O2        1.0  0.2757150307078717  0.3386892289602698  0.6754021333481717  1.0000
  O   O3        1.0  0.22429566160742098  0.8386740911187968  0.1753875340639581  1.0000
  O   O4        1.0  0.7243050500039985  0.6613148487349533  0.3246031750182681  1.0000
  O   O5        1.0  0.0116321504506445  0.19433899051164613  0.4454153963254868  1.0000
  O   O6        1.0  0.511639085634947  0.30565063170552514  0.05458651580092066  1.0000
  O   O7        1.0  0.9883860166895031  0.8056551140182505  0.5545876214086292  1.0000
  O   O8        1.0  0.4883599451352438  0.6943450659492496  0.9454115480425712  1.0000
  O   O9        1.0  0.6310716278125099  0.2705042474866416  0.4607659775824757  1.0000
  O   O10       1.0  0.1310691525898591  0.22949551902480883  0.03923369621563206  1.0000
  O   O11       1.0  0.36895419381801997  0.7294981920377878  0.5392408048935664  1.0000
  O   O12       1.0  0.8689241372304436  0.7705068123890438  0.9607647347854069  1.0000
  O   O13       1.0  0.7381229709256163  0.1851082925559168  0.5577487123893334  1.0000
  O   O14       1.0  0.2381431378381791  0.3148890666367165  0.9422526692995986  1.0000
  O   O15       1.0  0.26189136894108594  0.8148857759439989  0.4422515215298474  1.0000
  O   O16       1.0  0.7618597201163482  0.6851208122082822  0.05775269933005941  1.0000
