data_image0
_chemical_formula_structural       Cd4H40C36N8O24
_chemical_formula_sum              "Cd4 H40 C36 N8 O24"
_cell_length_a       7.310393843
_cell_length_b       7.52019529714693
_cell_length_c       29.3496
_cell_angle_alpha    90.0
_cell_angle_beta     90.0
_cell_angle_gamma    94.40439535935384

_space_group_name_H-M_alt    "P 1"
_space_group_IT_number       1

loop_
  _space_group_symop_operation_xyz
  'x, y, z'

loop_
  _atom_site_type_symbol
  _atom_site_label
  _atom_site_symmetry_multiplicity
  _atom_site_fract_x
  _atom_site_fract_y
  _atom_site_fract_z
  _atom_site_occupancy
  Cd  Cd1       1.0  0.791650953546984  0.1739000049180817  0.7807632812712981  1.0000
  Cd  Cd2       1.0  0.7083419835467096  0.3261008528454639  0.2807612369504184  1.0000
  Cd  Cd3       1.0  0.2083426008751132  0.8260990432264563  0.2192387630495816  1.0000
  Cd  Cd4       1.0  0.2916573586195454  0.6739021963728931  0.7192377408891417  1.0000
  H   H1        1.0  0.3156568993743817  0.8371113320569563  0.9752364597813923  1.0000
  H   H2        1.0  0.18433190607561303  0.6628872401598545  0.4752340747403707  1.0000
  H   H3        1.0  0.6843313941081205  0.1628903834701276  0.0247662659797783  1.0000
  H   H4        1.0  0.8156701701448908  0.3370984710719682  0.5247631994984587  1.0000
  H   H5        1.0  0.1193818775217821  0.8925422086917083  0.006018139940579201  1.0000
  H   H6        1.0  0.38061839805560976  0.6074630319814602  0.5060126884182381  1.0000
  H   H7        1.0  0.8806152556183093  0.10746750898300662  0.9939869708616129  1.0000
  H   H8        1.0  0.6193939910987538  0.3925320150892659  0.4939811786191299  1.0000
  H   H9        1.0  0.066953263208589  0.0638157936599839  0.7314331370785325  1.0000
  H   H10       1.0  0.43304019957498235  0.4361850641035617  0.2314331370785325  1.0000
  H   H11       1.0  0.9330418698506902  0.9361859218671  0.2685668629214675  1.0000
  H   H12       1.0  0.5669575639541051  0.5638153177322494  0.7685668629214675  1.0000
  H   H13       1.0  0.07749010162726928  0.2784213898818778  0.7324321285468969  1.0000
  H   H14       1.0  0.4225048344325657  0.22158080157293375  0.2324321285468969  1.0000
  H   H15       1.0  0.9225051367929137  0.7215816593364721  0.2675682121732521  1.0000
  H   H16       1.0  0.5774916665420732  0.7784209139541503  0.767568552893394  1.0000
  H   H17       1.0  0.5412465041542021  0.18757034045309243  0.6407712541227113  1.0000
  H   H18       1.0  0.9587520099618343  0.312431851001719  0.1407709134025694  1.0000
  H   H19       1.0  0.45875136473578937  0.8124313750739918  0.3592290865974306  1.0000
  H   H20       1.0  0.04124712148260563  0.6875685308340922  0.8592284051571397  1.0000
  H   H21       1.0  0.7543092341262534  0.1970288789520467  0.6724357401804467  1.0000
  H   H22       1.0  0.7456892799897756  0.3029733125027647  0.1724353994602978  1.0000
  H   H23       1.0  0.2456886347637379  0.8029728365750302  0.327565281979993  1.0000
  H   H24       1.0  0.2543086942611268  0.6970297367155923  0.8275646005397022  1.0000
  H   H25       1.0  0.3605765774855598  0.23500040314886667  0.8026985035571172  1.0000
  H   H26       1.0  0.1394207783222612  0.264997787232133  0.302694414915365  1.0000
  H   H27       1.0  0.6394251844286885  0.7649986449956714  0.19730490364434422  1.0000
  H   H28       1.0  0.8605796156766203  0.735001260912405  0.6973014964428828  1.0000
  H   H29       1.0  0.12838330345249457  0.1882065111896978  0.8654465478234812  1.0000
  H   H30       1.0  0.3716116326073404  0.3117956802651136  0.3654431406220199  1.0000
  H   H31       1.0  0.8716134082439593  0.8117978717199321  0.1345561779376894  1.0000
  H   H32       1.0  0.6283967581618626  0.6882007004968786  0.6345517485757881  1.0000
  H   H33       1.0  0.5559436992435351  0.9783038922276575  0.9470497042549155  1.0000
  H   H34       1.0  0.9440473163472943  0.5216946799891531  0.4470452748930143  1.0000
  H   H35       1.0  0.4440475407914945  0.0217004906819724  0.0529550658271347  1.0000
  H   H36       1.0  0.0559589689801854  0.4782923649339423  0.5529519993458153  1.0000
  H   H37       1.0  0.767907936761915  0.036240392926139  0.8818249652465441  1.0000
  H   H38       1.0  0.7320827895291443  0.46374979530722993  0.3818201951645008  1.0000
  H   H39       1.0  0.23208772132544203  0.9637506530707753  0.1181801455556482  1.0000
  H   H40       1.0  0.2679185509414594  0.5362439180722236  0.6181774197944776  1.0000
  C   C1        1.0  0.547287900992842  0.007324632464225502  0.6975294382206201  1.0000
  C   C2        1.0  0.9527108238450096  0.4926802263731319  0.19752909750047823  1.0000
  C   C3        1.0  0.4527058641510777  0.9926770830628586  0.3024709024995218  1.0000
  C   C4        1.0  0.04729114879104661  0.5073214891539521  0.8024705617793799  1.0000
  C   C5        1.0  0.603407622083516  0.1854444365659873  0.6746163491154888  1.0000
  C   C6        1.0  0.8965908920325204  0.3145577548888241  0.174616008395347  1.0000
  C   C7        1.0  0.3965902468064754  0.8145572789610966  0.32538433232480196  1.0000
  C   C8        1.0  0.10340834477283069  0.6854439606382599  0.8253836508845112  1.0000
  C   C9        1.0  0.5465183724779124  0.3449672495750491  0.7020923624172042  1.0000
  C   C10       1.0  0.9534858240213706  0.1550376092623083  0.2020916809769133  1.0000
  C   C11       1.0  0.453483705519062  0.6550357996433009  0.2979086597432357  1.0000
  C   C12       1.0  0.04651078231417221  0.8449654399560489  0.7979086597432357  1.0000
  C   C13       1.0  0.3971379302501106  0.17775170531077586  0.8352955406547267  1.0000
  C   C14       1.0  0.1028575308378024  0.322239816613866  0.3352928148935561  1.0000
  C   C15       1.0  0.6028593064744213  0.8222420080686774  0.164706162946004  1.0000
  C   C16       1.0  0.8971451775481538  0.6777538967655873  0.6647037779049825  1.0000
  C   C17       1.0  0.26824254844794376  0.15124859235938007  0.8700653501240225  1.0000
  C   C18       1.0  0.23174670522864463  0.3487509317128855  0.3700602393218304  1.0000
  C   C19       1.0  0.7317498487806232  0.8487531231677041  0.1299390792378787  1.0000
  C   C20       1.0  0.7682530566047773  0.6512401142840218  0.6299343091558285  1.0000
  C   C21       1.0  0.3211423269662602  0.07389716598282803  0.9108812385858727  1.0000
  C   C22       1.0  0.17885534492429406  0.42610502547198353  0.4108778313844113  1.0000
  C   C23       1.0  0.6788559633673755  0.9261098843093407  0.0891218278954398  1.0000
  C   C24       1.0  0.8211569388691657  0.57388868790747  0.5891180799738294  1.0000
  C   C25       1.0  0.5037100633088514  0.03248205092246081  0.9155685256357842  1.0000
  C   C26       1.0  0.996279716510493  0.4675134720759928  0.415563414833592  1.0000
  C   C27       1.0  0.4962847536676944  0.9675156635308044  0.0844359037261171  1.0000
  C   C28       1.0  0.003723832986274507  0.5324735728471026  0.5844328372447977  1.0000
  C   C29       1.0  0.6247185770083519  0.0662297748617746  0.8794276582985816  1.0000
  C   C30       1.0  0.8752866713235576  0.4337710829017638  0.3794245918172621  1.0000
  C   C31       1.0  0.3752805544360882  0.9337706069740366  0.1205754081827379  1.0000
  C   C32       1.0  0.12472456063727579  0.5662266315515012  0.6205733638618582  1.0000
  C   C33       1.0  0.18128597771892163  0.0425820949231124  0.94818089513997  1.0000
  C   C34       1.0  0.3187090637018243  0.457421430222972  0.4481761250579197  1.0000
  C   C35       1.0  0.8187029479290402  0.9574276227516023  0.0518238749420803  1.0000
  C   C36       1.0  0.6813058505614293  0.5425709494652082  0.5518184234197392  1.0000
  N   N1        1.0  0.5717707097943786  0.13535365978315642  0.8397657889715688  1.0000
  N   N2        1.0  0.9282232791319486  0.3646431969065702  0.3397617003298166  1.0000
  N   N3        1.0  0.428228105567335  0.8646427209788357  0.1602386403903324  1.0000
  N   N4        1.0  0.0717771148669328  0.6353558512379749  0.660235233188871  1.0000
  N   N5        1.0  0.21353776497319643  0.9188385994959847  0.979841973996237  1.0000
  N   N6        1.0  0.2864554603055893  0.5811639737946381  0.4798375446343357  1.0000
  N   N7        1.0  0.7864564216143607  0.08116845079618432  0.0201621146455153  1.0000
  N   N8        1.0  0.7135511411046167  0.4188270722022693  0.5201576852836141  1.0000
  O   O1        1.0  0.043529669460582496  0.1311805397939807  0.9492378090331712  1.0000
  O   O2        1.0  0.4564726329805849  0.3688283201171885  0.4492320167906882  1.0000
  O   O3        1.0  0.9564756711716453  0.8688291778807271  0.05076730176902091  1.0000
  O   O4        1.0  0.5435429134481353  0.6311720617186227  0.5507611688063889  1.0000
  O   O5        1.0  0.6187136038795061  0.9726983878126634  0.7360188895248996  1.0000
  O   O6        1.0  0.8812794117921428  0.527308186551771  0.2360175266443179  1.0000
  O   O7        1.0  0.38128058270805804  0.027308662479505606  0.2639831547959801  1.0000
  O   O8        1.0  0.11871982501320129  0.4726935289753059  0.7639821326355403  1.0000
  O   O9        1.0  0.6177227085119482  0.3739910390299741  0.7415893231935017  1.0000
  O   O10       1.0  0.8822743323278175  0.1260098187335714  0.2415883010330617  1.0000
  O   O11       1.0  0.3822737924626907  0.6260106764971098  0.2584116989669383  1.0000
  O   O12       1.0  0.11772206328590333  0.8739905631022398  0.7584106768064984  1.0000
  O   O13       1.0  0.4328790166331941  0.4415211628816635  0.6837347016654435  1.0000
  O   O14       1.0  0.0671286521084866  0.058486363338232615  0.1837350423855852  1.0000
  O   O15       1.0  0.567124640000955  0.5584845537192324  0.3162652983345566  1.0000
  O   O16       1.0  0.9328716365294908  0.9415113511150324  0.8162646168942658  1.0000
  O   O17       1.0  0.43256667587760217  0.9012592148435987  0.6768034317333118  1.0000
  O   O18       1.0  0.06743738736312821  0.5987420247557582  0.1768037724534608  1.0000
  O   O19       1.0  0.5674366646738206  0.09874250068348542  0.3231965682666882  1.0000
  O   O20       1.0  0.9325658478273766  0.401258357080053  0.8231962275465392  1.0000
  O   O21       1.0  0.0066751333954400026  0.17069247740962376  0.7203713168152177  1.0000
  O   O22       1.0  0.4933184347490424  0.32930971404519493  0.2203706353749268  1.0000
  O   O23       1.0  0.9933199996638391  0.8293092381174605  0.2796293646250732  1.0000
  O   O24       1.0  0.5066781715865076  0.6706933351731623  0.7796293646250733  1.0000
