data_image0
_chemical_formula_structural       Zn2H28C38N4O8
_chemical_formula_sum              "Zn2 H28 C38 N4 O8"
_cell_length_a       8.739014068053843
_cell_length_b       10.148128935457153
_cell_length_c       10.825106259288251
_cell_angle_alpha    77.01592668964109
_cell_angle_beta     70.3890785259254
_cell_angle_gamma    84.26659186233422

_space_group_name_H-M_alt    "P 1"
_space_group_IT_number       1

loop_
  _space_group_symop_operation_xyz
  'x, y, z'

loop_
  _atom_site_type_symbol
  _atom_site_label
  _atom_site_symmetry_multiplicity
  _atom_site_fract_x
  _atom_site_fract_y
  _atom_site_fract_z
  _atom_site_occupancy
  Zn  Zn1       1.0  0.43776920004007286  0.37785265940384255  0.9045420504202542  1.0000
  Zn  Zn2       1.0  0.5622397325213127  0.622147552510384  0.09545504371298834  1.0000
  H   H1        1.0  0.3255069337434335  0.1958075413427522  0.1787279507968762  1.0000
  H   H2        1.0  0.674492968228016  0.8041946005523072  0.8212602983982864  1.0000
  H   H3        1.0  0.1265762710772194  0.1980531602549149  0.40416269272206057  1.0000
  H   H4        1.0  0.8734311790490635  0.801948077458924  0.5958290792650304  1.0000
  H   H5        1.0  0.9127304954726866  0.5637351743878514  0.2258663177971982  1.0000
  H   H6        1.0  0.08726984904215132  0.4362658850358159  0.7741321902261263  1.0000
  H   H7        1.0  0.12395611411457708  0.546849511428576  0.011206600048829818  1.0000
  H   H8        1.0  0.8760391431837533  0.45315249435404337  0.98878858080311  1.0000
  H   H9        1.0  0.002789047735319597  0.24221480389335437  0.5907653618580825  1.0000
  H   H10       1.0  0.9972174882770447  0.7577803546025165  0.4092260783368644  1.0000
  H   H11       1.0  0.7817998942851362  0.24996438371712776  0.8050163299268791  1.0000
  H   H12       1.0  0.21821322229206433  0.7500258010515068  0.1949797523051586  1.0000
  H   H13       1.0  0.5208777872896064  0.5402704595749127  0.6190480632841828  1.0000
  H   H14       1.0  0.4791350084311005  0.45973178322534386  0.38095672517171414  1.0000
  H   H15       1.0  0.724567868866913  0.5441594376999674  0.39456573819000346  1.0000
  H   H16       1.0  0.275437466825487  0.45584169313994477  0.6054349917988874  1.0000
  H   H17       1.0  0.384214424490004  0.9231273086694287  0.9408721132917608  1.0000
  H   H18       1.0  0.6157665681093576  0.0768763502047918  0.05913799066995304  1.0000
  H   H19       1.0  0.3224458280151694  0.7325271468691453  0.6440364984028976  1.0000
  H   H20       1.0  0.6775539568026048  0.2674687670067258  0.3559724723315086  1.0000
  H   H21       1.0  0.2874121294863698  0.1672484586109206  0.5946481119915817  1.0000
  H   H22       1.0  0.7125788435573739  0.8327463448594015  0.40535349869772835  1.0000
  H   H23       1.0  0.3189739074177426  0.8702546807581231  0.4297086509199915  1.0000
  H   H24       1.0  0.6810259576141677  0.1297382186098446  0.570298143258455  1.0000
  H   H25       1.0  0.33917964575866216  0.0477682204211476  0.39638455413351176  1.0000
  H   H26       1.0  0.6608190942558209  0.9522226384815868  0.603622064240696  1.0000
  H   H27       1.0  0.14463154986881926  0.9749166332714554  0.4800458189923234  1.0000
  H   H28       1.0  0.8553669475925502  0.0250742709186014  0.5199543918462481  1.0000
  C   C1        1.0  0.23334878764942601  0.2765758776067245  0.1948071404378524  1.0000
  C   C2        1.0  0.766652404679256  0.7234272740391249  0.8051842204918245  1.0000
  C   C3        1.0  0.12126122932574654  0.2788670837051797  0.32059316669210614  1.0000
  C   C4        1.0  0.8787436717356697  0.7211361279724713  0.6793989453495115  1.0000
  C   C5        1.0  0.0027926406301546024  0.38328991119035294  0.33786050068114565  1.0000
  C   C6        1.0  0.9972123029941073  0.6167142923840316  0.6621341676035969  1.0000
  C   C7        1.0  0.002142398750365298  0.480419438227969  0.22289962506916797  1.0000
  C   C8        1.0  0.997858966830549  0.5195836810697897  0.7770963126716879  1.0000
  C   C9        1.0  0.12012176185294979  0.471637828621944  0.10125771719586406  1.0000
  C   C10       1.0  0.8798770467506926  0.5283662662732739  0.8987369197186297  1.0000
  C   C11       1.0  0.8819412757647954  0.38918884639621604  0.47038561822944314  1.0000
  C   C12       1.0  0.118067744923124  0.6108093493764529  0.5296109402287216  1.0000
  C   C13       1.0  0.8969891955278371  0.30845159116329063  0.5897549043892171  1.0000
  C   C14       1.0  0.1030210303916235  0.6915456305667078  0.4102396533172127  1.0000
  C   C15       1.0  0.7749589912120669  0.3126768378977546  0.7108711905900764  1.0000
  C   C16       1.0  0.22505130400828216  0.687320370893005  0.28912519784082497  1.0000
  C   C17       1.0  0.6289810598594912  0.47460994109905386  0.6066913437100325  1.0000
  C   C18       1.0  0.3710269555871548  0.5253881915322225  0.3933110667923785  1.0000
  C   C19       1.0  0.7441564439408949  0.47568313606661405  0.48158327719774974  1.0000
  C   C20       1.0  0.25584777464649017  0.5243169526744113  0.5184189178677984  1.0000
  C   C21       1.0  0.33128240760088806  0.05756267686550131  0.7736857598577841  1.0000
  C   C22       1.0  0.6686984731347253  0.9424400030512174  0.22631995713633993  1.0000
  C   C23       1.0  0.356732573952982  0.9305588749843918  0.8484130713128554  1.0000
  C   C24       1.0  0.6432521115542968  0.06944284718893101  0.15159450199902127  1.0000
  C   C25       1.0  0.35086457016156203  0.8136195773091757  0.8019619857928505  1.0000
  C   C26       1.0  0.64912631175482  0.18638124223772223  0.19804580873286431  1.0000
  C   C27       1.0  0.32349393308128777  0.8246755709740795  0.679553354361616  1.0000
  C   C28       1.0  0.6764995860264875  0.1753212584674486  0.3204535644344874  1.0000
  C   C29       1.0  0.29987591275026654  0.9508103776337508  0.602972208288108  1.0000
  C   C30       1.0  0.7001140817902468  0.049183357859220705  0.3970345289267955  1.0000
  C   C31       1.0  0.30234386663991597  0.06656831258993631  0.6524084544153724  1.0000
  C   C32       1.0  0.697641048596502  0.9334273676283329  0.3475965965090425  1.0000
  C   C33       1.0  0.3442002149206829  0.1849395629323354  0.8179205777880727  1.0000
  C   C34       1.0  0.6557899868107668  0.8150673826746485  0.18207783941604558  1.0000
  C   C35       1.0  0.37974179164015703  0.6769240947486921  0.8803585409666825  1.0000
  C   C36       1.0  0.6202624427720381  0.32307799072503224  0.11964693586064361  1.0000
  C   C37       1.0  0.2745434859377625  0.9615772554661817  0.4703479386244426  1.0000
  C   C38       1.0  0.7254527238374989  0.0384135741980458  0.5296566534047501  1.0000
  N   N1        1.0  0.235605475425082  0.3730585274486061  0.08636877870202399  1.0000
  N   N2        1.0  0.7643933252661625  0.6269445690802655  0.9136242173315737  1.0000
  N   N3        1.0  0.6416391785516495  0.3934692279536094  0.7198078301943484  1.0000
  N   N4        1.0  0.3583747986633838  0.6065290457049245  0.2801900348671468  1.0000
  O   O1        1.0  0.41421654170579103  0.17536059431483858  0.9067478127661843  1.0000
  O   O2        1.0  0.5857750305970342  0.8246443465350312  0.09325153961648877  1.0000
  O   O3        1.0  0.29203395477783545  0.29651935209584923  0.7643710068149121  1.0000
  O   O4        1.0  0.7079609876656575  0.7034867118483632  0.23562158393824728  1.0000
  O   O5        1.0  0.3961716015003772  0.6704351415546839  0.9936471278565409  1.0000
  O   O6        1.0  0.603828659799504  0.32957293231190476  0.006359204884070471  1.0000
  O   O7        1.0  0.3826334421971538  0.5750215935519235  0.8283643722230282  1.0000
  O   O8        1.0  0.6173767965462885  0.4249816248457919  0.1716391154064993  1.0000
