data_image0
_chemical_formula_structural       Al2H16C24O10F2
_chemical_formula_sum              "Al2 H16 C24 O10 F2"
_cell_length_a       6.679361583688372
_cell_length_b       11.108297618925675
_cell_length_c       15.450247408192753
_cell_angle_alpha    82.69740455435713
_cell_angle_beta     75.87922692122685
_cell_angle_gamma    72.78173892498822

_space_group_name_H-M_alt    "P 1"
_space_group_IT_number       1

loop_
  _space_group_symop_operation_xyz
  'x, y, z'

loop_
  _atom_site_type_symbol
  _atom_site_label
  _atom_site_symmetry_multiplicity
  _atom_site_fract_x
  _atom_site_fract_y
  _atom_site_fract_z
  _atom_site_occupancy
  Al  Al1       1.0  0.5000034789070896  0.49999622428779117  0.5000083961054003  1.0000
  Al  Al2       1.0  7.26600747914544e-06  0.5000025445158586  0.4999996428738385  1.0000
  H   H1        1.0  0.2746858134010213  0.5726840125149834  0.3921890497815994  1.0000
  H   H2        1.0  0.7253258212700333  0.4273247610357202  0.6078182576541734  1.0000
  H   H3        1.0  0.6943763518892256  0.11627532199247526  0.5592248995356714  1.0000
  H   H4        1.0  0.3056567500349701  0.8837286693505464  0.4407527551991564  1.0000
  H   H5        1.0  0.7289039971207175  0.4562553148895745  0.9435658872728397  1.0000
  H   H6        1.0  0.27103343561426396  0.5437730806082753  0.05644422092841951  1.0000
  H   H7        1.0  0.6206096510757889  0.4349538667169951  0.23726408029611432  1.0000
  H   H8        1.0  0.681489782092392  0.4437504623688254  0.07406324696643202  1.0000
  H   H9        1.0  0.37937869747837283  0.5650358263382386  0.7627489833665423  1.0000
  H   H10       1.0  0.3184924184061444  0.5562553769851422  0.9259459757579407  1.0000
  H   H11       1.0  0.9356185058118953  0.9358632184732941  0.5985125545425447  1.0000
  H   H12       1.0  0.8475043840077421  0.796216992567963  0.625840632518056  1.0000
  H   H13       1.0  0.015814665395524247  0.8145616330582114  0.521802741702821  1.0000
  H   H14       1.0  0.9841993985781416  0.1854337027343433  0.478179445380519  1.0000
  H   H15       1.0  0.15252366666005196  0.2037879959522897  0.37413486940712204  1.0000
  H   H16       1.0  0.06442639043694241  0.06413233105458718  0.4014638978975142  1.0000
  C   C1        1.0  0.8559457332274363  0.4803962158659659  0.3399479032718631  1.0000
  C   C2        1.0  0.6375188984467358  0.7283377757306865  0.4942726315114214  1.0000
  C   C3        1.0  0.14405015707340862  0.5195907289923554  0.660062661876033  1.0000
  C   C4        1.0  0.362492196996641  0.2716601808059309  0.5057167788401244  1.0000
  C   C5        1.0  0.5724137920134641  0.8684196433521407  0.4988227626349442  1.0000
  C   C6        1.0  0.42759835847385835  0.13158608947680514  0.5011588279684602  1.0000
  C   C7        1.0  0.6881986073322325  0.9318474978683327  0.5334033799583082  1.0000
  C   C8        1.0  0.3118196928020255  0.06815822577316058  0.466578882072227  1.0000
  C   C9        1.0  0.6105640317849891  0.0632349793134352  0.5331194005605653  1.0000
  C   C10       1.0  0.3894544960266516  0.9367668133003804  0.4668683164512045  1.0000
  C   C11       1.0  0.09186425371446205  0.5190406622570835  0.7595933537090148  1.0000
  C   C12       1.0  0.9081267216376364  0.48094998866901767  0.24041937054708734  1.0000
  C   C13       1.0  0.9094997283905645  0.4900644272473329  0.8143981933246066  1.0000
  C   C14       1.0  0.8725049959386413  0.48246203624800904  0.9069662989569878  1.0000
  C   C15       1.0  0.09048852279096316  0.5099318871780766  0.1856143766874681  1.0000
  C   C16       1.0  0.12746526483946505  0.5175587179069581  0.09304882771383659  1.0000
  C   C17       1.0  0.7641020303437288  0.45730420526997057  0.1963431551067174  1.0000
  C   C18       1.0  0.7995115974603169  0.4632379074828278  0.10384463629625879  1.0000
  C   C19       1.0  0.23588010120533223  0.5426922110830857  0.803665496414297  1.0000
  C   C20       1.0  0.20045620433590733  0.5367593528962828  0.8961666999894504  1.0000
  C   C21       1.0  0.018414453798627137  0.5051274765794104  0.9505358327015827  1.0000
  C   C22       1.0  0.9815474292106572  0.49489813618203743  0.04947394811592429  1.0000
  C   C23       1.0  0.8820464799881979  0.8666450563952779  0.5718439424046835  1.0000
  C   C24       1.0  0.11797317931369385  0.13334861652408853  0.42813068200389637  1.0000
  O   O1        1.0  0.6598319138210229  0.49176471815231076  0.3779714755223722  1.0000
  O   O2        1.0  0.8371539695989798  0.671433713735297  0.48379298835482126  1.0000
  O   O3        1.0  0.9928012502277288  0.529690414176109  0.6208922801483111  1.0000
  O   O4        1.0  0.5110996139222339  0.3244045201566265  0.5005740127758713  1.0000
  O   O5        1.0  0.34016719961671527  0.508224968098908  0.6220424384313857  1.0000
  O   O6        1.0  0.16286199877290397  0.3285604068972674  0.5161988087780073  1.0000
  O   O7        1.0  0.007201470099524078  0.4702985646893507  0.3791135528601616  1.0000
  O   O8        1.0  0.48890612587609883  0.6755912053215667  0.49942711640610327  1.0000
  O   O9        1.0  0.25016596741421193  0.5505919167752822  0.45592395565579835  1.0000
  O   O10       1.0  0.7498445808720929  0.44941590588171487  0.5440835343369201  1.0000
  F   F1        1.0  0.7613681215302607  0.4635194837206101  0.7784346611277115  1.0000
  F   F2        1.0  0.23863304037512723  0.5364694325235745  0.2215732769687264  1.0000
