data_image0
_chemical_formula_structural       Zn2H48C48N12O8
_chemical_formula_sum              "Zn2 H48 C48 N12 O8"
_cell_length_a       9.291673888403388
_cell_length_b       11.774421922594088
_cell_length_c       13.159
_cell_angle_alpha    104.71258687142921
_cell_angle_beta     110.31850279698757
_cell_angle_gamma    108.01146148840157

_space_group_name_H-M_alt    "P 1"
_space_group_IT_number       1

loop_
  _space_group_symop_operation_xyz
  'x, y, z'

loop_
  _atom_site_type_symbol
  _atom_site_label
  _atom_site_symmetry_multiplicity
  _atom_site_fract_x
  _atom_site_fract_y
  _atom_site_fract_z
  _atom_site_occupancy
  Zn  Zn1       1.0  0.07293821816467984  0.7074594857330183  0.44915151963504474  1.0000
  Zn  Zn2       1.0  0.9270616508790254  0.2925436932806562  0.5508546422206065  1.0000
  H   H1        1.0  0.1625794558537379  0.6118741715565008  0.6655355068239714  1.0000
  H   H2        1.0  0.8374238850398541  0.3881270537860431  0.33446498283014137  1.0000
  H   H3        1.0  0.49195568202700457  0.8159048401860218  0.5522497312614759  1.0000
  H   H4        1.0  0.5080453925051387  0.1840944314853772  0.4477482388683498  1.0000
  H   H5        1.0  0.5404470879548242  0.5812855425236378  0.7998976521895356  1.0000
  H   H6        1.0  0.4595506014966872  0.4187098218054856  0.20010087983283842  1.0000
  H   H7        1.0  0.3839268464613355  0.6028882611498644  0.8367749729932752  1.0000
  H   H8        1.0  0.6160719327862695  0.3971110105215345  0.1632231942968261  1.0000
  H   H9        1.0  0.9061007965598196  0.6626452002970922  0.9222131212612297  1.0000
  H   H10       1.0  0.0938979826877926  0.3373540713743068  0.07778732583737016  1.0000
  H   H11       1.0  0.9696858624859956  0.8005567997132486  0.8899156225434764  1.0000
  H   H12       1.0  0.030311798042433197  0.19944051828701248  0.1100803066102927  1.0000
  H   H13       1.0  0.7603669996153286  0.6750783634295701  0.8003110097227261  1.0000
  H   H14       1.0  0.23962780626897032  0.3249179777351259  0.19968551739547985  1.0000
  H   H15       1.0  0.13249546689640815  0.8333667528318498  0.11601104855510862  1.0000
  H   H16       1.0  0.8675044599934694  0.166632518839549  0.8839828405059507  1.0000
  H   H17       1.0  0.2094902536702179  0.000179737744844  0.2063889725923289  1.0000
  H   H18       1.0  0.7905135733724504  0.999820262255156  0.7936048983457196  1.0000
  H   H19       1.0  0.15815634311989873  0.9517670385767261  0.05542527686802853  1.0000
  H   H20       1.0  0.8418412884854476  0.048232233094672894  0.944569569289463  1.0000
  H   H21       1.0  0.5946844173861193  0.061530872541993596  0.17496960354845462  1.0000
  H   H22       1.0  0.40532007114973817  0.9384703528005429  0.8250288876851071  1.0000
  H   H23       1.0  0.7670582020773367  0.07593528985433548  0.29883431624334367  1.0000
  H   H24       1.0  0.232941724812541  0.9240639818170635  0.701161852626214  1.0000
  H   H25       1.0  0.5696179374229118  0.9345385896320835  0.22415858630479585  1.0000
  H   H26       1.0  0.43038078397852797  0.0654645893815982  0.7758366550565937  1.0000
  H   H27       1.0  0.31631593502864064  0.746678457025105  0.893617594852493  1.0000
  H   H28       1.0  0.6836833457323976  0.2533256988241419  0.10637800564089864  1.0000
  H   H29       1.0  0.39056174194787735  0.9059270757925049  0.9979795204893378  1.0000
  H   H30       1.0  0.6094421293822165  0.0940770800567421  0.002016445619680953  1.0000
  H   H31       1.0  0.36298041932278124  0.7756572610389298  0.04238166989956938  1.0000
  H   H32       1.0  0.6370160357172095  0.22434396430360684  0.9576118118737041  1.0000
  H   H33       1.0  0.141958942653325  0.1332442790636321  0.2730889780064913  1.0000
  H   H34       1.0  0.8580409842365526  0.8667549926077667  0.7269094706715574  1.0000
  H   H35       1.0  0.9908374006484522  0.14633289886344159  0.320828471604436  1.0000
  H   H36       1.0  0.009167705093162148  0.8536653959723849  0.6791710248813414  1.0000
  H   H37       1.0  0.8754383371828709  0.8361956686419986  0.30673377814605357  1.0000
  H   H38       1.0  0.12456041314165127  0.16380555670053806  0.6932678657647742  1.0000
  H   H39       1.0  0.38622312634416284  0.015685048744352097  0.5723462715099288  1.0000
  H   H40       1.0  0.6137756239803593  0.9843161765981847  0.4276530925924007  1.0000
  H   H41       1.0  0.7982793202194856  0.5373670153052217  0.6163757195342255  1.0000
  H   H42       1.0  0.20172699101056674  0.46262737218832933  0.3836269842682184  1.0000
  H   H43       1.0  0.43430373591144894  0.5850209617425719  0.34308227508148537  1.0000
  H   H44       1.0  0.565700868316746  0.4149724489154138  0.6569220680094999  1.0000
  H   H45       1.0  0.3081419239383009  0.6321767220393183  0.14472302187554922  1.0000
  H   H46       1.0  0.6918686886299739  0.3678372021656315  0.8552851762392562  1.0000
  H   H47       1.0  0.7836945917659365  0.4815857969270994  0.07269366109868251  1.0000
  H   H48       1.0  0.21630348350666398  0.5184222662644302  0.9273101311205351  1.0000
  C   C1        1.0  0.27438469349488775  0.6656978114527305  0.658498743251414  1.0000
  C   C2        1.0  0.7256152333949898  0.33430146021866847  0.34149970542663505  1.0000
  C   C3        1.0  0.4447766700799177  0.7707115425490086  0.6036089803279194  1.0000
  C   C4        1.0  0.5552227263734578  0.2292847986156801  0.3963879124059061  1.0000
  C   C5        1.0  0.49658384489013935  0.6542170630008215  0.8281976434643353  1.0000
  C   C6        1.0  0.5034160819997311  0.34578220867057746  0.17180232508604826  1.0000
  C   C7        1.0  0.634740978696243  0.7692218683050598  0.942065650252097  1.0000
  C   C8        1.0  0.3652669816895012  0.2307774033663392  0.05793400820541447  1.0000
  C   C9        1.0  0.8076406610518347  0.7997704470795596  0.9732108207608546  1.0000
  C   C10       1.0  0.1923587064784513  0.20022784775627397  0.026787268785191987  1.0000
  C   C11       1.0  0.9358175268520199  0.8992963159446674  0.08427404594386442  1.0000
  C   C12       1.0  0.064188138249186  0.1007029557267316  0.9157265696100865  1.0000
  C   C13       1.0  0.8900832711778435  0.9703913855506199  0.16118652102095132  1.0000
  C   C14       1.0  0.10991327063140227  0.029603978778496298  0.8388086898688059  1.0000
  C   C15       1.0  0.7173068743549891  0.9410501755403969  0.12917564893857036  1.0000
  C   C16       1.0  0.2826947884598283  0.0589481192954295  0.8708222434472076  1.0000
  C   C17       1.0  0.5890134789402452  0.8414109937491858  0.017824801582918146  1.0000
  C   C18       1.0  0.4109847120246926  0.15858925475777846  0.9821696437704119  1.0000
  C   C19       1.0  0.8617164881704581  0.7299589394123274  0.8916286730028629  1.0000
  C   C20       1.0  0.1382823200002363  0.2700383785879268  0.10836829747501747  1.0000
  C   C21       1.0  0.1183838773602376  0.9233020500726211  0.11830365834977387  1.0000
  C   C22       1.0  0.8816166088892315  0.07669819843435019  0.8816921097156152  1.0000
  C   C23       1.0  0.6613239048971806  0.0075050276828108  0.21144129489795196  1.0000
  C   C24       1.0  0.33867487435043137  0.9924942439885881  0.788554592583658  1.0000
  C   C25       1.0  0.4060377395651428  0.8152259394650087  0.9854165278638828  1.0000
  C   C26       1.0  0.5939633060439178  0.1847752858775351  0.014576559588846346  1.0000
  C   C27       1.0  0.0300155389770111  0.0761951281158986  0.2798216754853726  1.0000
  C   C28       1.0  0.9699861527608887  0.9238012130487903  0.7201750200881774  1.0000
  C   C29       1.0  0.008362201723585387  0.9048965142663619  0.3652247016748547  1.0000
  C   C30       1.0  0.9916360181644279  0.09510178056947179  0.6347738664194081  1.0000
  C   C31       1.0  0.26822046269945327  0.997267062582658  0.5001289071916871  1.0000
  C   C32       1.0  0.7317800235500087  0.0027331859243134  0.49987218042686277  1.0000
  C   C33       1.0  0.7642097113889932  0.6315622924659081  0.4458334452142694  1.0000
  C   C34       1.0  0.2357941888641903  0.3684399097122011  0.5541734830611702  1.0000
  C   C35       1.0  0.6289656616821304  0.5667267851912711  0.4762623351816017  1.0000
  C   C36       1.0  0.37103832534030085  0.4332695559734247  0.5237402427209972  1.0000
  C   C37       1.0  0.6674261255512164  0.5212931860040868  0.566429315086033  1.0000
  C   C38       1.0  0.33257733103471304  0.4787002246538918  0.43357626648933933  1.0000
  C   C39       1.0  0.4610371853304541  0.5456613261284318  0.41037342485363126  1.0000
  C   C40       1.0  0.5389697141822724  0.4543320845295469  0.5896307210770785  1.0000
  C   C41       1.0  0.1077871374356434  0.6306245303188972  0.2510736794465273  1.0000
  C   C42       1.0  0.8922098480408563  0.3693796255303495  0.748934277185782  1.0000
  C   C43       1.0  0.05119115264472642  0.5627950220228044  0.12119852763394323  1.0000
  C   C44       1.0  0.9488132491218834  0.4372120643331527  0.8788096335256128  1.0000
  C   C45       1.0  0.1734682657291771  0.5743558709914396  0.08023182968237562  1.0000
  C   C46       1.0  0.82653498839516  0.4256512153645176  0.9197768100253966  1.0000
  C   C47       1.0  0.8774270129304611  0.4883376843855842  0.03992835635223445  1.0000
  C   C48       1.0  0.1225739169862621  0.5116713556415107  0.9600809173918703  1.0000
  N   N1        1.0  0.2768242696093068  0.7149439998688649  0.5775689385554088  1.0000
  N   N2        1.0  0.7231762166401552  0.2850562486381065  0.4224306291908063  1.0000
  N   N3        1.0  0.5456947450279516  0.7598872276000037  0.6968110669204391  1.0000
  N   N4        1.0  0.45430470927158945  0.24010520622240955  0.30318571199742905  1.0000
  N   N5        1.0  0.4352467486626637  0.6925646969646378  0.7299510727212634  1.0000
  N   N6        1.0  0.5647509407888477  0.3074306673644783  0.2700451794926123  1.0000
  N   N7        1.0  0.11745847398082539  0.8882903095796805  0.45182495330448075  1.0000
  N   N8        1.0  0.882539157624521  0.11170896209171839  0.5481767322784988  1.0000
  N   N9        1.0  0.2574481806717728  0.07934933017079969  0.44853639542846924  1.0000
  N   N10       1.0  0.7425489204970646  0.9206470109938891  0.5514591745932974  1.0000
  N   N11       1.0  0.09210718447923227  0.0188568338395072  0.36288059383341675  1.0000
  N   N12       1.0  0.907889916689605  0.9811395073251815  0.6371149761883499  1.0000
  O   O1        1.0  0.9179132830427933  0.6517280859689549  0.5159509492047718  1.0000
  O   O2        1.0  0.08209355862376098  0.3482692320312992  0.48405559035038687  1.0000
  O   O3        1.0  0.7286276432816337  0.6589263872828468  0.3571493060318715  1.0000
  O   O4        1.0  0.2713779928964897  0.34107483805969  0.6428601056959521  1.0000
  O   O5        1.0  0.9960735655230906  0.5852475875947646  0.2867464621621635  1.0000
  O   O6        1.0  0.003931424526186362  0.4147585219256271  0.7132601013810032  1.0000
  O   O7        1.0  0.25230393437164617  0.7245824364361226  0.3169328169140399  1.0000
  O   O8        1.0  0.7477015861141396  0.27542660359097226  0.6830791022541831  1.0000
