data_image0
_chemical_formula_structural       Er2H8C18N4Cl2O16
_chemical_formula_sum              "Er2 H8 C18 N4 Cl2 O16"
_cell_length_a       7.00112185534267
_cell_length_b       8.072285942824587
_cell_length_c       11.211079154292676
_cell_angle_alpha    101.29317133100635
_cell_angle_beta     109.20971348012421
_cell_angle_gamma    97.2004802917274

_space_group_name_H-M_alt    "P 1"
_space_group_IT_number       1

loop_
  _space_group_symop_operation_xyz
  'x, y, z'

loop_
  _atom_site_type_symbol
  _atom_site_label
  _atom_site_symmetry_multiplicity
  _atom_site_fract_x
  _atom_site_fract_y
  _atom_site_fract_z
  _atom_site_occupancy
  Er  Er1       1.0  0.14633566328420497  0.3282337557095332  0.056355846755458607  1.0000
  Er  Er2       1.0  0.8536698852795793  0.6717692120948086  0.9436452397097738  1.0000
  H   H1        1.0  0.4619278132797147  0.8387372117540506  0.748611705625386  1.0000
  H   H2        1.0  0.5380626249185384  0.16125902794985345  0.2513846122547108  1.0000
  H   H3        1.0  0.3349500973795614  0.6450396989241084  0.4764520036296958  1.0000
  H   H4        1.0  0.6650372485214291  0.354955209918458  0.5235497727253886  1.0000
  H   H5        1.0  0.4339099059386626  0.13244879317736752  0.8632003839572492  1.0000
  H   H6        1.0  0.5661026447236849  0.8675517432061212  0.1368008159513892  1.0000
  H   H7        1.0  0.16297031717668628  0.2146103525900003  0.4122005419659942  1.0000
  H   H8        1.0  0.8370348531423204  0.7853913162335503  0.5877976098512151  1.0000
  C   C1        1.0  0.09003129432583279  0.0014642935279240994  0.1916285935349222  1.0000
  C   C2        1.0  0.9099766486528296  0.9985425784751313  0.8083744037581865  1.0000
  C   C3        1.0  0.16803143564528966  0.9549610306781701  0.31950179281402313  1.0000
  C   C4        1.0  0.8319684140870364  0.045043114452965896  0.6805010375139274  1.0000
  C   C5        1.0  0.21477586840232726  0.7912792640424227  0.337081494035985  1.0000
  C   C6        1.0  0.785227696439918  0.20872110143863404  0.6629215151009689  1.0000
  C   C7        1.0  0.20651423469620056  0.641435014907465  0.23439525927052074  1.0000
  C   C8        1.0  0.7934920228879462  0.3585641153144507  0.7656063094626261  1.0000
  C   C9        1.0  0.2911864970141805  0.7668275774534478  0.46370009495996817  1.0000
  C   C10       1.0  0.7088092230322404  0.2331713485578959  0.5363020864535955  1.0000
  C   C11       1.0  0.3132712859410773  0.9014903064281865  0.5680084152435114  1.0000
  C   C12       1.0  0.6867226014886325  0.09850729597815899  0.431992331528825  1.0000
  C   C13       1.0  0.3816846261846507  0.08516995013325608  0.7578470851902708  1.0000
  C   C14       1.0  0.6183100889216887  0.9148250905142916  0.2421498876854713  1.0000
  C   C15       1.0  0.2642190880225002  0.06338084088604029  0.5521545200716815  1.0000
  C   C16       1.0  0.7357774098240524  0.9366219502265875  0.4478465779187247  1.0000
  C   C17       1.0  0.19472950062986166  0.0898778648963372  0.4267854919128666  1.0000
  C   C18       1.0  0.8052639911271341  0.9101248682839299  0.5732159095364581  1.0000
  N   N1        1.0  0.38709152076989267  0.9203474376510883  0.7009544983403728  1.0000
  N   N2        1.0  0.6129028272296608  0.079645039770611  0.29904739145812437  1.0000
  N   N3        1.0  0.3070734781385625  0.1749935921784314  0.6725423823536048  1.0000
  N   N4        1.0  0.6929267672664705  0.8250054221787764  0.3274597932973648  1.0000
  Cl  Cl1       1.0  0.7113162423735133  0.4025065117093191  0.1508377624598864  1.0000
  Cl  Cl2       1.0  0.2886862201829601  0.5974899597240081  0.8491573415845509  1.0000
  O   O1        1.0  0.1826989316875327  0.14336207780068116  0.18447935966219828  1.0000
  O   O2        1.0  0.817305425975469  0.8566485854310242  0.8155270542281698  1.0000
  O   O3        1.0  0.9303791079028515  0.9070373754144896  0.09869808665457924  1.0000
  O   O4        1.0  0.06963757244540149  0.09296838008877731  0.9013037621684532  1.0000
  O   O5        1.0  0.1244432969501332  0.6300119943725236  0.10874500349707011  1.0000
  O   O6        1.0  0.8755585326210922  0.3699870561874691  0.8912592675533588  1.0000
  O   O7        1.0  0.27784146678528987  0.5121581400905342  0.2651838612236617  1.0000
  O   O8        1.0  0.722159592751076  0.4878524391570166  0.7348147664615253  1.0000
  O   O9        1.0  0.7059740880454157  0.5462607478944576  0.08945514537230541  1.0000
  O   O10       1.0  0.29402126877685925  0.45374331178546606  0.9105485895697996  1.0000
  O   O11       1.0  0.8355479329318457  0.28726349857240774  0.10740070175338454  1.0000
  O   O12       1.0  0.16445390681196406  0.7127380833723366  0.8925887650070693  1.0000
  O   O13       1.0  0.7871216214465161  0.45935991546301835  0.28940813863989223  1.0000
  O   O14       1.0  0.2128791193842403  0.5406211144001034  0.7105880013872223  1.0000
  O   O15       1.0  0.49802075494969966  0.2968087269839756  0.10210107991930781  1.0000
  O   O16       1.0  0.5019786864965922  0.7031812538676263  0.897889839407476  1.0000
