data_image0
_chemical_formula_structural       Cd4H24C32S8N16O4
_chemical_formula_sum              "Cd4 H24 C32 S8 N16 O4"
_cell_length_a       9.095427283457001
_cell_length_b       10.530311577250487
_cell_length_c       12.071662881850818
_cell_angle_alpha    99.71368626397332
_cell_angle_beta     92.45548501996558
_cell_angle_gamma    92.0651307389705

_space_group_name_H-M_alt    "P 1"
_space_group_IT_number       1

loop_
  _space_group_symop_operation_xyz
  'x, y, z'

loop_
  _atom_site_type_symbol
  _atom_site_label
  _atom_site_symmetry_multiplicity
  _atom_site_fract_x
  _atom_site_fract_y
  _atom_site_fract_z
  _atom_site_occupancy
  Cd  Cd1       1.0  0.7561998200009797  0.3548081970388282  0.0344048183414998  1.0000
  Cd  Cd2       1.0  0.2438013963075889  0.6451924529029256  0.9655960202814314  1.0000
  Cd  Cd3       1.0  0.7533911885427428  0.8395403541367374  0.47526761391797123  1.0000
  Cd  Cd4       1.0  0.24661640383246922  0.16045735364080824  0.5247304375823063  1.0000
  H   H1        1.0  0.6698808149475609  0.874331708825849  0.11922540620534501  1.0000
  H   H2        1.0  0.33012607169786884  0.12567086570770408  0.8807782944527247  1.0000
  H   H3        1.0  0.7848275194178244  0.7576388215418816  0.951264300422217  1.0000
  H   H4        1.0  0.2151714430888987  0.24236087372887738  0.048736361676752396  1.0000
  H   H5        1.0  0.8869955860649413  0.8844411955245658  0.8107520129219737  1.0000
  H   H6        1.0  0.11299669272385421  0.11555850199309249  0.18924521360148822  1.0000
  H   H7        1.0  0.8731762291674843  0.12521933219669987  0.8487190895771236  1.0000
  H   H8        1.0  0.1268161033915618  0.8747813296690905  0.15127827478777078  1.0000
  H   H9        1.0  0.5172529535132497  0.1382086450559399  0.3056914787376783  1.0000
  H   H10       1.0  0.4827448133958399  0.8617900773130033  0.6943073664146342  1.0000
  H   H11       1.0  0.5585986726272836  0.984725950919234  0.23482403746952937  1.0000
  H   H12       1.0  0.4413991689578509  0.015273742493967301  0.7651757754061992  1.0000
  H   H13       1.0  0.6674555789457415  0.368994163464663  0.5878270211003311  1.0000
  H   H14       1.0  0.3325391119441008  0.6310074865527682  0.4121746691984285  1.0000
  H   H15       1.0  0.8289717607729443  0.24931660333113106  0.44979846190842926  1.0000
  H   H16       1.0  0.1710295600645679  0.7506840800912754  0.5502065261244127  1.0000
  H   H17       1.0  0.9624736283818437  0.3695502697618096  0.3188148361654087  1.0000
  H   H18       1.0  0.0375298805285809  0.6304494530275874  0.6811917124724829  1.0000
  H   H19       1.0  0.9348612533084265  0.6082334007664655  0.3376603845711871  1.0000
  H   H20       1.0  0.0651421391143714  0.3917653375864062  0.6623435365793284  1.0000
  H   H21       1.0  0.4719271419693953  0.6316023887549632  0.7375573265555958  1.0000
  H   H22       1.0  0.5280685653130917  0.3683992296393797  0.2624410635565084  1.0000
  H   H23       1.0  0.5637853188619532  0.4872808802812826  0.7002060411245878  1.0000
  H   H24       1.0  0.43621268403395425  0.5127217061763076  0.2997941852754451  1.0000
  C   C1        1.0  0.9198166249072416  0.5225708055019637  0.8665404781336792  1.0000
  C   C2        1.0  0.08018361088472398  0.47743272893048067  0.1334590949083321  1.0000
  C   C3        1.0  0.5888422315166082  0.6310467265696429  0.0716964172906387  1.0000
  C   C4        1.0  0.41116132221696944  0.36895490482762483  0.9283079173841814  1.0000
  C   C5        1.0  0.7126999073213441  0.06218985571836548  0.0736305878865409  1.0000
  C   C6        1.0  0.2872991836316814  0.9378117749447908  0.9263711797772773  1.0000
  C   C7        1.0  0.7151751549669925  0.9280718700887289  0.05830822601617306  1.0000
  C   C8        1.0  0.2848283360492161  0.0719297412201456  0.9416936190127032  1.0000
  C   C9        1.0  0.7790332978262456  0.8620846993952681  0.9635394289104653  1.0000
  C   C10       1.0  0.22096573040941084  0.13791691117948796  0.0364598491074162  1.0000
  C   C11       1.0  0.836875050580872  0.9319447214289838  0.8861745901113096  1.0000
  C   C12       1.0  0.16312068956607825  0.06805785461735069  0.1138231079602434  1.0000
  C   C13       1.0  0.8293589062176778  0.0660239444363597  0.9067951954367431  1.0000
  C   C14       1.0  0.17063777263430072  0.9339757337270171  0.09320210845177712  1.0000
  C   C15       1.0  0.6465986747725765  0.1420550979208599  0.17301988176630803  1.0000
  C   C16       1.0  0.3534003415044041  0.8579455616980314  0.8269809181741012  1.0000
  C   C17       1.0  0.3986843325502464  0.8890936769514465  0.40310369758120856  1.0000
  C   C18       1.0  0.6013261566392245  0.11090009865269221  0.596886391639309  1.0000
  C   C19       1.0  0.9847234229794566  0.010399603606963098  0.3581222309668703  1.0000
  C   C20       1.0  0.015282247162552696  0.9896019913286336  0.6418788228625588  1.0000
  C   C21       1.0  0.7147099692540735  0.55282794312685  0.5346980252481899  1.0000
  C   C22       1.0  0.28528574697551795  0.44717273100775384  0.46530271666842543  1.0000
  C   C23       1.0  0.727490432856868  0.4205275439870134  0.5317410526487124  1.0000
  C   C24       1.0  0.2725075252158932  0.5794731338627059  0.4682613877143923  1.0000
  C   C25       1.0  0.817046443924724  0.3525167339887432  0.45360902098762784  1.0000
  C   C26       1.0  0.18295583953516834  0.6474829534624363  0.546392529017119  1.0000
  C   C27       1.0  0.8922371378203735  0.41889585707581745  0.3815303310315556  1.0000
  C   C28       1.0  0.1077641501526756  0.5811038686945905  0.6184753490418302  1.0000
  C   C29       1.0  0.8755904954634132  0.5513801340569556  0.390565172027884  1.0000
  C   C30       1.0  0.12441185071384808  0.4486195734826166  0.6094388676228064  1.0000
  C   C31       1.0  0.6162369011789083  0.6336143686081996  0.6127168629843994  1.0000
  C   C32       1.0  0.38375647762567405  0.3663853240708903  0.3872803828803343  1.0000
  S   S1        1.0  0.8062062539172815  0.39826698308791453  0.8257795046629042  1.0000
  S   S2        1.0  0.1937918236546778  0.601736574413941  0.1742216894605377  1.0000
  S   S3        1.0  0.726508952534644  0.5923899500261882  0.14850611962447863  1.0000
  S   S4        1.0  0.2734933518310427  0.4076097441211246  0.8514962602622449  1.0000
  S   S5        1.0  0.5038480229673397  0.791375337285082  0.3251501172944415  1.0000
  S   S6        1.0  0.4961625050221343  0.20861655649571983  0.6748455054170749  1.0000
  S   S7        1.0  0.9050817559500076  0.872621048009904  0.2990552797416512  1.0000
  S   S8        1.0  0.0949270857930884  0.12737859701758938  0.700944726546723  1.0000
  N   N1        1.0  0.0015149500564249053  0.6139990322476123  0.893466320688191  1.0000
  N   N2        1.0  0.9984863319810844  0.3860035329981316  0.10653313385365243  1.0000
  N   N3        1.0  0.492308018759644  0.6644000069693589  0.0161170352126589  1.0000
  N   N4        1.0  0.5076944558639268  0.33560163596261117  0.9838881100028801  1.0000
  N   N5        1.0  0.7697397706921052  0.12928644424573577  0.998558143180212  1.0000
  N   N6        1.0  0.2302580619459178  0.8707141934272041  0.0014393178910054592  1.0000
  N   N7        1.0  0.5694137411546691  0.08244810535172319  0.24186488095665484  1.0000
  N   N8        1.0  0.4305851795404792  0.9175515765267761  0.7581341213783618  1.0000
  N   N9        1.0  0.32248244965995815  0.9592220259316734  0.4594308868007104  1.0000
  N   N10       1.0  0.6775316621984402  0.0407775212455306  0.540560087492203  1.0000
  N   N11       1.0  0.0439070383578937  0.11145722089903386  0.3962796344505222  1.0000
  N   N12       1.0  0.9560954601830293  0.8885463239446663  0.6037224669199617  1.0000
  N   N13       1.0  0.7881644196248702  0.6163856845410649  0.4646729598132566  1.0000
  N   N14       1.0  0.2118356100331766  0.38361304823912684  0.5353284136675286  1.0000
  N   N15       1.0  0.5453586526169971  0.5785693829589177  0.6877710324700247  1.0000
  N   N16       1.0  0.4546359546496888  0.4214322402739938  0.3122273383008149  1.0000
  O   O1        1.0  0.6632869325460221  0.26338427569733364  0.1892430357759736  1.0000
  O   O2        1.0  0.3367098627935761  0.7366163869025683  0.8107568955999227  1.0000
  O   O3        1.0  0.5999763735134281  0.7503259675523919  0.6042119316499495  1.0000
  O   O4        1.0  0.4000158425579983  0.24967370987687332  0.39578280522756876  1.0000
