data_image0
_chemical_formula_structural       Cu3P2H24C34N4O10
_chemical_formula_sum              "Cu3 P2 H24 C34 N4 O10"
_cell_length_a       8.2766528958416
_cell_length_b       9.668232572417205
_cell_length_c       9.827904047823216
_cell_angle_alpha    86.33343265562154
_cell_angle_beta     85.13865092309446
_cell_angle_gamma    88.77090410732153

_space_group_name_H-M_alt    "P 1"
_space_group_IT_number       1

loop_
  _space_group_symop_operation_xyz
  'x, y, z'

loop_
  _atom_site_type_symbol
  _atom_site_label
  _atom_site_symmetry_multiplicity
  _atom_site_fract_x
  _atom_site_fract_y
  _atom_site_fract_z
  _atom_site_occupancy
  Cu  Cu1       1.0  0.5000135922581989  0.4999808835583083  0.4999688996876941  1.0000
  Cu  Cu2       1.0  0.8566438911861238  0.5305824037956697  0.7350223326831297  1.0000
  Cu  Cu3       1.0  0.14335094893862527  0.4694222872244398  0.2650189551345576  1.0000
  P   P1        1.0  0.8475007839246801  0.34375210145092444  0.470274048610527  1.0000
  P   P2        1.0  0.15250476215755526  0.6562244147156164  0.5297071902281871  1.0000
  H   H1        1.0  0.6339109390240837  0.28342780082615354  0.7236050353812898  1.0000
  H   H2        1.0  0.36611447616786547  0.7165486816928708  0.276437770742703  1.0000
  H   H3        1.0  0.020382410908261803  0.7851396083051726  0.8207358688226876  1.0000
  H   H4        1.0  0.9795133985181792  0.21491236328053273  0.17925601594339466  1.0000
  H   H5        1.0  0.8834817519908994  0.12324646217405903  0.6885234533050592  1.0000
  H   H6        1.0  0.11660890332818498  0.8766848117456689  0.3114318081096741  1.0000
  H   H7        1.0  0.6906915932774139  0.16706626141061073  0.295509844368155  1.0000
  H   H8        1.0  0.3092472754235445  0.8329336069238876  0.7045044991620131  1.0000
  H   H9        1.0  0.6142089970439598  0.39009076100747825  0.20848813958863124  1.0000
  H   H10       1.0  0.38572735083496906  0.6099444174791062  0.7915526032718958  1.0000
  H   H11       1.0  0.47415030484565795  0.13076282335222092  0.8979375528117686  1.0000
  H   H12       1.0  0.525876372470563  0.8692053525295761  0.10210264150260429  1.0000
  H   H13       1.0  0.044977792191069496  0.8941619631189401  0.04559314385132747  1.0000
  H   H14       1.0  0.9549844383989806  0.10590918086504794  0.9543781673852791  1.0000
  H   H15       1.0  0.7498416422323614  0.5652428337969511  0.2437086012487626  1.0000
  H   H16       1.0  0.2501552124343648  0.434817829687873  0.7563390860265925  1.0000
  H   H17       1.0  0.8012394457244482  0.8740992523037718  0.7116844002356402  1.0000
  H   H18       1.0  0.19888261122918038  0.12582136968680407  0.2882396367211726  1.0000
  H   H19       1.0  0.6083959844712369  0.9193225587293911  0.32072800396126405  1.0000
  H   H20       1.0  0.39158397694600205  0.08067385366246074  0.6792610299427224  1.0000
  H   H21       1.0  0.4630041618461931  0.18869672545734062  0.14719634263996537  1.0000
  H   H22       1.0  0.5369697309421325  0.8113350456285744  0.8528315695868541  1.0000
  H   H23       1.0  0.9035037468740938  0.7779893859416236  0.2604774080382625  1.0000
  H   H24       1.0  0.09653035772330298  0.22205845198563892  0.7395072039655942  1.0000
  C   C1        1.0  0.7924159134148853  0.1619219526699851  0.49084012850593683  1.0000
  C   C2        1.0  0.20758120873335884  0.8380619128107729  0.5091585780984003  1.0000
  C   C3        1.0  0.7060194031023243  0.4429222435469955  0.9985728496276282  1.0000
  C   C4        1.0  0.2939386903150947  0.5571127527339713  0.0014550465528130809  1.0000
  C   C5        1.0  0.6288111858652313  0.30220357677463744  0.8318073555535859  1.0000
  C   C6        1.0  0.3711957630669218  0.6978030970056679  0.1682328764918211  1.0000
  C   C7        1.0  0.960083754617621  0.7436143842150359  0.9172605759778135  1.0000
  C   C8        1.0  0.03983893362244122  0.25642912685449903  0.0827470954505998  1.0000
  C   C9        1.0  0.7979046601135734  0.5663815656106409  0.022563850734627494  1.0000
  C   C10       1.0  0.20205096749906906  0.4336607098071142  0.9774668159340506  1.0000
  C   C11       1.0  0.8237318970638084  0.07823063322310733  0.6076847724756502  1.0000
  C   C12       1.0  0.17633809779649567  0.9217111702391991  0.3922774953469812  1.0000
  C   C13       1.0  0.7173739709746555  0.10260866715705673  0.3861690816783252  1.0000
  C   C14       1.0  0.2825904838719779  0.8973702666339565  0.613836516322749  1.0000
  C   C15       1.0  0.6181381078051231  0.3635564623445689  0.10203136304122039  1.0000
  C   C16       1.0  0.3818029960031737  0.6364765801459812  0.8979938907567299  1.0000
  C   C17       1.0  0.539970908300006  0.21773058262674996  0.9302037157727128  1.0000
  C   C18       1.0  0.46001796309827364  0.7822710600409978  0.06984738424974068  1.0000
  C   C19       1.0  0.9720962610239424  0.802125654047231  0.04196935059641759  1.0000
  C   C20       1.0  0.027851707351771893  0.19793216451672896  0.9580273184935348  1.0000
  C   C21       1.0  0.8073482037565185  0.6179560499564404  0.1511622433862172  1.0000
  C   C22       1.0  0.19263265739335367  0.38210156054805827  0.8488522703644107  1.0000
  C   C23       1.0  0.777553869355259  0.940021968481702  0.621334746291545  1.0000
  C   C24       1.0  0.2225620341914265  0.059909063964575224  0.37858908840720307  1.0000
  C   C25       1.0  0.6715053677062739  0.9645890071295895  0.3995419706964043  1.0000
  C   C26       1.0  0.3285024700975185  0.035396807238015505  0.6004313682638481  1.0000
  C   C27       1.0  0.5344398087796874  0.24906441805882912  0.06696491694656001  1.0000
  C   C28       1.0  0.4655136066333867  0.7509602687012844  0.9330751974551175  1.0000
  C   C29       1.0  0.894843676889444  0.738017764152808  0.1604108465330114  1.0000
  C   C30       1.0  0.10513826785947339  0.26205123200683295  0.8395987774092571  1.0000
  C   C31       1.0  0.6994656840616216  0.8821973768715098  0.518193707954822  1.0000
  C   C32       1.0  0.3006090113619209  0.11775474147458453  0.4817593921682786  1.0000
  C   C33       1.0  0.6398183320380824  0.73680828922879  0.5386165626698087  1.0000
  C   C34       1.0  0.3602285106895735  0.263137814050829  0.4613370249758333  1.0000
  N   N1        1.0  0.7104580647500284  0.41130474095809444  0.865684526466154  1.0000
  N   N2        1.0  0.2895161387229024  0.5886990598923846  0.1343543294979312  1.0000
  N   N3        1.0  0.8744191718677995  0.6289260919499072  0.9084021908725501  1.0000
  N   N4        1.0  0.12551946613572076  0.3711142296774242  0.09162583341365149  1.0000
  O   O1        1.0  0.6478242909752436  0.6699331099452196  0.6527651381193067  1.0000
  O   O2        1.0  0.35219570757558927  0.33002353942512747  0.34717964799450834  1.0000
  O   O3        1.0  0.7036024288568825  0.4268411268578377  0.4153238987258874  1.0000
  O   O4        1.0  0.29644538296215467  0.5731069868234613  0.5845989586472838  1.0000
  O   O5        1.0  0.8930223895334491  0.3822291712461593  0.6110065367963458  1.0000
  O   O6        1.0  0.10691625712149032  0.6177945337151698  0.3890042463875218  1.0000
  O   O7        1.0  0.9906056697307193  0.34153176044466  0.3598624725024351  1.0000
  O   O8        1.0  0.009499296473499896  0.6583934130533963  0.6402162264016552  1.0000
  O   O9        1.0  0.5766860897445483  0.6877950618968073  0.4365193931789121  1.0000
  O   O10       1.0  0.4233690840691153  0.3121613273886937  0.5634237330209898  1.0000
