data_image0
_chemical_formula_structural       Cs4H16C16N44O4
_chemical_formula_sum              "Cs4 H16 C16 N44 O4"
_cell_length_a       8.874621656839826
_cell_length_b       10.55417197556699
_cell_length_c       11.387520068361297
_cell_angle_alpha    97.84010404773424
_cell_angle_beta     104.86808090254543
_cell_angle_gamma    90.78322905051031

_space_group_name_H-M_alt    "P 1"
_space_group_IT_number       1

loop_
  _space_group_symop_operation_xyz
  'x, y, z'

loop_
  _atom_site_type_symbol
  _atom_site_label
  _atom_site_symmetry_multiplicity
  _atom_site_fract_x
  _atom_site_fract_y
  _atom_site_fract_z
  _atom_site_occupancy
  Cs  Cs1       1.0  0.5165009224664843  0.3059390402085073  0.01618450873629478  1.0000
  Cs  Cs2       1.0  0.48349754280710755  0.694060700491903  0.9838135646178966  1.0000
  Cs  Cs3       1.0  0.20618717448241602  0.0555051751846634  0.10395889849636569  1.0000
  Cs  Cs4       1.0  0.7938136317947269  0.944494559516137  0.8960413912026508  1.0000
  H   H1        1.0  0.8786683448479736  0.29994955150134933  0.03778641008607761  1.0000
  H   H2        1.0  0.12133129092738669  0.7000501861992561  0.9622127714405263  1.0000
  H   H3        1.0  0.9054940904011345  0.2320742447696702  0.15600513549077266  1.0000
  H   H4        1.0  0.09450438403941062  0.7679254871001365  0.8439946948548707  1.0000
  H   H5        1.0  0.8065688823807521  0.48103607832756273  0.9141106845194001  1.0000
  H   H6        1.0  0.19343186167509427  0.5189627031289064  0.08588859003037186  1.0000
  H   H7        1.0  0.874747660356995  0.5259234253056916  0.05499471903279832  1.0000
  H   H8        1.0  0.1252507518622537  0.47407535331979034  0.9450040961636077  1.0000
  H   H9        1.0  0.9162177292851723  0.3842913030758339  0.6735607661803795  1.0000
  H   H10       1.0  0.08378202634930429  0.6157103455287326  0.3264395671489807  1.0000
  H   H11       1.0  0.24128278470126222  0.0025115116591720994  0.5570655988745372  1.0000
  H   H12       1.0  0.7587169132954016  0.9974891792857579  0.44293459780130456  1.0000
  H   H13       1.0  0.1643530026608674  0.6092396691284422  0.5779698045494752  1.0000
  H   H14       1.0  0.8356476791736752  0.3907581590837026  0.422028454851059  1.0000
  H   H15       1.0  0.501023934635434  0.23761658119694568  0.45762966691615486  1.0000
  H   H16       1.0  0.4989757057234101  0.7623831520883612  0.542370393106168  1.0000
  C   C1        1.0  0.0440951138139667  0.1983605494558844  0.5201157805413316  1.0000
  C   C2        1.0  0.9559058699601054  0.8016420538085002  0.4798857976139529  1.0000
  C   C3        1.0  0.06279228077854532  0.22048022235090775  0.6509752806284793  1.0000
  C   C4        1.0  0.9372062558832965  0.7795204627632304  0.3490255648664017  1.0000
  C   C5        1.0  0.15140742133816334  0.16138988906978824  0.7471803966774073  1.0000
  C   C6        1.0  0.8485898917675597  0.8386098369692332  0.25282008248727533  1.0000
  C   C7        1.0  0.25319909624170833  0.0564164392066075  0.7477050138536895  1.0000
  C   C8        1.0  0.7467994358366569  0.943584250322836  0.25229495314546563  1.0000
  C   C9        1.0  0.3001674433923682  0.42996101264019876  0.4237161082472765  1.0000
  C   C10       1.0  0.6998333098304385  0.5700377599856736  0.5762849232939472  1.0000
  C   C11       1.0  0.31363568611052983  0.4470880620465111  0.553865239778048  1.0000
  C   C12       1.0  0.6863662238636082  0.5529107208254587  0.44613426444841037  1.0000
  C   C13       1.0  0.3975442454024574  0.38347170256100344  0.6484586335955809  1.0000
  C   C14       1.0  0.6024576737386412  0.6165270714803699  0.35154262762232946  1.0000
  C   C15       1.0  0.4999398299982829  0.2786965911844845  0.6469677712475458  1.0000
  C   C16       1.0  0.5000609186410402  0.721302185856686  0.35303238179795216  1.0000
  N   N1        1.0  0.11610091679249732  0.10652950779189752  0.4631922179701391  1.0000
  N   N2        1.0  0.88389879037112  0.8934711743224356  0.5368097356971544  1.0000
  N   N3        1.0  0.07186370335352879  0.11967803171156531  0.3439882138493927  1.0000
  N   N4        1.0  0.9281359415887918  0.8803216971584432  0.6560127246686631  1.0000
  N   N5        1.0  0.9773712433347866  0.21547569883312429  0.32905786124381103  1.0000
  N   N6        1.0  0.022628459245353783  0.7845249876965067  0.6709432139277565  1.0000
  N   N7        1.0  0.9576802058418892  0.2674074307032157  0.43836941492507703  1.0000
  N   N8        1.0  0.042319540625626914  0.7325942267319405  0.5616291614128313  1.0000
  N   N9        1.0  0.9965272242144892  0.31590955811793003  0.7091623521675244  1.0000
  N   N10       1.0  0.003472531419987504  0.6840920904866296  0.29083798116182885  1.0000
  N   N11       1.0  0.03975922806583299  0.317811158686311  0.8313637882414822  1.0000
  N   N12       1.0  0.9602405321521202  0.68219048550295  0.16863742358360406  1.0000
  N   N13       1.0  0.1336342312808867  0.22438967361362225  0.8555005128507317  1.0000
  N   N14       1.0  0.8663643099644389  0.7756110070852172  0.14450121113987535  1.0000
  N   N15       1.0  0.33555780457874823  0.011725417950685803  0.8481826087759998  1.0000
  N   N16       1.0  0.6644406744452738  0.9882743095038296  0.1518181000653627  1.0000
  N   N17       1.0  0.4156057487155564  0.9150831475999227  0.8064311945663504  1.0000
  N   N18       1.0  0.5843916174445096  0.08491754051402009  0.19356854275611812  1.0000
  N   N19       1.0  0.3865002752433568  0.8996909426002089  0.6868408138118551  1.0000
  N   N20       1.0  0.6134981991971885  0.10030878926959733  0.31315901653378825  1.0000
  N   N21       1.0  0.2849565906568402  0.9878671320514629  0.6488821883693274  1.0000
  N   N22       1.0  0.7150419414215178  0.0121335574779735  0.3511177786298345  1.0000
  N   N23       1.0  0.3735310000059329  0.34046518546706755  0.3654790444913018  1.0000
  N   N24       1.0  0.6264697440499062  0.6595335959894014  0.63452023005847  1.0000
  N   N25       1.0  0.3306641234421974  0.3567833095090691  0.24691384122811397  1.0000
  N   N26       1.0  0.6693366782514617  0.6432164296070298  0.7530855699751766  1.0000
  N   N27       1.0  0.2356453879115037  0.4523785377922422  0.2339707571235649  1.0000
  N   N28       1.0  0.7643542524473403  0.5476211954930646  0.7660293028987579  1.0000
  N   N29       1.0  0.21419698644023547  0.500571493246909  0.3434237157524861  1.0000
  N   N30       1.0  0.7858038152534235  0.49942824586918994  0.6565756954507973  1.0000
  N   N31       1.0  0.2400520671248145  0.5374104816893919  0.6120758166476816  1.0000
  N   N32       1.0  0.7599486769310246  0.4625882997670844  0.3879234579020902  1.0000
  N   N33       1.0  0.27426415309614777  0.5317901309733415  0.733088569378374  1.0000
  N   N34       1.0  0.7257366485975114  0.4682096081427575  0.26691084182491653  1.0000
  N   N35       1.0  0.36946364632277817  0.43905699490052535  0.7562149017017743  1.0000
  N   N36       1.0  0.630537102316545  0.5609417821406525  0.24378525134372342  1.0000
  N   N37       1.0  0.5729805458559696  0.22474116231009594  0.7447608468214069  1.0000
  N   N38       1.0  0.4270202558376895  0.7752585768060031  0.25523856438188364  1.0000
  N   N39       1.0  0.6582682471939025  0.1327843545188543  0.7020717945786215  1.0000
  N   N40       1.0  0.34173138858145796  0.867215383181744  0.29792738694798254  1.0000
  N   N41       1.0  0.6403750360682494  0.12791729564389703  0.5839588280489989  1.0000
  N   N42       1.0  0.35962460429059456  0.8720824376414102  0.416041231973331  1.0000
  N   N43       1.0  0.5411676859284072  0.21872496197163122  0.5483148506946306  1.0000
  N   N44       1.0  0.45883306271091584  0.7812738150695396  0.4516853023508673  1.0000
  O   O1        1.0  0.8865349089724505  0.21485209258270302  0.06572681633786462  1.0000
  O   O2        1.0  0.11346589272121581  0.7851476465333959  0.9342725948654261  1.0000
  O   O3        1.0  0.807486671392759  0.4582134398302599  0.9960634816767704  1.0000
  O   O4        1.0  0.19251296896608494  0.5417862934550469  0.003936578345559397  1.0000
