data_image0
_chemical_formula_structural       Cd2H58C58N12Cl2O12
_chemical_formula_sum              "Cd2 H58 C58 N12 Cl2 O12"
_cell_length_a       9.362380952434206
_cell_length_b       12.19774680321309
_cell_length_c       14.0589
_cell_angle_alpha    75.69573624026081
_cell_angle_beta     84.8934765902982
_cell_angle_gamma    87.7992846491781

_space_group_name_H-M_alt    "P 1"
_space_group_IT_number       1

loop_
  _space_group_symop_operation_xyz
  'x, y, z'

loop_
  _atom_site_type_symbol
  _atom_site_label
  _atom_site_symmetry_multiplicity
  _atom_site_fract_x
  _atom_site_fract_y
  _atom_site_fract_z
  _atom_site_occupancy
  Cd  Cd1       1.0  0.9812803315415338  0.0024581405444621  0.6951096759917237  1.0000
  Cd  Cd2       1.0  0.018718359533018297  0.9975422029182753  0.3048899723208436  1.0000
  H   H1        1.0  0.7921200854133232  0.1132369307886592  0.8517098733200329  1.0000
  H   H2        1.0  0.2078796597874515  0.8867642588498229  0.14829024241475247  1.0000
  H   H3        1.0  0.10980756831555279  0.7683470401392329  0.8815888007778698  1.0000
  H   H4        1.0  0.8901890145065465  0.2316516109720084  0.1184106239834719  1.0000
  H   H5        1.0  0.7944849535872295  0.8203597709437177  0.17726275561290805  1.0000
  H   H6        1.0  0.2055169545692266  0.1796405725190198  0.8227374133042886  1.0000
  H   H7        1.0  0.1947970470108089  0.5932512775562914  0.9736468034242591  1.0000
  H   H8        1.0  0.8052016622981526  0.4067482197307015  0.026355870369251015  1.0000
  H   H9        1.0  0.0728278167979539  0.5153718003477863  0.0678217476898411  1.0000
  H   H10       1.0  0.9271698383847848  0.48462685076345485  0.9321797473882469  1.0000
  H   H11       1.0  0.21237720012531716  0.5882808412195716  0.09955704499001426  1.0000
  H   H12       1.0  0.7876214909492347  0.4117195022431659  0.9004440259089607  1.0000
  H   H13       1.0  0.8776718560788268  0.650386756331919  0.2717493727384905  1.0000
  H   H14       1.0  0.12232678029248939  0.34961612565805933  0.7282518685292914  1.0000
  H   H15       1.0  0.0588604248845002  0.6145452902245836  0.2417727058408232  1.0000
  H   H16       1.0  0.9411414650375463  0.3854558994138984  0.7582287053546538  1.0000
  H   H17       1.0  0.9194164190206847  0.5418664091559365  0.20859451836432893  1.0000
  H   H18       1.0  0.0805811814588253  0.4581347804825455  0.791408569668974  1.0000
  H   H19       1.0  0.6741254569093229  0.1292905770570059  0.018985883922177  1.0000
  H   H20       1.0  0.3258765059503688  0.8707072278784908  0.9810148259194165  1.0000
  H   H21       1.0  0.7092317976880551  0.0228746689633255  0.12523116886436725  1.0000
  H   H22       1.0  0.2907669116209064  0.9771248283236674  0.8747693710495313  1.0000
  H   H23       1.0  0.5367571035271794  0.8941547578223992  0.08045177034537684  1.0000
  H   H24       1.0  0.4632416057817821  0.1058447394645938  0.9195487695685216  1.0000
  H   H25       1.0  0.4573983862274887  0.0190042610974501  0.1038029715325592  1.0000
  H   H26       1.0  0.5426035036945578  0.980996928541032  0.896196305783306  1.0000
  H   H27       1.0  0.0643627433281466  0.8344976753212947  0.5399917602151376  1.0000
  H   H28       1.0  0.9356391283594833  0.1655043604929318  0.4600073367926001  1.0000
  H   H29       1.0  0.7432032968945493  0.819428131446486  0.8487613741024518  1.0000
  H   H30       1.0  0.2567943765225991  0.18056967348901054  0.15123958999057416  1.0000
  H   H31       1.0  0.674839995259184  0.5417132513457618  0.6462484583690157  1.0000
  H   H32       1.0  0.3251597864104099  0.45828624594122414  0.3537498841024204  1.0000
  H   H33       1.0  0.5592956822906815  0.7381106421787251  0.9632989297384358  1.0000
  H   H34       1.0  0.44070740763287125  0.2618846242295305  0.03670439134429418  1.0000
  H   H35       1.0  0.5240644934427082  0.5931928914297586  0.9755793510191211  1.0000
  H   H36       1.0  0.4759386511840803  0.40679983645125634  0.024422377108400905  1.0000
  H   H37       1.0  0.4125390185065925  0.6981423769542376  0.907396878415021  1.0000
  H   H38       1.0  0.5874630172907374  0.30185204327827364  0.09260597524550458  1.0000
  H   H39       1.0  0.4747872972249709  0.468290581795678  0.7493357142289412  1.0000
  H   H40       1.0  0.525212520913449  0.5317072231398186  0.25066370015196077  1.0000
  H   H41       1.0  0.3747276978868754  0.5657167187553256  0.805758894201489  1.0000
  H   H42       1.0  0.6252720837827255  0.4342827785316673  0.19424015956315088  1.0000
  H   H43       1.0  0.48616273693316714  0.46277436210226613  0.8757990125701411  1.0000
  H   H44       1.0  0.5138360088446134  0.5372234428332305  0.12420117666682272  1.0000
  H   H45       1.0  0.009563792819690801  0.6968638054008167  0.45178955295748585  1.0000
  H   H46       1.0  0.9904370612105352  0.3031356918861761  0.5482101485374997  1.0000
  H   H47       1.0  0.8286496521777025  0.6524911954142142  0.4686160698365925  1.0000
  H   H48       1.0  0.17135118361812124  0.34750914804851624  0.5313834513502584  1.0000
  H   H49       1.0  0.0669289656030969  0.5236727844239297  0.5884705101998551  1.0000
  H   H50       1.0  0.9330729607877688  0.4763267128630632  0.4115291277322727  1.0000
  H   H51       1.0  0.8899664242115648  0.47661525879271954  0.5896065105604861  1.0000
  H   H52       1.0  0.110033357458029  0.5233842384942663  0.4103925432041536  1.0000
  H   H53       1.0  0.38810139932918025  0.24741671131069157  0.6257398036151187  1.0000
  H   H54       1.0  0.6118961464470942  0.7525870168550314  0.37425847573458526  1.0000
  H   H55       1.0  0.686168141497305  0.2955962659821624  0.3669282732863551  1.0000
  H   H56       1.0  0.3138326760641093  0.7044049236563197  0.6330703562991644  1.0000
  H   H57       1.0  0.3616330655023319  0.03952063825443021  0.4207782049156705  1.0000
  H   H58       1.0  0.6383698967803468  0.960480551384052  0.5792224314237446  1.0000
  C   C1        1.0  0.8333202490373708  0.03406026616031  0.8955833271451468  1.0000
  C   C2        1.0  0.16668058675845285  0.9659400773024276  0.10441548274850015  1.0000
  C   C3        1.0  0.9516573218204984  0.8748154111292195  0.9392065016794788  1.0000
  C   C4        1.0  0.0483414239572824  0.12518239380627702  0.06079368755748502  1.0000
  C   C5        1.0  0.04063095992047041  0.7788827743626785  0.9454668331909277  1.0000
  C   C6        1.0  0.9593666952622687  0.2211158767485628  0.05453395059396366  1.0000
  C   C7        1.0  0.039444738181345  0.6976778264692385  0.03511941993422605  1.0000
  C   C8        1.0  0.9605529534702129  0.3023191322905063  0.9648817244669203  1.0000
  C   C9        1.0  0.9492191040113623  0.7126212901577774  0.11870404643223507  1.0000
  C   C10       1.0  0.0507806776582314  0.2873782071292084  0.8812978525052133  1.0000
  C   C11       1.0  0.8598192728570028  0.8080335288400349  0.112382364909891  1.0000
  C   C12       1.0  0.1401826352994533  0.1919668146226954  0.8876185153005098  1.0000
  C   C13       1.0  0.8619375860124806  0.8877855929762151  0.022117485427720827  1.0000
  C   C14       1.0  0.13806221389152282  0.1122130581350262  0.9778824599382505  1.0000
  C   C15       1.0  0.1346156229148363  0.5937742141678158  0.0441576289678594  1.0000
  C   C16       1.0  0.8653820505023047  0.4062235907676808  0.9558447577115674  1.0000
  C   C17       1.0  0.9509809523180268  0.6255870375446193  0.21514245157052866  1.0000
  C   C18       1.0  0.0490177205221158  0.3744141520938626  0.7848584390203115  1.0000
  C   C19       1.0  0.6768954488892547  0.0373239660157267  0.04991949085665231  1.0000
  C   C20       1.0  0.3231064775016108  0.962675531271259  0.9500801470754753  1.0000
  C   C21       1.0  0.5297487316383639  0.9865385335068455  0.050572636379996476  1.0000
  C   C22       1.0  0.4702553030049473  0.013462656131636701  0.9494265138101526  1.0000
  C   C23       1.0  0.978429823062811  0.7960922967011542  0.5938714148718915  1.0000
  C   C24       1.0  0.02156890448056  0.203906354410087  0.4061285940569377  1.0000
  C   C25       1.0  0.8194346758142927  0.7602372917818769  0.7199595935214376  1.0000
  C   C26       1.0  0.18056405172907833  0.23976135932937134  0.28003970411419493  1.0000
  C   C27       1.0  0.7296702801312307  0.7588580253145878  0.8050800180064643  1.0000
  C   C28       1.0  0.2703284474121403  0.24114062579666043  0.19491999092236512  1.0000
  C   C29       1.0  0.6212746928804621  0.6792506572311156  0.8328974322582425  1.0000
  C   C30       1.0  0.3787218899416374  0.32074799388013286  0.167101992503099  1.0000
  C   C31       1.0  0.6009169173439873  0.6011757134250999  0.7747755265553594  1.0000
  C   C32       1.0  0.3990818466682029  0.398821245334645  0.22522413169652816  1.0000
  C   C33       1.0  0.6919429734377971  0.6012349457273772  0.6903547890716838  1.0000
  C   C34       1.0  0.30805577233998355  0.3987628592081195  0.30964540016527314  1.0000
  C   C35       1.0  0.800600286151564  0.6808888534769224  0.6641585287356904  1.0000
  C   C36       1.0  0.1994005861130788  0.31910979763431874  0.3358406417742188  1.0000
  C   C37       1.0  0.5243222403840236  0.6774246099695136  0.9244277784619259  1.0000
  C   C38       1.0  0.4756818854313424  0.32257234879023866  0.07557511844168373  1.0000
  C   C39       1.0  0.4782668690095377  0.5201053074754044  0.8025358778675767  1.0000
  C   C40       1.0  0.5217340214895145  0.4798924974600923  0.19746347295046718  1.0000
  C   C41       1.0  0.9282630920547207  0.6484735529683975  0.5054395583784412  1.0000
  C   C42       1.0  0.07173665314605421  0.3515276366700846  0.4945605573563441  1.0000
  C   C43       1.0  0.9770339935768249  0.5261580025922896  0.5428764671621664  1.0000
  C   C44       1.0  0.022965715155130798  0.4738448793976886  0.4571239992495535  1.0000
  C   C45       1.0  0.3619417301911056  0.1377616424582513  0.529885090040878  1.0000
  C   C46       1.0  0.6380580332440786  0.8622387010044862  0.4701166285884355  1.0000
  C   C47       1.0  0.4271691366813428  0.22434996045284814  0.5580460606930729  1.0000
  C   C48       1.0  0.5728305720506057  0.7756529215371303  0.4419515605458386  1.0000
  C   C49       1.0  0.5416214498164323  0.28046748980506925  0.4982705537264849  1.0000
  C   C50       1.0  0.45837825891551637  0.719535392184909  0.5017313352716428  1.0000
  C   C51       1.0  0.5962632018013068  0.2514732778408657  0.4125245773130928  1.0000
  C   C52       1.0  0.4037418322649984  0.7485312965006017  0.587474499374878  1.0000
  C   C53       1.0  0.5305165677528763  0.1636503894316874  0.3872132836074941  1.0000
  C   C54       1.0  0.46948210508726634  0.8363508002067946  0.6127876069833532  1.0000
  C   C55       1.0  0.4131379543039131  0.10662914438187703  0.44335067480552237  1.0000
  C   C56       1.0  0.5868670979968017  0.893374583783846  0.5566485821905758  1.0000
  C   C57       1.0  0.23358659916484473  0.0812303331658413  0.5916865424920844  1.0000
  C   C58       1.0  0.7664120736752978  0.9187708564726407  0.408313636805552  1.0000
  N   N1        1.0  0.9309600693931729  0.9682035974251237  0.8612084017478879  1.0000
  N   N2        1.0  0.0690386763846078  0.031794207510373  0.1387910761958722  1.0000
  N   N3        1.0  0.7886614624981547  0.9902287059386552  0.9916719182739798  1.0000
  N   N4        1.0  0.2113393732976618  0.009771637524082201  0.0083268916196673  1.0000
  N   N5        1.0  0.931644052664268  0.8309149672093313  0.6739091304948631  1.0000
  N   N6        1.0  0.06835572900533292  0.1690845300776544  0.3260899232697768  1.0000
  N   N7        1.0  0.9034605565982617  0.7064932853994323  0.5846060537808028  1.0000
  N   N8        1.0  0.0965392068369297  0.2935070580633052  0.4153935309689132  1.0000
  N   N9        1.0  0.6048003988749855  0.375079246230854  0.5256140140530405  1.0000
  N   N10       1.0  0.3952067434437723  0.6249270204621099  0.47437603937452627  1.0000
  N   N11       1.0  0.5876420838411747  0.1310650075980533  0.2971577927869049  1.0000
  N   N12       1.0  0.41236185963008154  0.8689404129191658  0.7028425897421968  1.0000
  Cl  Cl1       1.0  0.7929022495127  0.1473056587064434  0.6435033211575033  1.0000
  Cl  Cl2       1.0  0.2070964233274353  0.8526955309320386  0.356497569433337  1.0000
  O   O1        1.0  0.17626112697733734  0.0019707433143026  0.5654210586758737  1.0000
  O   O2        1.0  0.8237364735021657  0.9980304463241796  0.4345791841846209  1.0000
  O   O3        1.0  0.1864463125151161  0.11737642254202292  0.6666816889880496  1.0000
  O   O4        1.0  0.8135513061987963  0.8826239209207145  0.3333173115941719  1.0000
  O   O5        1.0  0.6967337777657718  0.431415935101498  0.4665103295554047  1.0000
  O   O6        1.0  0.3032649133087801  0.5685844083612395  0.5334935865163787  1.0000
  O   O7        1.0  0.5608781176985503  0.39505914796436065  0.6056336344647235  1.0000
  O   O8        1.0  0.43911293921068056  0.6049471187286032  0.3943666192173296  1.0000
  O   O9        1.0  0.5333667567671228  0.04910188623548351  0.2774921072143073  1.0000
  O   O10       1.0  0.4666298078205672  0.9508976110515095  0.722511404998123  1.0000
  O   O11       1.0  0.6880307145810818  0.1869185301172749  0.2462041171417511  1.0000
  O   O12       1.0  0.3119690670885191  0.8130809671697179  0.7537956479160925  1.0000
