data_image0
_chemical_formula_structural       Zn6H6C24O18
_chemical_formula_sum              "Zn6 H6 C24 O18"
_cell_length_a       6.668408805969958
_cell_length_b       15.176979204534918
_cell_length_c       15.177673448833806
_cell_angle_alpha    117.88647139324016
_cell_angle_beta     98.4253482041733
_cell_angle_gamma    98.41418702634823

_space_group_name_H-M_alt    "P 1"
_space_group_IT_number       1

loop_
  _space_group_symop_operation_xyz
  'x, y, z'

loop_
  _atom_site_type_symbol
  _atom_site_label
  _atom_site_symmetry_multiplicity
  _atom_site_fract_x
  _atom_site_fract_y
  _atom_site_fract_z
  _atom_site_occupancy
  Zn  Zn1       1.0  0.03558843237485113  0.4103211516085564  0.7358610642893597  1.0000
  Zn  Zn2       1.0  0.6252906998635267  0.3254868904474719  0.5896497763525943  1.0000
  Zn  Zn3       1.0  0.29969860298008644  0.264111341804103  0.6744845261920673  1.0000
  Zn  Zn4       1.0  0.9644121084178036  0.5896791351457437  0.2641391936240182  1.0000
  Zn  Zn5       1.0  0.3747098409291353  0.6745133963068282  0.4103504815607764  1.0000
  Zn  Zn6       1.0  0.700301553393075  0.7358881759101977  0.32551534724913733  1.0000
  H   H1        1.0  0.3133850831377884  0.46020527039357967  0.4364990762859976  1.0000
  H   H2        1.0  0.8531655385679144  0.9763153899170973  0.539908265495889  1.0000
  H   H3        1.0  0.8768248875413817  0.5635914613541358  0.023644935611891106  1.0000
  H   H4        1.0  0.6866154601832475  0.5397950164136772  0.5635005229532978  1.0000
  H   H5        1.0  0.1468334888119998  0.023684896941929892  0.4600912350918449  1.0000
  H   H6        1.0  0.12317565325127322  0.43640882540017145  0.9763553223014867  1.0000
  C   C1        1.0  0.2713466318059332  0.40188386439159973  0.5708910025541343  1.0000
  C   C2        1.0  0.8693382524971867  0.1689448051802884  0.5981016688291305  1.0000
  C   C3        1.0  0.7003574549997325  0.4291344763929388  0.8309994707680133  1.0000
  C   C4        1.0  0.7286539089867289  0.5981164223627076  0.42910925535924344  1.0000
  C   C5        1.0  0.13066077235436066  0.8310554816257891  0.4018984904326787  1.0000
  C   C6        1.0  0.2996430832645558  0.5708658103084119  0.1690014458194469  1.0000
  C   C7        1.0  0.12577676122342749  0.4509444234231522  0.536630928754974  1.0000
  C   C8        1.0  0.6747180606644534  0.0856697132739157  0.549070318883885  1.0000
  C   C9        1.0  0.5890767338340055  0.4633920541068974  0.9143163962607445  1.0000
  C   C10       1.0  0.8742222661564865  0.5490558634358749  0.46336857183275276  1.0000
  C   C11       1.0  0.32528132434134693  0.9143282663074361  0.45092944428704856  1.0000
  C   C12       1.0  0.4109219015413004  0.5366074635532669  0.08568469587705604  1.0000
  C   C13       1.0  0.9433825127929154  0.4726582388654209  0.5733762794610583  1.0000
  C   C14       1.0  0.47064294338847645  0.1007029230391225  0.5272910081760074  1.0000
  C   C15       1.0  0.36998240655996284  0.4265951746220082  0.8993060615822088  1.0000
  C   C16       1.0  0.056619156992986926  0.52734127874416  0.42662435130579013  1.0000
  C   C17       1.0  0.5293575999325525  0.8992973637681343  0.47270859106328805  1.0000
  C   C18       1.0  0.6300192657543136  0.5734043430405292  0.10069391051055734  1.0000
  C   C19       1.0  0.17494407554511326  0.4779059212125105  0.46428973760113484  1.0000
  C   C20       1.0  0.6970334837522782  0.9863978434092785  0.5221917866090493  1.0000
  C   C21       1.0  0.7106272804064346  0.5357755316100282  0.013596518309263806  1.0000
  C   C22       1.0  0.8250564677759158  0.5220943655947464  0.5357098616381606  1.0000
  C   C23       1.0  0.30296667514925696  0.013601674357978794  0.477807428158073  1.0000
  C   C24       1.0  0.28937515821846926  0.4642255240795522  0.9864048814019313  1.0000
  O   O1        1.0  0.25799022451661807  0.3912530345268337  0.6497344905323602  1.0000
  O   O2        1.0  0.866664668720986  0.25839981207745677  0.6086702306653464  1.0000
  O   O3        1.0  0.6082136007386509  0.3502626695203972  0.7415612180875328  1.0000
  O   O4        1.0  0.7420099318565433  0.6087464831874739  0.3502653829088374  1.0000
  O   O5        1.0  0.13333435613056105  0.7416004747286209  0.3913299285964627  1.0000
  O   O6        1.0  0.3917869400540113  0.6497376172339102  0.25843903982583777  1.0000
  O   O7        1.0  0.4132172369889773  0.3727830206915357  0.5238730493110779  1.0000
  O   O8        1.0  0.040314538105754076  0.1510145171634178  0.6272024795178055  1.0000
  O   O9        1.0  0.8892416096774409  0.47615540347031526  0.848913008259757  1.0000
  O   O10       1.0  0.5867833063320518  0.6272172661157214  0.4761265499282175  1.0000
  O   O11       1.0  0.9596860026869005  0.8489857695908823  0.37279777839556527  1.0000
  O   O12       1.0  0.11075854669572742  0.5238441142439924  0.15108686518144762  1.0000
  O   O13       1.0  0.8741441281278244  0.4476642953310018  0.6403621493237424  1.0000
  O   O14       1.0  0.4263134045512729  0.19269286603577032  0.5523024583026627  1.0000
  O   O15       1.0  0.23372559984812816  0.3596056279661681  0.8073201190023341  1.0000
  O   O16       1.0  0.12585641519320478  0.552335991476255  0.3596374499155459  1.0000
  O   O17       1.0  0.5736856228286411  0.8073074208232568  0.44769704228506413  1.0000
  O   O18       1.0  0.7662749409445339  0.6403946587881318  0.19268013891104363  1.0000
