data_image0
_chemical_formula_structural       Al2H20C24N4O10
_chemical_formula_sum              "Al2 H20 C24 N4 O10"
_cell_length_a       6.660687204075598
_cell_length_b       10.983507322052207
_cell_length_c       16.85090036793102
_cell_angle_alpha    72.79372104169924
_cell_angle_beta     84.0329298911445
_cell_angle_gamma    74.50486872837998

_space_group_name_H-M_alt    "P 1"
_space_group_IT_number       1

loop_
  _space_group_symop_operation_xyz
  'x, y, z'

loop_
  _atom_site_type_symbol
  _atom_site_label
  _atom_site_symmetry_multiplicity
  _atom_site_fract_x
  _atom_site_fract_y
  _atom_site_fract_z
  _atom_site_occupancy
  Al  Al1       1.0  0.5033456590034432  0.4964372093516475  0.5001274349201524  1.0000
  Al  Al2       1.0  0.0026655089098498027  0.49817010205786244  0.4989636231228403  1.0000
  H   H1        1.0  0.2103728748341212  0.6492962351634829  0.41969508528130467  1.0000
  H   H2        1.0  0.775466526985099  0.3911399756524644  0.601618551055374  1.0000
  H   H3        1.0  0.9373892931178959  0.40836107050767373  0.7504942946638238  1.0000
  H   H4        1.0  0.8567793122664256  0.4168446730401669  0.8977803907748054  1.0000
  H   H5        1.0  0.3345395136704354  0.6212795436770904  0.8771190214978973  1.0000
  H   H6        1.0  0.6580684252838581  0.38597018535435973  0.1203092328105342  1.0000
  H   H7        1.0  0.14471725011105013  0.5828293666646402  0.10264237039912422  1.0000
  H   H8        1.0  0.06772423904096317  0.5861329996504026  0.2511205400020984  1.0000
  H   H9        1.0  0.2845549882203076  0.8868550099666732  0.44939639930903047  1.0000
  H   H10       1.0  0.7172248820928074  0.11233972625478117  0.5471524186208256  1.0000
  H   H11       1.0  0.5139886193241596  0.6885364495204128  0.7565723615382397  1.0000
  H   H12       1.0  0.4063310456203694  0.7080368046443155  0.6597062814249527  1.0000
  H   H13       1.0  0.6000364469377928  0.5661330770852332  0.7025176618873274  1.0000
  H   H14       1.0  0.402042921547384  0.43499275523756603  0.3002306458689575  1.0000
  H   H15       1.0  0.5938312795624654  0.2885606177664215  0.3359889036561157  1.0000
  H   H16       1.0  0.4738281847825405  0.32052615746834323  0.2397360048613635  1.0000
  H   H17       1.0  0.02255558986303194  0.21381742038185084  0.461975877125994  1.0000
  H   H18       1.0  0.0020591687681559127  0.07121335154194239  0.441659549778791  1.0000
  H   H19       1.0  0.9693158170627427  0.7769309334224063  0.5445892157132873  1.0000
  H   H20       1.0  0.982138816872137  0.9079618325267726  0.5791957800378569  1.0000
  C   C1        1.0  0.6550559527076133  0.7319387483825679  0.4879370272513484  1.0000
  C   C2        1.0  0.7835157145569837  0.500222134299058  0.35543139840536503  1.0000
  C   C3        1.0  0.34796331707281786  0.2658018896370676  0.5093484131879222  1.0000
  C   C4        1.0  0.2211934051362477  0.49428919585103853  0.6452394705808048  1.0000
  C   C5        1.0  0.18308752850096977  0.5076675964490391  0.731443599454579  1.0000
  C   C6        1.0  0.024132841952607096  0.4543986048453306  0.7793777275686082  1.0000
  C   C7        1.0  0.9786728144934359  0.4586257093099915  0.8606406469455337  1.0000
  C   C8        1.0  0.09466191331866017  0.518622327253098  0.8957264493719634  1.0000
  C   C9        1.0  0.25000937528197653  0.5741029263704717  0.8479393779407971  1.0000
  C   C10       1.0  0.29830357231904975  0.5706259060189397  0.7656532914189071  1.0000
  C   C11       1.0  0.7449636110434453  0.43063746796873653  0.1503332042197414  1.0000
  C   C12       1.0  0.901778570635969  0.4853824102337895  0.10314786157096731  1.0000
  C   C13       1.0  0.021241035973190592  0.5420094247257764  0.1392349893673313  1.0000
  C   C14       1.0  0.9779519049902134  0.5435501428841645  0.22103221009333401  1.0000
  C   C15       1.0  0.8179790573012439  0.49064096964054466  0.2684169395741024  1.0000
  C   C16       1.0  0.6988182803829729  0.4312535701707957  0.23319238193970193  1.0000
  C   C17       1.0  0.4197081367014163  0.12940544778902563  0.502943098607183  1.0000
  C   C18       1.0  0.5839797769970758  0.8696854311608606  0.49242109365040676  1.0000
  C   C19       1.0  0.29098970228301363  0.06765649098662149  0.47347069759767635  1.0000
  C   C20       1.0  0.7135435578097076  0.9326164547680238  0.5204389376492032  1.0000
  C   C21       1.0  0.3792470938923744  0.937896664360714  0.4701563837421219  1.0000
  C   C22       1.0  0.6246978975885467  0.06098126185877818  0.5253113639857504  1.0000
  C   C23       1.0  0.4633511736288014  0.6367989102706773  0.7187990661812336  1.0000
  C   C24       1.0  0.5329100975523887  0.3655832611942457  0.2794789784216647  1.0000
  N   N1        1.0  0.06794819652392192  0.5285241740413441  0.9780975915577699  1.0000
  N   N2        1.0  0.9279381830799309  0.4768004888912358  0.020558710956251516  1.0000
  N   N3        1.0  0.0924666874565929  0.12984795800787904  0.4460406261440114  1.0000
  N   N4        1.0  0.9211232016546096  0.8748254317785323  0.5394217204644463  1.0000
  O   O1        1.0  0.5192623341543338  0.6769495304831992  0.47559263172758653  1.0000
  O   O2        1.0  0.929468597057614  0.52376900219636  0.38758989104787395  1.0000
  O   O3        1.0  0.15383851920918806  0.32366348775455833  0.4998303916314483  1.0000
  O   O4        1.0  0.39755078898628676  0.5037098455149405  0.6100603602021976  1.0000
  O   O5        1.0  0.4827180809874676  0.3192478798955846  0.524275591451705  1.0000
  O   O6        1.0  0.07381705288967313  0.4730565057777553  0.6123275511092459  1.0000
  O   O7        1.0  0.8498981255773542  0.6747854954234852  0.4971147848657651  1.0000
  O   O8        1.0  0.6109810125050003  0.48617060657363  0.39236729667737796  1.0000
  O   O9        1.0  0.23548084915752554  0.5623695370358845  0.458573500385306  1.0000
  O   O10       1.0  0.7708006694198916  0.4334761575905544  0.5423961203992533  1.0000
