data_image0
_chemical_formula_structural       Zn4H24C48N8Cl8O16
_chemical_formula_sum              "Zn4 H24 C48 N8 Cl8 O16"
_cell_length_a       7.769201183628822
_cell_length_b       7.777056072647271
_cell_length_c       24.689419138300963
_cell_angle_alpha    89.9998597347615
_cell_angle_beta     91.21628158890258
_cell_angle_gamma    89.99822601955941

_space_group_name_H-M_alt    "P 1"
_space_group_IT_number       1

loop_
  _space_group_symop_operation_xyz
  'x, y, z'

loop_
  _atom_site_type_symbol
  _atom_site_label
  _atom_site_symmetry_multiplicity
  _atom_site_fract_x
  _atom_site_fract_y
  _atom_site_fract_z
  _atom_site_occupancy
  Zn  Zn1       1.0  0.4138064442353978  0.8808371256137663  0.39680994139460785  1.0000
  Zn  Zn2       1.0  0.586192662770479  0.880823698074018  0.10318540629002372  1.0000
  Zn  Zn3       1.0  0.5861879172184954  0.11917212928936752  0.6031838038415814  1.0000
  Zn  Zn4       1.0  0.41383607112543064  0.11914955353331182  0.896823468185808  1.0000
  H   H1        1.0  0.442741872069135  0.4981486901417824  0.40841340411000726  1.0000
  H   H2        1.0  0.5572865291815176  0.498126112553287  0.09157971610417803  1.0000
  H   H3        1.0  0.5572437438273994  0.5018528496700443  0.591578888391368  1.0000
  H   H4        1.0  0.4427691855125176  0.5018368527846137  0.9084298836713955  1.0000
  H   H5        1.0  0.29619693735144637  0.8176827850236423  0.28064713843225064  1.0000
  H   H6        1.0  0.7037797854880166  0.8176667462697511  0.21934717690665206  1.0000
  H   H7        1.0  0.7038003237474229  0.18232518414180993  0.7193450612871858  1.0000
  H   H8        1.0  0.2962475811230546  0.18230650530409065  0.7806620666780975  1.0000
  H   H9        1.0  0.24551328031726158  0.26522935723797053  0.2613491058963789  1.0000
  H   H10       1.0  0.7544014721183527  0.26520978885069724  0.23866047610233213  1.0000
  H   H11       1.0  0.7544074833445721  0.7347824679779511  0.7386507781148168  1.0000
  H   H12       1.0  0.24560994683452708  0.7347621763619829  0.761357267806524  1.0000
  H   H13       1.0  0.03384461705840639  0.9069288755901825  0.38367232751351577  1.0000
  H   H14       1.0  0.966170955601548  0.9068982176532361  0.11631917612589153  1.0000
  H   H15       1.0  0.9661718321715614  0.09310095301725603  0.616320793988237  1.0000
  H   H16       1.0  0.033848489511655054  0.09308917814521324  0.8836845782905558  1.0000
  H   H17       1.0  0.3557989868840679  0.7638061262758458  0.5132698949089376  1.0000
  H   H18       1.0  0.6441936389062662  0.7638119067940965  0.9867263179015853  1.0000
  H   H19       1.0  0.6441841895463083  0.2361864124791637  0.486728014106781  1.0000
  H   H20       1.0  0.3558196297847188  0.23617677478628712  0.013276052877742504  1.0000
  H   H21       1.0  0.8009676908365504  0.7206445887900585  0.5289514643953411  1.0000
  H   H22       1.0  0.19902401742397294  0.7206052874029896  0.9710371237368777  1.0000
  H   H23       1.0  0.19901344379826474  0.2794045269046635  0.471037460867592  1.0000
  H   H24       1.0  0.8009910299529821  0.2794078251216235  0.028962859745909997  1.0000
  C   C1        1.0  0.346059951327774  0.36082630449027425  0.3379237573691968  1.0000
  C   C2        1.0  0.6539083466780866  0.36080344075809023  0.16207776921281442  1.0000
  C   C3        1.0  0.6539044478338311  0.6391803782358992  0.6620712117015517  1.0000
  C   C4        1.0  0.3461211768288521  0.639172382448628  0.8379335616960831  1.0000
  C   C5        1.0  0.3905101567139511  0.5083651644603081  0.3672055751391383  1.0000
  C   C6        1.0  0.6094802468284684  0.5083428192432039  0.13279186948338415  1.0000
  C   C7        1.0  0.6094608313486276  0.49164151838989784  0.6327887593311774  1.0000
  C   C8        1.0  0.3905544160862248  0.4916265748715887  0.8672195995682017  1.0000
  C   C9        1.0  0.30959298422146014  0.6863474643918509  0.2955554996391499  1.0000
  C   C10       1.0  0.6903774864137728  0.6863306930166647  0.2044401873931534  1.0000
  C   C11       1.0  0.6903830603220765  0.3136617901871547  0.7044393766413395  1.0000
  C   C12       1.0  0.3096432088484775  0.31364127258508034  0.7955700944373165  1.0000
  C   C13       1.0  0.2632833418976404  0.544247728940519  0.26389850530330966  1.0000
  C   C14       1.0  0.7366740053905968  0.5442264849834544  0.23609910703261516  1.0000
  C   C15       1.0  0.7366732659140139  0.4557628111578823  0.7360966601889845  1.0000
  C   C16       1.0  0.2633517465920787  0.45574290901268455  0.7639117165969369  1.0000
  C   C17       1.0  0.28112017377330284  0.37864095388263763  0.2849666388656971  1.0000
  C   C18       1.0  0.7188279009401339  0.3786179542056942  0.21503730656571216  1.0000
  C   C19       1.0  0.7188247884768231  0.6213708718637323  0.7150286194251763  1.0000
  C   C20       1.0  0.2811918043491772  0.6213514395551915  0.7849778190359802  1.0000
  C   C21       1.0  0.36774445573407627  0.18862179850597022  0.3644762802675672  1.0000
  C   C22       1.0  0.6322363183407588  0.18859098774665034  0.135529278020492  1.0000
  C   C23       1.0  0.6322300562697192  0.8113925993449985  0.6355197724290704  1.0000
  C   C24       1.0  0.3677906359113052  0.8113784062540363  0.8644819837962602  1.0000
  C   C25       1.0  0.8976746380124254  0.8134870538057515  0.45308426923439543  1.0000
  C   C26       1.0  0.10232506007862698  0.8134544120343039  0.046906982299027816  1.0000
  C   C27       1.0  0.10232398923378837  0.18654534623158278  0.5469075614288174  1.0000
  C   C28       1.0  0.8976900702251172  0.1865496996695911  0.9530925975162817  1.0000
  C   C29       1.0  0.04509872875392054  0.8553066378169732  0.42467089887310294  1.0000
  C   C30       1.0  0.9549120797056997  0.8552795896575704  0.0753229658127239  1.0000
  C   C31       1.0  0.9549112141426686  0.14472190484730166  0.5753224535782381  1.0000
  C   C32       1.0  0.04510889758804375  0.14471037787051705  0.9246796122042158  1.0000
  C   C33       1.0  0.22439696025357844  0.7753230907575956  0.497114561585839  1.0000
  C   C34       1.0  0.775594856849686  0.7753208664364026  0.0028819001147936934  1.0000
  C   C35       1.0  0.7755917672850287  0.22468102064823375  0.5028814673710756  1.0000
  C   C36       1.0  0.2244178341076334  0.22467167254347237  0.99712329620931  1.0000
  C   C37       1.0  0.08148992967377915  0.7321557008268514  0.5277768965804129  1.0000
  C   C38       1.0  0.9185013300636342  0.7321453142070028  0.9722150050024612  1.0000
  C   C39       1.0  0.9184928684269735  0.26786126890672085  0.4722165378201596  1.0000
  C   C40       1.0  0.0815134701493463  0.267860083272602  0.027786189407876808  1.0000
  C   C41       1.0  0.9154461525449449  0.7502701727967253  0.5058402131544426  1.0000
  C   C42       1.0  0.08454375142424907  0.7502386306222847  0.9941501519453129  1.0000
  C   C43       1.0  0.08453303772991913  0.24976865609440327  0.4941519067316735  1.0000
  C   C44       1.0  0.9154697640116323  0.24976676683830595  0.0058510079258838  1.0000
  C   C45       1.0  0.7243338250247856  0.8401855277585074  0.4268290487246632  1.0000
  C   C46       1.0  0.27567755527675075  0.8401437495529579  0.07315620500182261  1.0000
  C   C47       1.0  0.27567333572181946  0.15985201587204761  0.5731589527038423  1.0000
  C   C48       1.0  0.7243426324658271  0.15984236054214312  0.926843916579273  1.0000
  N   N1        1.0  0.37169179527172247  0.6667931074919269  0.3463715963495347  1.0000
  N   N2        1.0  0.6282868377803225  0.6667725635687493  0.15362458265123993  1.0000
  N   N3        1.0  0.6282779078341534  0.3332174328400655  0.6536227035899671  1.0000
  N   N4        1.0  0.3717401164717415  0.3331968304319376  0.8463866791655122  1.0000
  N   N5        1.0  0.20395927247331969  0.8353702903051855  0.4461912551121614  1.0000
  N   N6        1.0  0.7960442335325553  0.8353525237567541  0.053803089100590305  1.0000
  N   N7        1.0  0.7960386130415315  0.16464410793151535  0.5538042083448006  1.0000
  N   N8        1.0  0.2039752117003814  0.16463230037449259  0.9462006653103077  1.0000
  Cl  Cl1       1.0  0.18331487221770712  0.5793801292789527  0.1993123838123623  1.0000
  Cl  Cl2       1.0  0.8166255304225628  0.5793661763543627  0.3006890712070671  1.0000
  Cl  Cl3       1.0  0.8166492791812626  0.4206316967382052  0.8006837962136759  1.0000
  Cl  Cl4       1.0  0.18338849277245828  0.4206199332784736  0.6993222489024121  1.0000
  Cl  Cl5       1.0  0.11244812499618459  0.6581286166773169  0.592993887475302  1.0000
  Cl  Cl6       1.0  0.8875357299222484  0.6581292324778832  0.9069981221074955  1.0000
  Cl  Cl7       1.0  0.8875163564336715  0.3418832093977286  0.4070006779584788  1.0000
  Cl  Cl8       1.0  0.11247811512544809  0.3418851658757874  0.0930014231908629  1.0000
  O   O1        1.0  0.4206412972220476  0.18127892882198895  0.4131545141157036  1.0000
  O   O2        1.0  0.579375674834182  0.18124449504855997  0.0868479085599034  1.0000
  O   O3        1.0  0.5793674441834327  0.8187328980009528  0.5868384001123772  1.0000
  O   O4        1.0  0.4206658245645156  0.8187236134000814  0.9131617149442876  1.0000
  O   O5        1.0  0.3308556976285004  0.05396578364609891  0.33642868362888834  1.0000
  O   O6        1.0  0.6691031383371495  0.05393944118529251  0.1635806431034439  1.0000
  O   O7        1.0  0.6690989654041316  0.9460434704839078  0.6635696765060075  1.0000
  O   O8        1.0  0.33092091632980913  0.9460299527194709  0.8364321642272827  1.0000
  O   O9        1.0  0.7125311275352001  0.9156151004060151  0.381714939105713  1.0000
  O   O10       1.0  0.2874842486812596  0.9155951775823754  0.11826728358889944  1.0000
  O   O11       1.0  0.2874861005686142  0.08439415520660992  0.6182680566109156  1.0000
  O   O12       1.0  0.7125296797721673  0.08439993328178023  0.8817318580197837  1.0000
  O   O13       1.0  0.5925269682948195  0.7849817921398028  0.4523272002669004  1.0000
  O   O14       1.0  0.407494032444319  0.7849200956101114  0.04766118258150701  1.0000
  O   O15       1.0  0.40748234844964054  0.21507761062761696  0.5476628885273628  1.0000
  O   O16       1.0  0.5925354439013545  0.21505572779467033  0.9523440590672863  1.0000
