data_image0
_chemical_formula_structural       Dy3H15C18N6O21
_chemical_formula_sum              "Dy3 H15 C18 N6 O21"
_cell_length_a       9.679931173398153
_cell_length_b       9.679941933510877
_cell_length_c       9.679924927354616
_cell_angle_alpha    79.3717768269489
_cell_angle_beta     79.37196808689244
_cell_angle_gamma    79.37181112307533

_space_group_name_H-M_alt    "P 1"
_space_group_IT_number       1

loop_
  _space_group_symop_operation_xyz
  'x, y, z'

loop_
  _atom_site_type_symbol
  _atom_site_label
  _atom_site_symmetry_multiplicity
  _atom_site_fract_x
  _atom_site_fract_y
  _atom_site_fract_z
  _atom_site_occupancy
  Dy  Dy1       1.0  0.5000040804259385  0.009071383219783501  0.990933939470672  1.0000
  Dy  Dy2       1.0  0.9909330364006335  0.5000022212929167  0.009073038123560164  1.0000
  Dy  Dy3       1.0  0.009072077168120455  0.9909314792516783  0.5000046039632621  1.0000
  H   H1        1.0  0.41174294020856184  0.5882646070703574  0.9999991610963831  1.0000
  H   H2        1.0  1.393114637012736e-06  0.41174035005206383  0.5882663526483184  1.0000
  H   H3        1.0  0.5882657326428031  0.9999992380561482  0.41174185632880983  1.0000
  H   H4        1.0  0.7650496418159992  0.8543228448731951  0.07513826339703658  1.0000
  H   H5        1.0  0.07513999251643365  0.7650476801508576  0.854325023051338  1.0000
  H   H6        1.0  0.8543245365680789  0.07513629579910491  0.7650511142855763  1.0000
  H   H7        1.0  0.9248697517834188  0.1456783029409863  0.23495773679089638  1.0000
  H   H8        1.0  0.14568091658047422  0.2349550807548439  0.9248732805878034  1.0000
  H   H9        1.0  0.23495637049347803  0.9248720903744074  0.14567993217335126  1.0000
  H   H10       1.0  0.7668196734730798  0.02356070782850851  0.06301817249230621  1.0000
  H   H11       1.0  0.0630182372082757  0.7668172134470127  0.02356198888063691  1.0000
  H   H12       1.0  0.023562683155247996  0.06301483207820273  0.76682012635964  1.0000
  H   H13       1.0  0.9369914234177017  0.976442572957346  0.23318578120609612  1.0000
  H   H14       1.0  0.9764438285026673  0.2331837062401547  0.9369938941041909  1.0000
  H   H15       1.0  0.23318569543606318  0.936991134477772  0.976443652159844  1.0000
  C   C1        1.0  0.6697415688146364  0.666050257150147  0.0015000045677169562  1.0000
  C   C2        1.0  0.001502029278590597  0.6697384628672226  0.6660499307924396  1.0000
  C   C3        1.0  0.6660507453639825  0.0015011428801657  0.669742215952155  1.0000
  C   C4        1.0  0.9985010848612036  0.3339530119339217  0.33026697010894407  1.0000
  C   C5        1.0  0.33395559480033654  0.3302654034640469  0.998502637102632  1.0000
  C   C6        1.0  0.33026509791218917  0.9985029544075208  0.33395542765789793  1.0000
  C   C7        1.0  0.6387893976118947  0.5194299367989006  0.9989259493997337  1.0000
  C   C8        1.0  0.9989277902255509  0.6387871579354114  0.5194314054840204  1.0000
  C   C9        1.0  0.5194320046729004  0.9989270363540044  0.638789997547441  1.0000
  C   C10       1.0  0.0010779260869923839  0.4805729718743025  0.3612185320735079  1.0000
  C   C11       1.0  0.48057628956259885  0.36121817275991225  0.0010767146535002705  1.0000
  C   C12       1.0  0.36122007039330123  0.0010759558622055  0.48057529752217926  1.0000
  C   C13       1.0  0.4996680517287756  0.5003354389556876  5.497070531886099e-07  1.0000
  C   C14       1.0  3.698519080300677e-06  0.4996658960218383  0.5003361166843446  1.0000
  C   C15       1.0  0.5003363520383245  6.355680569000112e-07  0.49966854201156247  1.0000
  C   C16       1.0  0.7225366497775028  0.2774626746855162  2.738963125582139e-06  1.0000
  C   C17       1.0  1.2105536839779183e-06  0.7225344830207733  0.27746201378133145  1.0000
  C   C18       1.0  0.27746354716173016  5.580852900000057e-07  0.7225373081117041  1.0000
  N   N1        1.0  0.7488073812856298  0.412970587744546  0.0006066019340593887  1.0000
  N   N2        1.0  0.0006064071455539684  0.7488045564312175  0.41297124745728536  1.0000
  N   N3        1.0  0.4129728028316606  0.0006048434692758  0.7488081004932283  1.0000
  N   N4        1.0  0.9993965926625349  0.5870369653709987  0.251199684225476  1.0000
  N   N5        1.0  0.5870397359210742  0.25119939735810703  0.9993989294640712  1.0000
  N   N6        1.0  0.25120006113014154  0.9993980725766396  0.5870390350863132  1.0000
  O   O1        1.0  0.5743402787850228  0.7696831016206008  0.9730999903627974  1.0000
  O   O2        1.0  0.973102030546144  0.5743396088433316  0.7696824754847782  1.0000
  O   O3        1.0  0.7696840872918073  0.9731017813850614  0.574341729186095  1.0000
  O   O4        1.0  0.026900566827322316  0.23031979408754916  0.4256669321071342  1.0000
  O   O5        1.0  0.23032250495744924  0.4256634972862018  0.02690397169733667  1.0000
  O   O6        1.0  0.4256656015082213  0.026903449599025506  0.230322281020527  1.0000
  O   O7        1.0  0.7894111984534504  0.6738198332720486  0.03508833786856509  1.0000
  O   O8        1.0  0.03509015041140628  0.7894094753886521  0.6738209420658805  1.0000
  O   O9        1.0  0.6738216668656206  0.0350908203869267  0.7894125662911123  1.0000
  O   O10       1.0  0.9649103937882443  0.32618453074173465  0.21059424571555493  1.0000
  O   O11       1.0  0.32618606981263554  0.21059227220570167  0.9649110024264401  1.0000
  O   O12       1.0  0.21059243808745243  0.9649143020440294  0.3261846678115391  1.0000
  O   O13       1.0  0.8256121675922473  0.1743917888860622  3.0980850951183524e-06  1.0000
  O   O14       1.0  2.9090701758727e-07  0.8256107244988657  0.1743911161635339  1.0000
  O   O15       1.0  0.17439436987565668  1.5712227960000987e-07  0.8256134881618776  1.0000
  O   O16       1.0  0.706525841507364  0.9458380741875348  0.09408138743727085  1.0000
  O   O17       1.0  0.09408212885040257  0.7065234731790613  0.9458399786592508  1.0000
  O   O18       1.0  0.9458399540279389  0.09407785821490931  0.7065274581291802  1.0000
  O   O19       1.0  0.9059303481945025  0.05416304633319409  0.29347902583428714  1.0000
  O   O20       1.0  0.0541651889964498  0.2934771341901482  0.9059323749149827  1.0000
  O   O21       1.0  0.293478079333788  0.9059305806371328  0.05416545646448157  1.0000
