data_image0
_chemical_formula_structural       Y2H10C12O16
_chemical_formula_sum              "Y2 H10 C12 O16"
_cell_length_a       6.24188919788277
_cell_length_b       8.64275315772846
_cell_length_c       8.767097448978076
_cell_angle_alpha    111.34789559487241
_cell_angle_beta     109.78299718766303
_cell_angle_gamma    91.49438953757307

_space_group_name_H-M_alt    "P 1"
_space_group_IT_number       1

loop_
  _space_group_symop_operation_xyz
  'x, y, z'

loop_
  _atom_site_type_symbol
  _atom_site_label
  _atom_site_symmetry_multiplicity
  _atom_site_fract_x
  _atom_site_fract_y
  _atom_site_fract_z
  _atom_site_occupancy
  Y   Y1        1.0  0.8201905670941232  0.35023939219559014  0.18065248261062558  1.0000
  Y   Y2        1.0  0.17981062892748412  0.6497612143706917  0.8193473814635368  1.0000
  H   H1        1.0  0.7582646117492403  0.9674998987816537  0.3325956116030754  1.0000
  H   H2        1.0  0.2417294166230164  0.0324919380445223  0.6674051454371082  1.0000
  H   H3        1.0  0.9879610235854202  0.33058815357796334  0.8907268827539596  1.0000
  H   H4        1.0  0.012045003157943827  0.6694112172780821  0.10927826424855173  1.0000
  H   H5        1.0  0.18212387096765076  0.2728192733368147  0.026444236574043573  1.0000
  H   H6        1.0  0.8178877359283093  0.7271749964544796  0.9735547428323202  1.0000
  H   H7        1.0  0.27165761191189125  0.3559394268616316  0.4670992708867772  1.0000
  H   H8        1.0  0.7283475978876839  0.6440637117506114  0.5329047287812757  1.0000
  H   H9        1.0  0.3099223189410126  0.283189287238919  0.28203190539930745  1.0000
  H   H10       1.0  0.6900920960845981  0.7168239314992775  0.7179789953992  1.0000
  C   C1        1.0  0.6424954673601776  0.9811046333485792  0.4044060481738043  1.0000
  C   C2        1.0  0.3575049730930573  0.018899829699641702  0.5956041211649534  1.0000
  C   C3        1.0  0.4948004641355653  0.8399506094639263  0.37478025154197775  1.0000
  C   C4        1.0  0.5051998593741588  0.16004625060384112  0.6252226442800081  1.0000
  C   C5        1.0  0.3504159327405746  0.8593486836507439  0.47148008847180034  1.0000
  C   C6        1.0  0.6495714056521606  0.14065077020601538  0.5285263176593773  1.0000
  C   C7        1.0  0.18528162378498797  0.7118907593843603  0.4418418984298427  1.0000
  C   C8        1.0  0.8147084954777314  0.2881061306311707  0.5581597060133987  1.0000
  C   C9        1.0  0.5020238671077095  0.6703607969511721  0.2430475232796637  1.0000
  C   C10       1.0  0.49797589551611315  0.32964102942771223  0.7569467248191231  1.0000
  C   C11       1.0  0.6060108412779571  0.9603838420708258  0.9900384114900616  1.0000
  C   C12       1.0  0.3940117008832047  0.0396065058004709  0.009946972990824981  1.0000
  O   O1        1.0  0.18301415150930472  0.6846314367740262  0.5731754930595443  1.0000
  O   O2        1.0  0.816972666250813  0.3153515682040294  0.4268181401273098  1.0000
  O   O3        1.0  0.05381169181724492  0.6203488979860766  0.2829118447010046  1.0000
  O   O4        1.0  0.9461780793244544  0.37964666038593015  0.717080081232389  1.0000
  O   O5        1.0  0.4084214507631074  0.6409512327346789  0.08163286331983947  1.0000
  O   O6        1.0  0.5915954767995119  0.3590582058622119  0.9183784456596628  1.0000
  O   O7        1.0  0.6120045196197665  0.5700672034512381  0.3050140602187028  1.0000
  O   O8        1.0  0.3879873075112528  0.42992969192432895  0.6949890955908913  1.0000
  O   O9        1.0  0.7965365759959087  0.056463655249551395  0.058466289393926736  1.0000
  O   O10       1.0  0.20343697636938177  0.9435281438738556  0.9415192870297844  1.0000
  O   O11       1.0  0.5681724010794937  0.8001867628316647  0.9054392685689407  1.0000
  O   O12       1.0  0.4318332495646473  0.19983270931582814  0.09456261566464967  1.0000
  O   O13       1.0  0.19481320072215885  0.3131859442560767  0.33619917163693464  1.0000
  O   O14       1.0  0.8051926132563242  0.6868197245546173  0.6638070061522188  1.0000
  O   O15       1.0  0.030375932972681607  0.3108392497086001  0.0012082238858823894  1.0000
  O   O16       1.0  0.9696185178315204  0.689168894035113  0.9987869819401212  1.0000
