data_image0
_chemical_formula_structural       Zn8H60C96O26
_chemical_formula_sum              "Zn8 H60 C96 O26"
_cell_length_a       27.321790446380877
_cell_length_b       27.719398455707886
_cell_length_c       28.057981408614033
_cell_angle_alpha    120.39420945167939
_cell_angle_beta     90.19969685708627
_cell_angle_gamma    119.30517701728944

_space_group_name_H-M_alt    "P 1"
_space_group_IT_number       1

loop_
  _space_group_symop_operation_xyz
  'x, y, z'

loop_
  _atom_site_type_symbol
  _atom_site_label
  _atom_site_symmetry_multiplicity
  _atom_site_fract_x
  _atom_site_fract_y
  _atom_site_fract_z
  _atom_site_occupancy
  Zn  Zn1       1.0  0.9706698488163998  0.9381620247411394  0.031944694719030095  1.0000
  Zn  Zn2       1.0  0.973913314897047  0.05837933392746922  0.03433488004028359  1.0000
  Zn  Zn3       1.0  0.9762074790083519  0.9423069234895182  0.920768156716086  1.0000
  Zn  Zn4       1.0  0.08877405145236852  0.054488171609733606  0.03473917819280809  1.0000
  Zn  Zn5       1.0  0.5311485552774969  0.0568176437018337  0.47673651283927393  1.0000
  Zn  Zn6       1.0  0.5274414279108016  0.9368675605532816  0.4764150093107276  1.0000
  Zn  Zn7       1.0  0.4139817042415218  0.9412397858270654  0.4753535448765048  1.0000
  Zn  Zn8       1.0  0.5243427814118179  0.05334553218501981  0.5892042869090018  1.0000
  H   H1        1.0  0.839029752528511  0.9048324822196323  0.11324461209871829  1.0000
  H   H2        1.0  0.7782492716128291  0.9096188705715278  0.1786167205282608  1.0000
  H   H3        1.0  0.7843518283997858  0.07177207697546352  0.2840212626818115  1.0000
  H   H4        1.0  0.7220464780769974  0.9196851263990882  0.23044659728076772  1.0000
  H   H5        1.0  0.6582976731213752  0.8767635962380642  0.2744949858093905  1.0000
  H   H6        1.0  0.5983232872383514  0.885502646554578  0.3413756703102564  1.0000
  H   H7        1.0  0.6599728014080316  0.08507204640448413  0.39120219391516287  1.0000
  H   H8        1.0  0.7222157834368661  0.07882972067771021  0.3272775384364763  1.0000
  H   H9        1.0  0.8520557793938511  0.11844508441511443  0.2457150544199322  1.0000
  H   H10       1.0  0.9102962631299153  0.11125640124737401  0.17711675945670177  1.0000
  H   H11       1.0  0.8743052549761505  0.7237924543518874  0.9375845827594843  1.0000
  H   H12       1.0  0.8109069688651405  0.5979637280380389  0.8696970657942557  1.0000
  H   H13       1.0  0.7397969760885207  0.5037402214507909  0.7045969799327949  1.0000
  H   H14       1.0  0.7605424977617121  0.491783789956678  0.8049229331542804  1.0000
  H   H15       1.0  0.7102701859565956  0.3844576947897026  0.7845242550027364  1.0000
  H   H16       1.0  0.6458537472667487  0.25791847026724213  0.715339758099489  1.0000
  H   H17       1.0  0.6315813177135398  0.2718692160618659  0.5710024326727703  1.0000
  H   H18       1.0  0.694678704222021  0.39773554474788864  0.6390833862201006  1.0000
  H   H19       1.0  0.7865886041620487  0.6109758763138162  0.7254727013466037  1.0000
  H   H20       1.0  0.8514658766690817  0.7375442664814855  0.7944743918441473  1.0000
  H   H21       1.0  0.06209921285510231  0.9313046733443004  0.14763538491614273  1.0000
  H   H22       1.0  0.12834413206870482  0.9326401587932484  0.20965237234496203  1.0000
  H   H23       1.0  0.2927643318822249  0.007876416830072201  0.22285140972591216  1.0000
  H   H24       1.0  0.19799117409195355  0.9659785366300614  0.2790282446906147  1.0000
  H   H25       1.0  0.22145007807656478  0.9486592508369897  0.34742642656777867  1.0000
  H   H26       1.0  0.2939862295127683  0.9605198777433163  0.4137720989660138  1.0000
  H   H27       1.0  0.433364338397084  0.056951280738886105  0.35790992714526476  1.0000
  H   H28       1.0  0.3619481962944847  0.0449750740839221  0.29114653996742845  1.0000
  H   H29       1.0  0.27372670173339503  0.03023154405168071  0.1583814410968571  1.0000
  H   H30       1.0  0.20667370429320903  0.029885810969553013  0.09743272704748307  1.0000
  H   H31       1.0  0.86766966924629  0.0772572761097337  0.9416137158625517  1.0000
  H   H32       1.0  0.8038690954259666  0.07091685570318872  0.8726617409277394  1.0000
  H   H33       1.0  0.7661259089756672  0.956932408942038  0.7062209422308  1.0000
  H   H34       1.0  0.7325271215841415  0.03864092831723551  0.8062562161153295  1.0000
  H   H35       1.0  0.6687826907112254  0.06234636256944272  0.7838393211302515  1.0000
  H   H36       1.0  0.604208275482776  0.05423957272227402  0.7133034604848021  1.0000
  H   H37       1.0  0.6401776304960551  0.9274942957158459  0.5713602035118155  1.0000
  H   H38       1.0  0.7048661161650576  0.9352443446729314  0.640606135235238  1.0000
  H   H39       1.0  0.8214115402965094  0.9236630185136934  0.7271305723070824  1.0000
  H   H40       1.0  0.8861620660496857  0.9315884095141842  0.7973458941042891  1.0000
  H   H41       1.0  0.06627815444863222  0.2707850368392998  0.1324570287721443  1.0000
  H   H42       1.0  0.1330097182824802  0.39677757070067105  0.19402869799246503  1.0000
  H   H43       1.0  0.3017313119254582  0.49330444715693744  0.26229460030477714  1.0000
  H   H44       1.0  0.19697871509178821  0.5033378662586828  0.2432423226309695  1.0000
  H   H45       1.0  0.21655115640968597  0.6110398903095061  0.29062662729199923  1.0000
  H   H46       1.0  0.285926067697723  0.7376417604317498  0.3530267494996551  1.0000
  H   H47       1.0  0.4336620636322694  0.7236795519808582  0.3711439635321839  1.0000
  H   H48       1.0  0.365756584879435  0.597830018203446  0.30851217416255833  1.0000
  H   H49       1.0  0.28341875226758634  0.3870927046658323  0.21738871482778416  1.0000
  H   H50       1.0  0.2153644247929591  0.26030692358470725  0.15534763916335942  1.0000
  H   H51       1.0  0.07070317885892044  0.9066204634893252  0.8039093125831511  1.0000
  H   H52       1.0  0.135564701903057  0.9107539787218074  0.7425391389089878  1.0000
  H   H53       1.0  0.29325829392497144  0.0695545794679049  0.800524392628553  1.0000
  H   H54       1.0  0.2004029531699771  0.9187898515046697  0.7005101159841869  1.0000
  H   H55       1.0  0.22102054280156866  0.8744897249640791  0.6132471579928236  1.0000
  H   H56       1.0  0.2897692142875102  0.8822764086942243  0.5549139139376534  1.0000
  H   H57       1.0  0.4272306918678766  0.08237017111738962  0.7044113270212902  1.0000
  H   H58       1.0  0.35959495175173134  0.076200630970277  0.7629234110814165  1.0000
  H   H59       1.0  0.2738947447226395  0.11650177478337301  0.8868788678696545  1.0000
  H   H60       1.0  0.20844703690293195  0.11039877358034295  0.9485211574852811  1.0000
  C   C1        1.0  0.9122741475387386  0.0029339657393023986  0.09926049021154168  1.0000
  C   C2        1.0  0.8777667098768949  0.007403663554598002  0.14056851054099437  1.0000
  C   C3        1.0  0.8409650878538674  0.9511512136355051  0.1420897255528644  1.0000
  C   C4        1.0  0.8071523525955229  0.9543335112690343  0.178966197155546  1.0000
  C   C5        1.0  0.8098782106946206  0.0144394347625081  0.2167047271914129  1.0000
  C   C6        1.0  0.7745169646265923  0.0206875351454201  0.2553721238175868  1.0000
  C   C7        1.0  0.7316225719901512  0.9706858749281937  0.2584673859237937  1.0000
  C   C8        1.0  0.6957752633856915  0.9774850624422127  0.29662614511516927  1.0000
  C   C9        1.0  0.6592898542849996  0.9229261123041046  0.30066089017530123  1.0000
  C   C10       1.0  0.6255646394304366  0.9273551392612022  0.3376891883963467  1.0000
  C   C11       1.0  0.6258534478095896  0.9860368500909545  0.37079549429380154  1.0000
  C   C12       1.0  0.6605961055645582  0.04002713648041121  0.3659520920679995  1.0000
  C   C13       1.0  0.6953510218509251  0.036102969796346  0.3300237617941945  1.0000
  C   C14       1.0  0.5899792514077619  0.9909737743713551  0.4108931112433111  1.0000
  C   C15       1.0  0.8485829360711039  0.07117592891840732  0.21607535235142444  1.0000
  C   C16       1.0  0.8813560112221882  0.06761873034260904  0.17812621081617408  1.0000
  C   C17       1.0  0.9061557503917687  0.814006561241307  0.9106619654324318  1.0000
  C   C18       1.0  0.8669544091221303  0.7383367383901603  0.870118640544099  1.0000
  C   C19       1.0  0.8549091030005374  0.6983597605278007  0.8909317849071312  1.0000
  C   C20       1.0  0.8193538892702182  0.6278998927927193  0.8525802347033461  1.0000
  C   C21       1.0  0.7941731986187793  0.5947897707302375  0.7920539201520924  1.0000
  C   C22       1.0  0.7572724484841802  0.5212039468704717  0.749407419493984  1.0000
  C   C23       1.0  0.743474742976467  0.47432389934945024  0.760019209709597  1.0000
  C   C24       1.0  0.7068296784187355  0.4007387036431426  0.7173136390015101  1.0000
  C   C25       1.0  0.6928213883561728  0.3597929183742964  0.7376273291041215  1.0000
  C   C26       1.0  0.6570158326160469  0.28927753654912897  0.6993496830596369  1.0000
  C   C27       1.0  0.63451524639968  0.25715103388044014  0.6390411660483932  1.0000
  C   C28       1.0  0.6488899418987091  0.2972220418004171  0.6179703899265616  1.0000
  C   C29       1.0  0.6842154362301616  0.3677009065725871  0.6564123685418223  1.0000
  C   C30       1.0  0.5953980147449656  0.18139674379070675  0.5984197059954184  1.0000
  C   C31       1.0  0.8059905409075586  0.6356741355164675  0.7720459787051155  1.0000
  C   C32       1.0  0.8419968770816626  0.7061914320810702  0.810219912492549  1.0000
  C   C33       1.0  0.09183956029754392  0.9852323680360304  0.08592992796741343  1.0000
  C   C34       1.0  0.13067461967857966  0.9817969772350142  0.1197619360118907  1.0000
  C   C35       1.0  0.10874828978988674  0.9533724444376476  0.15083209131260117  1.0000
  C   C36       1.0  0.14615611324601482  0.9545578689636901  0.18560341357556348  1.0000
  C   C37       1.0  0.2067577901406282  0.9837925905298238  0.19018493779504547  1.0000
  C   C38       1.0  0.24941634271151272  0.9914135552953243  0.22918312637352048  1.0000
  C   C39       1.0  0.24129255630609941  0.9827869834462815  0.27255886054312106  1.0000
  C   C40       1.0  0.2856852658226146  0.9938289859869158  0.3128614272324341  1.0000
  C   C41       1.0  0.26789973485495744  0.9720760025633769  0.34936394367937856  1.0000
  C   C42       1.0  0.30806682558086623  0.9786334586868081  0.38651507414653713  1.0000
  C   C43       1.0  0.3677823735791394  0.008338602907699102  0.3890861838532941  1.0000
  C   C44       1.0  0.38668182546185664  0.03282573389180501  0.3548177304886693  1.0000
  C   C45       1.0  0.34632812961511666  0.0255504456550781  0.31731041326671056  1.0000
  C   C46       1.0  0.40955220915886786  0.010747533274496802  0.42582758233265844  1.0000
  C   C47       1.0  0.22730923862792454  0.0088974070707337  0.15635123256465988  1.0000
  C   C48       1.0  0.19021220007802245  0.008742711257646401  0.12223137262982679  1.0000
  C   C49       1.0  0.9171618882220759  0.005815145554308301  0.9144250349668751  1.0000
  C   C50       1.0  0.8800996938967817  0.004018196350898499  0.8736124724955372  1.0000
  C   C51       1.0  0.8568731767812566  0.04345021731847249  0.894464739031285  1.0000
  C   C52       1.0  0.820896183911316  0.0393291132397522  0.8555489376671659  1.0000
  C   C53       1.0  0.8065260975093697  0.9953089081035815  0.7943896713131762  1.0000
  C   C54       1.0  0.7671682337217267  0.9865599129130878  0.7512263062221933  1.0000
  C   C55       1.0  0.7320959388979349  0.009771994870945402  0.7613873777875922  1.0000
  C   C56       1.0  0.692759200361998  0.0007158543344942962  0.717960910465109  1.0000
  C   C57       1.0  0.6627445417986666  0.032886382945143615  0.7371861382335467  1.0000
  C   C58       1.0  0.6266521248112228  0.028547342029128207  0.6981476020421198  1.0000
  C   C59       1.0  0.618872910069918  0.9911669120466372  0.6381679268424634  1.0000
  C   C60       1.0  0.6470250687128994  0.9571439913615618  0.6180957270802236  1.0000
  C   C61       1.0  0.6833208355027698  0.9618929698687998  0.657261139830439  1.0000
  C   C62       1.0  0.5824102896702146  0.9895957285028845  0.59708588260402  1.0000
  C   C63       1.0  0.8314689061187936  0.9573841989703386  0.7742398252528204  1.0000
  C   C64       1.0  0.8674769813151362  0.9614317276313362  0.8130325981402605  1.0000
  C   C65       1.0  0.09670810007764173  0.18220121991834054  0.10202859837743007  1.0000
  C   C66       1.0  0.1368218364480286  0.25792446656509344  0.14004453352492868  1.0000
  C   C67       1.0  0.11400702590540854  0.29701119093743966  0.15139001064735416  1.0000
  C   C68       1.0  0.15166704651058188  0.36748565942918543  0.18579644420492508  1.0000
  C   C69       1.0  0.21356559831304625  0.4014654836299698  0.21007306481929072  1.0000
  C   C70       1.0  0.25555937120004313  0.475064418775361  0.2457112613821479  1.0000
  C   C71       1.0  0.24309737097308942  0.5212626601908356  0.2594991589780307  1.0000
  C   C72       1.0  0.28564943507322493  0.5948193487867357  0.29521198040846025  1.0000
  C   C73       1.0  0.264288514011092  0.6357053002052665  0.3081079338744244  1.0000
  C   C74       1.0  0.30262195698815486  0.7062285208901573  0.3428682691330066  1.0000
  C   C75       1.0  0.36387647066876394  0.738272172800585  0.3660407422817045  1.0000
  C   C76       1.0  0.3859489757272813  0.6982330385106152  0.35307252236904657  1.0000
  C   C77       1.0  0.3475918503393843  0.6278289948188559  0.31815187794349936  1.0000
  C   C78       1.0  0.4046330847427343  0.8138812860369242  0.40505164612687844  1.0000
  C   C79       1.0  0.2356811373649564  0.3615451831908843  0.1987444957197937  1.0000
  C   C80       1.0  0.19810117920760467  0.2909808933021625  0.16428647326275583  1.0000
  C   C81       1.0  0.09712459081990231  0.003910060934586597  0.9168806431285785  1.0000
  C   C82       1.0  0.13591806596457456  0.007926153878280202  0.8800353380070121  1.0000
  C   C83       1.0  0.11553335388992998  0.9520844549574435  0.821608636965486  1.0000
  C   C84       1.0  0.1521156756787506  0.9548597756419853  0.7876083837331149  1.0000
  C   C85       1.0  0.21016101045920982  0.013930223264843302  0.8106269531065777  1.0000
  C   C86       1.0  0.2511903717886029  0.019279779422689103  0.7777424452999637  1.0000
  C   C87       1.0  0.2425152616670234  0.9690428327399662  0.7237192750325859  1.0000
  C   C88       1.0  0.2846264751897111  0.9750873482506253  0.6919795330120877  1.0000
  C   C89       1.0  0.2662224272113108  0.9203517121219421  0.6332125567268889  1.0000
  C   C90       1.0  0.3042394036215016  0.9242684053935621  0.6005034517230569  1.0000
  C   C91       1.0  0.36235236619363337  0.9829957522864777  0.6260343612182593  1.0000
  C   C92       1.0  0.3817572340723174  0.03733428137729792  0.6849315783097722  1.0000
  C   C93       1.0  0.3435429381764694  0.033518128705694004  0.7172618649871296  1.0000
  C   C94       1.0  0.40285472909842945  0.9880146913893743  0.590965781494269  1.0000
  C   C95       1.0  0.2293899830676765  0.07020863087969793  0.8688278302822424  1.0000
  C   C96       1.0  0.19319390535282824  0.06721723987328693  0.9033155652219662  1.0000
  O   O1        1.0  0.0014185438349302718  0.9983885891738431  0.0064370660541755815  1.0000
  O   O2        1.0  0.9321745022787554  0.04809975908384701  0.08918833768925788  1.0000
  O   O3        1.0  0.9188168733641081  0.9541198639692117  0.07715274634139054  1.0000
  O   O4        1.0  0.5714261106329561  0.9479131847723608  0.4233559874811873  1.0000
  O   O5        1.0  0.5810326234956308  0.037714966488572116  0.4295677867550224  1.0000
  O   O6        1.0  0.9185224793740479  0.8458873321920354  0.8870381478838495  1.0000
  O   O7        1.0  0.924420737272364  0.8410790632767873  0.9654290098038344  1.0000
  O   O8        1.0  0.580656752685343  0.1497796214988442  0.6224087478241883  1.0000
  O   O9        1.0  0.5796081981646639  0.15416137187907003  0.5434219804279081  1.0000
  O   O10       1.0  0.11721253864713793  0.019452373666318606  0.0651525773431345  1.0000
  O   O11       1.0  0.036724888541456814  0.954689941125956  0.08093287087056909  1.0000
  O   O12       1.0  0.38671990018266217  0.9810221224043405  0.4507176014463711  1.0000
  O   O13       1.0  0.46419718257556064  0.040881153386557414  0.42902139085354196  1.0000
  O   O14       1.0  0.9386224966235733  0.9707924942562729  0.890931746984748  1.0000
  O   O15       1.0  0.9242451668910051  0.0413146420903345  0.9690368728437588  1.0000
  O   O16       1.0  0.5612764765961559  0.025051694456237807  0.6201581203727072  1.0000
  O   O17       1.0  0.5755693651939143  0.9538254935521455  0.542582082063916  1.0000
  O   O18       1.0  0.12083305294689954  0.15041417840706833  0.09462090057302668  1.0000
  O   O19       1.0  0.04158120959557721  0.15497171496902243  0.07961657946000857  1.0000
  O   O20       1.0  0.38159690134896374  0.8465758283409672  0.41175956269307784  1.0000
  O   O21       1.0  0.459104240425063  0.8402772866270708  0.4291692268304386  1.0000
  O   O22       1.0  0.12072496322917912  0.0528138882977132  0.9714751883545957  1.0000
  O   O23       1.0  0.04313061982646358  0.9516696055217437  0.8911949019669974  1.0000
  O   O24       1.0  0.38122766628995924  0.9383369527890937  0.5367565110162643  1.0000
  O   O25       1.0  0.4561339361164586  0.041646287947955316  0.6173427460670594  1.0000
  O   O26       1.0  0.5012331812326425  0.9979171384387728  0.5036646977036696  1.0000
