data_image0
_chemical_formula_structural       Li6B6H168C120N48
_chemical_formula_sum              "Li6 B6 H168 C120 N48"
_cell_length_a       16.298716620000526
_cell_length_b       16.298714421000575
_cell_length_c       16.298714940000107
_cell_angle_alpha    89.99998887390007
_cell_angle_beta     89.99999320130392
_cell_angle_gamma    90.00002836540332

_space_group_name_H-M_alt    "P 1"
_space_group_IT_number       1

loop_
  _space_group_symop_operation_xyz
  'x, y, z'

loop_
  _atom_site_type_symbol
  _atom_site_label
  _atom_site_symmetry_multiplicity
  _atom_site_fract_x
  _atom_site_fract_y
  _atom_site_fract_z
  _atom_site_occupancy
  Li  Li1       1.0  0.7499996064106256  0.49999964621431287  2.1739450060000003e-07  1.0000
  Li  Li2       1.0  0.2500001162668751  0.5000001359770463  0.9999996335140292  1.0000
  Li  Li3       1.0  1.5596312859999996e-07  0.7499995946460344  0.4999994688385243  1.0000
  Li  Li4       1.0  3.22111617e-08  0.25000003704285234  0.49999951740059595  1.0000
  Li  Li5       1.0  0.4999994456465727  5.098551979999991e-08  0.7499995896302494  1.0000
  Li  Li6       1.0  0.5000000888567087  9.951706659999996e-08  0.25000004794855357  1.0000
  B   B1        1.0  0.5000001062353691  0.2500001122941313  2.565079384e-07  1.0000
  B   B2        1.0  0.500000289317356  0.7500003805055541  0.999999897491861  1.0000
  B   B3        1.0  1.0891969279999997e-07  0.5000001468828329  0.24999941550604626  1.0000
  B   B4        1.0  7.925471829999997e-08  0.5000000983513145  0.7500001842783206  1.0000
  B   B5        1.0  0.2500000221796554  1.3359944300000002e-08  0.5000001403945047  1.0000
  B   B6        1.0  0.7500001258688301  1.3714274160000004e-07  0.5000001107295657  1.0000
  H   H1        1.0  0.5760797702277642  0.2671242628806496  0.1573135691686076  1.0000
  H   H2        1.0  0.4239200524426536  0.7328756828978483  0.1573135329604796  1.0000
  H   H3        1.0  0.42392051004942743  0.2671241586870394  0.8426860165217034  1.0000
  H   H4        1.0  0.5760798448401446  0.7328756540431555  0.8426859622583649  1.0000
  H   H5        1.0  0.15731435335528943  0.5760798041883887  0.26712467528698614  1.0000
  H   H6        1.0  0.15731428806231662  0.4239205189368676  0.7328755193758169  1.0000
  H   H7        1.0  0.8426860698302506  0.4239201202731521  0.2671240358570869  1.0000
  H   H8        1.0  0.8426860798574863  0.5760799286557018  0.7328754639344621  1.0000
  H   H9        1.0  0.2671241042496604  0.15731425806099247  0.5760797416991037  1.0000
  H   H10       1.0  0.7328755081252966  0.15731377458867968  0.4239204788670107  1.0000
  H   H11       1.0  0.26712428290962725  0.8426861194345461  0.4239204399336954  1.0000
  H   H12       1.0  0.7328756687302443  0.8426862199695291  0.5760796474999238  1.0000
  H   H13       1.0  0.7671241830132941  0.07607974613489427  0.6573143451612962  1.0000
  H   H14       1.0  0.23287558032718184  0.9239201025805739  0.6573142945123394  1.0000
  H   H15       1.0  0.7671244115241648  0.9239202653808575  0.34268639068699963  1.0000
  H   H16       1.0  0.23287538915015202  0.07608025795736491  0.3426858911844021  1.0000
  H   H17       1.0  0.0760797269321785  0.6573137498248086  0.7671242138984979  1.0000
  H   H18       1.0  0.9239201329468685  0.6573140115765453  0.23287590954340223  1.0000
  H   H19       1.0  0.9239200233782938  0.3426860775737239  0.7671241941542489  1.0000
  H   H20       1.0  0.0760796807573385  0.3426859195333377  0.23287599040364165  1.0000
  H   H21       1.0  0.6573139021182116  0.7671244620246965  0.07607950409490627  1.0000
  H   H22       1.0  0.657313719587151  0.23287549512058797  0.9239200176928646  1.0000
  H   H23       1.0  0.34268601211798  0.7671243018398427  0.923919984471169  1.0000
  H   H24       1.0  0.3426859301913722  0.23287549952335235  0.07608018819554727  1.0000
  H   H25       1.0  0.5310369568029502  0.433852052755256  0.9063916298973849  1.0000
  H   H26       1.0  0.46896339052744207  0.5661483611532956  0.9063922342763246  1.0000
  H   H27       1.0  0.4689634060057699  0.4338515027337806  0.09360792340635268  1.0000
  H   H28       1.0  0.5310370377689893  0.5661478418663889  0.09360852041965728  1.0000
  H   H29       1.0  0.9063917158079705  0.5310371571260929  0.4338512765526871  1.0000
  H   H30       1.0  0.9063923061404254  0.4689629233455505  0.5661482156795328  1.0000
  H   H31       1.0  0.0936080740486744  0.4689633485145632  0.433851944349179  1.0000
  H   H32       1.0  0.09360808156302622  0.5310369430677466  0.5661482578729888  1.0000
  H   H33       1.0  0.43385153001539584  0.9063924018115442  0.5310368441627844  1.0000
  H   H34       1.0  0.5661484531594496  0.9063918270434211  0.4689632308960511  1.0000
  H   H35       1.0  0.43385133253070757  0.09360805823583006  0.4689633176862101  1.0000
  H   H36       1.0  0.5661476347642279  0.09360869850817718  0.5310363017093563  1.0000
  H   H37       1.0  0.9338514244455568  0.031036995440906903  0.4063927169852163  1.0000
  H   H38       1.0  0.06614836866943109  0.9689635155303548  0.406391450279898  1.0000
  H   H39       1.0  0.9338516454788603  0.9689637121720052  0.5936079990792178  1.0000
  H   H40       1.0  0.0661481254211296  0.031036762455805396  0.5936081416553449  1.0000
  H   H41       1.0  0.031036844687975008  0.40639147829631384  0.9338521093657235  1.0000
  H   H42       1.0  0.9689635045277142  0.4063917947164768  0.06614806281740467  1.0000
  H   H43       1.0  0.968963499383854  0.5936083167362015  0.9338520355354092  1.0000
  H   H44       1.0  0.031036328960368603  0.5936081687595871  0.06614810028121808  1.0000
  H   H45       1.0  0.40639173571600656  0.9338516644650026  0.031036687898044594  1.0000
  H   H46       1.0  0.40639146530875797  0.06614816844083288  0.9689634772093851  1.0000
  H   H47       1.0  0.5936082610515286  0.9338516197755096  0.9689633818268175  1.0000
  H   H48       1.0  0.5936081019383792  0.06614830582707747  0.03103676106554329  1.0000
  H   H49       1.0  0.5800714734078056  0.34697098360253875  0.8637655754850468  1.0000
  H   H50       1.0  0.4199282654352317  0.6530288250354203  0.8637655552606842  1.0000
  H   H51       1.0  0.41992823284893893  0.3469710145728371  0.13623460824048547  1.0000
  H   H52       1.0  0.5800709787774635  0.6530289352974774  0.13623456901360945  1.0000
  H   H53       1.0  0.863765677550994  0.5800710836558521  0.3469708052017778  1.0000
  H   H54       1.0  0.8637668468471276  0.4199283621651375  0.653028692088462  1.0000
  H   H55       1.0  0.13623473615994902  0.41992882530537656  0.3469714774650611  1.0000
  H   H56       1.0  0.13623414409235582  0.5800714873825754  0.6530287196990796  1.0000
  H   H57       1.0  0.34697105639378384  0.8637663142447705  0.5800713940909574  1.0000
  H   H58       1.0  0.6530282921355661  0.863765792012586  0.4199286892479606  1.0000
  H   H59       1.0  0.3469714993730478  0.13623410278560036  0.4199281645219059  1.0000
  H   H60       1.0  0.6530287161126579  0.13623477655623617  0.5800708330482394  1.0000
  H   H61       1.0  0.8469709789485691  0.08007152026472397  0.3637660438906848  1.0000
  H   H62       1.0  0.15302881922429626  0.9199283854360869  0.3637653899464084  1.0000
  H   H63       1.0  0.8469711706511873  0.9199285307857107  0.6362340689377106  1.0000
  H   H64       1.0  0.15302920873590153  0.08007132202211409  0.6362341916796481  1.0000
  H   H65       1.0  0.08007137487177121  0.36376543756977486  0.8469710279337119  1.0000
  H   H66       1.0  0.9199289532436623  0.3637657128455558  0.15302915252946994  1.0000
  H   H67       1.0  0.9199289795093437  0.6362343743285946  0.8469709516417652  1.0000
  H   H68       1.0  0.08007148348007578  0.6362330066741604  0.15302917589489337  1.0000
  H   H69       1.0  0.3637656557558344  0.846971177268763  0.08007123949879258  1.0000
  H   H70       1.0  0.36376543417372176  0.15302924807691196  0.9199289306665718  1.0000
  H   H71       1.0  0.6362342980051424  0.8469711632036192  0.9199288471024758  1.0000
  H   H72       1.0  0.63623417608013  0.15302878350445326  0.0800712907318939  1.0000
  H   H73       1.0  0.6373974807945897  0.4384150178287029  0.8839640881298649  1.0000
  H   H74       1.0  0.3626022556516588  0.5615847868881402  0.883964706015952  1.0000
  H   H75       1.0  0.3626022707277344  0.4384150243362369  0.11603546428750626  1.0000
  H   H76       1.0  0.6373975568407247  0.5615849294554067  0.1160354360211642  1.0000
  H   H77       1.0  0.8839642091596288  0.6373976870125374  0.43841481751849176  1.0000
  H   H78       1.0  0.8839647473842406  0.36260238235453096  0.5615846773749735  1.0000
  H   H79       1.0  0.11603496661027181  0.36260281774205777  0.43841550331414675  1.0000
  H   H80       1.0  0.11603502731548332  0.6373974849445145  0.5615846962468536  1.0000
  H   H81       1.0  0.4384150676490748  0.8839648568894417  0.6373979921104291  1.0000
  H   H82       1.0  0.561584904423917  0.883964300509149  0.3626027008502248  1.0000
  H   H83       1.0  0.43841550743207597  0.11603499187231849  0.3626021691970749  1.0000
  H   H84       1.0  0.5615846980548869  0.11603560923772699  0.637396832296723  1.0000
  H   H85       1.0  0.9384150015958711  0.13739753462930787  0.38396455782497435  1.0000
  H   H86       1.0  0.06158479418020589  0.8626023671503872  0.3839645394122044  1.0000
  H   H87       1.0  0.9384151673183895  0.8626025616978905  0.6160355441527017  1.0000
  H   H88       1.0  0.0615846009202059  0.13739729503083709  0.6160356666099103  1.0000
  H   H89       1.0  0.1373973603981682  0.38396458200178774  0.9384150416536341  1.0000
  H   H90       1.0  0.8626023641706481  0.3839642330999169  0.061584521340684296  1.0000
  H   H91       1.0  0.8626023695871369  0.6160358256901117  0.9384149760876067  1.0000
  H   H92       1.0  0.13739746985893933  0.6160357312620518  0.06158454182720159  1.0000
  H   H93       1.0  0.38396481137812094  0.9384151986999  0.1373972212802457  1.0000
  H   H94       1.0  0.3839645513326246  0.061584623101730095  0.862602332943055  1.0000
  H   H95       1.0  0.6160358011936821  0.9384151857621957  0.8626022340128187  1.0000
  H   H96       1.0  0.6160356272007945  0.06158475094501629  0.13739729267299333  1.0000
  H   H97       1.0  0.6802579314862316  0.3694605723015342  0.24467688231956689  1.0000
  H   H98       1.0  0.3197418808176806  0.6305393565174882  0.24467687835184646  1.0000
  H   H99       1.0  0.3197417859030055  0.3694604334853508  0.7553232970374211  1.0000
  H   H100      1.0  0.6802579658079112  0.6305400097493674  0.7553232502909069  1.0000
  H   H101      1.0  0.24467769333435294  0.6802579710521143  0.3694609488365187  1.0000
  H   H102      1.0  0.2446775886151826  0.31974116823873533  0.6305398490052099  1.0000
  H   H103      1.0  0.7553233312530806  0.31974131999815103  0.3694603400095957  1.0000
  H   H104      1.0  0.755323404992673  0.680258072129334  0.6305397836937557  1.0000
  H   H105      1.0  0.36946039799402536  0.2446769917917919  0.6802584925390531  1.0000
  H   H106      1.0  0.6305398711714431  0.24467647787353997  0.31974171105694876  1.0000
  H   H107      1.0  0.3694605457705364  0.7553234363736151  0.3197416769505566  1.0000
  H   H108      1.0  0.6305399761693025  0.755323466015099  0.6802584274531042  1.0000
  H   H109      1.0  0.8694598683721538  0.18025853170394865  0.7446770446973048  1.0000
  H   H110      1.0  0.13053927105669064  0.8197413000520651  0.744676412882775  1.0000
  H   H111      1.0  0.8694600556801008  0.8197415304813659  0.2553236790078657  1.0000
  H   H112      1.0  0.1305397553604593  0.18025839627082965  0.2553237849571843  1.0000
  H   H113      1.0  0.1802584971417076  0.744677097735959  0.8694598745381936  1.0000
  H   H114      1.0  0.8197414059828037  0.7446767142262869  0.13053961838826916  1.0000
  H   H115      1.0  0.8197418545710347  0.25532332334206126  0.8694598841258593  1.0000
  H   H116      1.0  0.18025841986444394  0.2553226232043855  0.13053970385682584  1.0000
  H   H117      1.0  0.7446766279867063  0.8694601521051836  0.18025825436899365  1.0000
  H   H118      1.0  0.7446764071604548  0.1305398482960882  0.8197412570523425  1.0000
  H   H119      1.0  0.25532333690649267  0.8694599688881223  0.819741214318533  1.0000
  H   H120      1.0  0.25532380550632894  0.1305397892192985  0.1802583551692791  1.0000
  H   H121      1.0  0.713766116684461  0.45996526971138957  0.19307341672319467  1.0000
  H   H122      1.0  0.28623431528794196  0.5400346691253474  0.19307343431190557  1.0000
  H   H123      1.0  0.2862342590505804  0.45996510428686577  0.8069267450533599  1.0000
  H   H124      1.0  0.7137661000821752  0.5400347153851256  0.8069267119112666  1.0000
  H   H125      1.0  0.19307486030406554  0.7137655002041396  0.4599668569579761  1.0000
  H   H126      1.0  0.1930735226472677  0.2862336135361758  0.5400345605522999  1.0000
  H   H127      1.0  0.8069267670893935  0.28623438682212304  0.4599656349712688  1.0000
  H   H128      1.0  0.8069262546095929  0.7137662579463181  0.5400344826087462  1.0000
  H   H129      1.0  0.45996566867403743  0.1930735544840942  0.7137660418262255  1.0000
  H   H130      1.0  0.540034574947292  0.19307300225854365  0.2862341717936657  1.0000
  H   H131      1.0  0.4599652324254465  0.8069269184931471  0.2862341169240849  1.0000
  H   H132      1.0  0.5400347015132921  0.806926896818119  0.7137659774557148  1.0000
  H   H133      1.0  0.9599651651671197  0.21376610983060118  0.6930735812551061  1.0000
  H   H134      1.0  0.04003459393018011  0.7862337319430706  0.6930735802339638  1.0000
  H   H135      1.0  0.9599653297653319  0.7862339971667608  0.30692651816543287  1.0000
  H   H136      1.0  0.04003447515219699  0.21376653311331478  0.3069266283452308  1.0000
  H   H137      1.0  0.2137660251910489  0.693073640785215  0.9599651723311096  1.0000
  H   H138      1.0  0.7862338523893158  0.6930732582543299  0.040034330619249686  1.0000
  H   H139      1.0  0.7862343157823589  0.30692676272339264  0.959965175870877  1.0000
  H   H140      1.0  0.21376598419726636  0.30692609674575516  0.040034402087918884  1.0000
  H   H141      1.0  0.6930738124452701  0.9599654337286336  0.21376641183052664  1.0000
  H   H142      1.0  0.6930735507941677  0.04003454112241658  0.786233719259293  1.0000
  H   H143      1.0  0.306926197248778  0.9599652825664788  0.7862336528217921  1.0000
  H   H144      1.0  0.3069266170717383  0.040034501091113804  0.21376591054284685  1.0000
  H   H145      1.0  0.7702153241964852  0.3676408250666583  0.18366409157079025  1.0000
  H   H146      1.0  0.22978510889242906  0.632359115596671  0.18366409792386654  1.0000
  H   H147      1.0  0.22978500583737121  0.36764124341115684  0.8163354745942824  1.0000
  H   H148      1.0  0.7702153521790649  0.6323591879796235  0.8163360303654199  1.0000
  H   H149      1.0  0.18366493640749576  0.77021474425635  0.3676423954406616  1.0000
  H   H150      1.0  0.1836641733979008  0.22978436482496528  0.6323590231861616  1.0000
  H   H151      1.0  0.8163360883959143  0.22978516069232305  0.36764118330258094  1.0000
  H   H152      1.0  0.8163355929037693  0.7702154887349761  0.6323589331609226  1.0000
  H   H153      1.0  0.3676412159194413  0.18366419507876938  0.7702152838406844  1.0000
  H   H154      1.0  0.6323590230443444  0.18366431306949946  0.22978493160690044  1.0000
  H   H155      1.0  0.3676407910266449  0.8163356186404441  0.22978488586488055  1.0000
  H   H156      1.0  0.6323591475696375  0.816336245265191  0.7702152066872328  1.0000
  H   H157      1.0  0.8676407326201669  0.27021532530805087  0.6836642504798931  1.0000
  H   H158      1.0  0.13235902759367243  0.72978451829227  0.6836636359234303  1.0000
  H   H159      1.0  0.867640868159029  0.7297847359766081  0.3163358598958368  1.0000
  H   H160      1.0  0.13235893564183954  0.27021517893155783  0.31633594815532706  1.0000
  H   H161      1.0  0.27021525814410546  0.6836637191062137  0.8676407133028973  1.0000
  H   H162      1.0  0.7297846147784172  0.6836639042483269  0.13235879147526927  1.0000
  H   H163      1.0  0.7297844802390685  0.31633608877941544  0.8676413352584476  1.0000
  H   H164      1.0  0.2702152108531237  0.31633604637453056  0.13235885441787326  1.0000
  H   H165      1.0  0.6836638428998684  0.8676409663870143  0.2702156569787491  1.0000
  H   H166      1.0  0.6836636336483934  0.1323590038048792  0.7297844752276532  1.0000
  H   H167      1.0  0.3163361210929522  0.8676414443875867  0.7297844256073986  1.0000
  H   H168      1.0  0.31633596637361455  0.13235895747426704  0.2702157501859404  1.0000
  C   C1        1.0  0.6088455162542914  0.37015317483990623  0.9911185565709316  1.0000
  C   C2        1.0  0.39115482102231885  0.6298466090757059  0.9911185442639618  1.0000
  C   C3        1.0  0.39115481502307153  0.37015321628592784  0.008881622651458096  1.0000
  C   C4        1.0  0.6088450252602372  0.629846758307039  0.008881584513403597  1.0000
  C   C5        1.0  0.9911180416697933  0.6088457750258199  0.3701536041335274  1.0000
  C   C6        1.0  0.991118585928156  0.3911549609417689  0.6298458780450318  1.0000
  C   C7        1.0  0.008882369290475402  0.3911547429804045  0.3701536835524806  1.0000
  C   C8        1.0  0.008881794217103302  0.6088455066514981  0.6298459151779525  1.0000
  C   C9        1.0  0.37015327955388955  0.9911168521096694  0.6088448144319685  1.0000
  C   C10       1.0  0.6298467455607621  0.9911181646210987  0.391154630623788  1.0000
  C   C11       1.0  0.3701536629075264  0.0088823493082799  0.3911547414302276  1.0000
  C   C12       1.0  0.6298458759923805  0.008881778924106198  0.6088455079685673  1.0000
  C   C13       1.0  0.8701531718618368  0.10884494864422578  0.49111718412938626  1.0000
  C   C14       1.0  0.12984661119935484  0.8911543187890059  0.49111776561576187  1.0000
  C   C15       1.0  0.8701533644327313  0.8911545003392259  0.5088816988576708  1.0000
  C   C16       1.0  0.1298464165207065  0.10884537719082489  0.5088818187611253  1.0000
  C   C17       1.0  0.10884544968139659  0.4911184315430146  0.8701532095944484  1.0000
  C   C18       1.0  0.8911543279294705  0.4911180835267215  0.12984633258540157  1.0000
  C   C19       1.0  0.891154901949072  0.5088819894004144  0.8701531614548867  1.0000
  C   C20       1.0  0.10884488445483952  0.5088812540384567  0.12984576372915055  1.0000
  C   C21       1.0  0.4911180181587512  0.870153402479076  0.10884527732196857  1.0000
  C   C22       1.0  0.49111778851545285  0.12984647237744437  0.8911542641865535  1.0000
  C   C23       1.0  0.5088819470776471  0.8701533309436654  0.8911541912308819  1.0000
  C   C24       1.0  0.5088818102628994  0.12984655270835083  0.10884534816977257  1.0000
  C   C25       1.0  0.6577199682126748  0.3691126990523158  0.11560167697977869  1.0000
  C   C26       1.0  0.34227985940726313  0.6308872548235342  0.1156016702701379  1.0000
  C   C27       1.0  0.34227913545926475  0.36911315988373156  0.884398502444753  1.0000
  C   C28       1.0  0.6577206009356261  0.6308872582941658  0.884398458305057  1.0000
  C   C29       1.0  0.11560249437042809  0.6577199652449365  0.3691143055871891  1.0000
  C   C30       1.0  0.1156024007667256  0.3422797236820329  0.6308871211157976  1.0000
  C   C31       1.0  0.8843985302583236  0.34227993941800616  0.3691130635209133  1.0000
  C   C32       1.0  0.8843979792548354  0.6577201301637884  0.6308870448663837  1.0000
  C   C33       1.0  0.3691124872336289  0.11560239661769599  0.6577205319273884  1.0000
  C   C34       1.0  0.6308871044936026  0.11560187849634218  0.342279696741194  1.0000
  C   C35       1.0  0.36911269622894594  0.884398644920793  0.34227963760343977  1.0000
  C   C36       1.0  0.6308872760588002  0.8843980655642413  0.6577204417276545  1.0000
  C   C37       1.0  0.869112603846055  0.15772057026007497  0.6156024537414524  1.0000
  C   C38       1.0  0.1308865508987367  0.8422792865526461  0.6156018175077447  1.0000
  C   C39       1.0  0.869112786994535  0.8422794917532952  0.3843982700049294  1.0000
  C   C40       1.0  0.1308870087300704  0.15772040994219338  0.3843983802910102  1.0000
  C   C41       1.0  0.1577198808247644  0.6156012678236137  0.8691132353154741  1.0000
  C   C42       1.0  0.8422793448611614  0.6156021224966325  0.13088689622899347  1.0000
  C   C43       1.0  0.8422792438383624  0.3843979262308109  0.8691126036108228  1.0000
  C   C44       1.0  0.1577204809450663  0.3843978284120126  0.13088634575398567  1.0000
  C   C45       1.0  0.6156020493769248  0.8691128556856852  0.1577202888921221  1.0000
  C   C46       1.0  0.6156018260481845  0.13088708080669414  0.8422798513904651  1.0000
  C   C47       1.0  0.3843985288895837  0.8691127320023495  0.8422797934081314  1.0000
  C   C48       1.0  0.38439777324522584  0.13088709001384297  0.15772037430903646  1.0000
  C   C49       1.0  0.5999233782097093  0.30798393760166215  0.11091420022930269  1.0000
  C   C50       1.0  0.40007644996659053  0.6920166307294692  0.11091417478731098  1.0000
  C   C51       1.0  0.40007630874792716  0.3079831990495022  0.8890859910694784  1.0000
  C   C52       1.0  0.5999234270905943  0.6920166046731066  0.8890859419136347  1.0000
  C   C53       1.0  0.11091438451371262  0.5999233870685499  0.3079837251922086  1.0000
  C   C54       1.0  0.11091431226613221  0.40007629953731777  0.6920164749764695  1.0000
  C   C55       1.0  0.8890860338234675  0.4000765294611383  0.3079836984333823  1.0000
  C   C56       1.0  0.8890860605018389  0.5999235424417222  0.6920164093976593  1.0000
  C   C57       1.0  0.3079831366073762  0.11091428728293098  0.5999233413553424  1.0000
  C   C58       1.0  0.6920164527992441  0.11091378820875519  0.4000762746785966  1.0000
  C   C59       1.0  0.3079833410649897  0.8890861104431876  0.4000768354291394  1.0000
  C   C60       1.0  0.6920166335432542  0.8890861861189306  0.5999232429913589  1.0000
  C   C61       1.0  0.8079832369241587  0.09992335908704315  0.6109137497745323  1.0000
  C   C62       1.0  0.19201653192219234  0.9000764986359683  0.6109137086054799  1.0000
  C   C63       1.0  0.8079834481264073  0.9000766726593451  0.3890863676801429  1.0000
  C   C64       1.0  0.1920163470420988  0.09992384167144759  0.3890858683942823  1.0000
  C   C65       1.0  0.09992330813997088  0.6109137731827374  0.8079832664585282  1.0000
  C   C66       1.0  0.9000765287707326  0.6109140310606307  0.19201625245119655  1.0000
  C   C67       1.0  0.9000764373222907  0.3890866598292675  0.8079838540756723  1.0000
  C   C68       1.0  0.09992390332710241  0.3890859079813255  0.19201632146899775  1.0000
  C   C69       1.0  0.6109139384976744  0.8079841125377809  0.09992371399848568  1.0000
  C   C70       1.0  0.610913738570197  0.1920164351786937  0.9000764268403356  1.0000
  C   C71       1.0  0.3890859959643578  0.8079839799557148  0.9000763801759672  1.0000
  C   C72       1.0  0.3890858909827485  0.19201645792687566  0.09992378698488118  1.0000
  C   C73       1.0  0.5884788939898868  0.3982676653325541  0.9065351995464255  1.0000
  C   C74       1.0  0.4115208397782625  0.6017327485480377  0.9065351902839254  1.0000
  C   C75       1.0  0.41152145120422295  0.39826708689759016  0.09346497421483237  1.0000
  C   C76       1.0  0.5884789925875324  0.60173225773039  0.09346494395457228  1.0000
  C   C77       1.0  0.9065353017223144  0.5884785008229655  0.39826687046892306  1.0000
  C   C78       1.0  0.9065358593982821  0.41152096617449974  0.6017320082010186  1.0000
  C   C79       1.0  0.09346449235661679  0.4115213981802129  0.3982675494404048  1.0000
  C   C80       1.0  0.09346452408266263  0.5884782797857467  0.6017320392535623  1.0000
  C   C81       1.0  0.39826712981444967  0.9065359570320553  0.5884794117289613  1.0000
  C   C82       1.0  0.601732239886033  0.906534797488426  0.41152127684738093  1.0000
  C   C83       1.0  0.3982675526200127  0.09346448539646698  0.41152136788772953  1.0000
  C   C84       1.0  0.6017326416943263  0.09346513213679228  0.5884782515356547  1.0000
  C   C85       1.0  0.8982670418257754  0.08847894037029388  0.4065356695730742  1.0000
  C   C86       1.0  0.1017321377267777  0.9115209570276193  0.40653563689404126  1.0000
  C   C87       1.0  0.8982672344416472  0.9115211360783559  0.5934650507138457  1.0000
  C   C88       1.0  0.1017325364751898  0.08847872503194759  0.5934645643641687  1.0000
  C   C89       1.0  0.0884787928376554  0.4065356791217951  0.8982670919020919  1.0000
  C   C90       1.0  0.9115209429040475  0.4065353466472813  0.10173246670782277  1.0000
  C   C91       1.0  0.911521555456794  0.5934647363639484  0.898267638461071  1.0000
  C   C92       1.0  0.0884788863614503  0.5934639963756111  0.10173249738346607  1.0000
  C   C93       1.0  0.40653529308685415  0.89826725729565  0.0884786432692408  1.0000
  C   C94       1.0  0.4065350471102249  0.10173257568127529  0.9115215218211501  1.0000
  C   C95       1.0  0.5934646860661061  0.8982672236860264  0.9115214333678379  1.0000
  C   C96       1.0  0.5934645377514871  0.10173270184547079  0.0884787095415618  1.0000
  C   C97       1.0  0.7079245361836826  0.3930066135046104  0.18798958719057873  1.0000
  C   C98       1.0  0.29207528284672424  0.6069933263188785  0.1879895910795497  1.0000
  C   C99       1.0  0.2920745793157877  0.3930064499852221  0.8120105875926595  1.0000
  C   C100      1.0  0.7079245521232381  0.6069933686995627  0.8120105421370382  1.0000
  C   C101      1.0  0.1879904134272152  0.7079239404266671  0.3930075911598009  1.0000
  C   C102      1.0  0.18799029780718976  0.29207517079653655  0.6069932134084153  1.0000
  C   C103      1.0  0.8120106083660659  0.29207473250731647  0.39300636743521267  1.0000
  C   C104      1.0  0.8120100850496215  0.7079246876877078  0.606993135996369  1.0000
  C   C105      1.0  0.3930064079971345  0.1879903154751617  0.7079250950059331  1.0000
  C   C106      1.0  0.6069932195627176  0.18798979526918905  0.29207511960140653  1.0000
  C   C107      1.0  0.3930065871169361  0.8120101243486172  0.2920750716897088  1.0000
  C   C108      1.0  0.6069933493381896  0.812010750506097  0.7079250217026283  1.0000
  C   C109      1.0  0.8930065178029877  0.20792514227472478  0.6879897494125513  1.0000
  C   C110      1.0  0.1069932418976975  0.7920753140311728  0.6879897393114546  1.0000
  C   C111      1.0  0.8930066846892828  0.7920749315693311  0.3120103579532837  1.0000
  C   C112      1.0  0.1069937331700928  0.20792498417867478  0.3120104613224085  1.0000
  C   C113      1.0  0.20792507722062228  0.6879891957486278  0.893007133594885  1.0000
  C   C114      1.0  0.7920747978431278  0.687990030202023  0.10699359743360758  1.0000
  C   C115      1.0  0.7920752716978613  0.31201060721293317  0.8930071354539848  1.0000
  C   C116      1.0  0.20792503079822916  0.3120099253448672  0.10699366860788469  1.0000
  C   C117      1.0  0.6879899603608166  0.8930067777829932  0.2079248538034761  1.0000
  C   C118      1.0  0.6879897311616503  0.10699319455088839  0.7920752778895872  1.0000
  C   C119      1.0  0.31201001618813257  0.8930066280040022  0.7920752238554625  1.0000
  C   C120      1.0  0.31201046984931213  0.1069931581706882  0.20792495245123627  1.0000
  N   N1        1.0  0.5695443037267297  0.30728633674144123  0.031660714646278586  1.0000
  N   N2        1.0  0.43045553385361757  0.6927136334295125  0.031660685464068195  1.0000
  N   N3        1.0  0.4304559964308652  0.3072855978459755  0.968338863242671  1.0000
  N   N4        1.0  0.5695443435486213  0.6927135769464383  0.9683388175561942  1.0000
  N   N5        1.0  0.03166212484271111  0.5695448979503296  0.30728613183494957  1.0000
  N   N6        1.0  0.0316614540049329  0.430455362960572  0.6927128506471403  1.0000
  N   N7        1.0  0.9683382935773963  0.43045563226010586  0.30728608977105404  1.0000
  N   N8        1.0  0.968338918680182  0.5695438653378417  0.6927140086559687  1.0000
  N   N9        1.0  0.30728551785648517  0.03166141362738979  0.569544266950345  1.0000
  N   N10       1.0  0.6927140323194507  0.03166152254657818  0.43045536447828425  1.0000
  N   N11       1.0  0.30728575794004337  0.9683383702080589  0.4304552963716687  1.0000
  N   N12       1.0  0.6927142558987641  0.9683384521265096  0.5695441531088931  1.0000
  N   N13       1.0  0.8072856331694924  0.0695448970409345  0.5316621059491451  1.0000
  N   N14       1.0  0.19271353153578732  0.9304555896120943  0.5316614452510251  1.0000
  N   N15       1.0  0.8072858500054708  0.9304557479053129  0.46833862513354046  1.0000
  N   N16       1.0  0.1927139357587961  0.0695441374951855  0.468338745211362  1.0000
  N   N17       1.0  0.0695442095534844  0.5316608892980598  0.8072862884938343  1.0000
  N   N18       1.0  0.9304562016717457  0.5316617756276896  0.19271385935584817  1.0000
  N   N19       1.0  0.9304561495364894  0.4683383167588743  0.8072856300209208  1.0000
  N   N20       1.0  0.06954423034336087  0.46833816327890077  0.19271330303856615  1.0000
  N   N21       1.0  0.5316610743886089  0.8072864948342655  0.0695440230792315  1.0000
  N   N22       1.0  0.5316614847467279  0.19271340009654384  0.930455513618426  1.0000
  N   N23       1.0  0.4683382461829027  0.8072863955951844  0.9304554576854613  1.0000
  N   N24       1.0  0.46833875869651104  0.19271346798254996  0.06954408652606497  1.0000
  N   N25       1.0  0.6638627970985881  0.4072709321916078  0.0397729953386587  1.0000
  N   N26       1.0  0.3361376530643981  0.592729036404691  0.039772996770061284  1.0000
  N   N27       1.0  0.3361369390072256  0.40727137526138085  0.9602271766736619  1.0000
  N   N28       1.0  0.6638627883898565  0.592729028196217  0.9602271392173092  1.0000
  N   N29       1.0  0.0397732103271835  0.6638627585399987  0.4072719189875329  1.0000
  N   N30       1.0  0.039773731755815306  0.3361368928418075  0.5927282896226983  1.0000
  N   N31       1.0  0.9602271962287147  0.3361377522607326  0.40727066911658477  1.0000
  N   N32       1.0  0.9602266527934731  0.6638623548662467  0.5927288167276072  1.0000
  N   N33       1.0  0.4072706872114082  0.03977372548292381  0.6638633526041317  1.0000
  N   N34       1.0  0.5927288669798473  0.03977257611540349  0.33613689079411546  1.0000
  N   N35       1.0  0.4072709344712635  0.9602267214035006  0.3361374259442157  1.0000
  N   N36       1.0  0.5927290753523097  0.9602273490519191  0.663862638657271  1.0000
  N   N37       1.0  0.9072714425207169  0.16386340283850842  0.5397737733103013  1.0000
  N   N38       1.0  0.09272894831270408  0.836137695785517  0.5397725292522464  1.0000
  N   N39       1.0  0.9072710000855153  0.8361372916136033  0.4602275594534432  1.0000
  N   N40       1.0  0.0927287866412101  0.1638625953614721  0.46022767307425727  1.0000
  N   N41       1.0  0.16386267473577482  0.5397731992007451  0.9072714653590876  1.0000
  N   N42       1.0  0.8361377405048104  0.5397728311494204  0.09272868091491657  1.0000
  N   N43       1.0  0.8361376724902955  0.46022721453713433  0.9072708196536607  1.0000
  N   N44       1.0  0.16386270337419973  0.4602259000762316  0.09272811498151157  1.0000
  N   N45       1.0  0.5397721616118503  0.9072710605750272  0.1638624917155695  1.0000
  N   N46       1.0  0.5397719201233073  0.09272883837160606  0.8361376575649684  1.0000
  N   N47       1.0  0.4602272084528139  0.9072709756294942  0.8361375831725721  1.0000
  N   N48       1.0  0.46022766028146117  0.09272888393213918  0.16386257554670886  1.0000
