data_image0
_chemical_formula_structural       Zn2H21C22I2N5O8
_chemical_formula_sum              "Zn2 H21 C22 I2 N5 O8"
_cell_length_a       10.193306319178827
_cell_length_b       11.248436521587784
_cell_length_c       16.047336496168494
_cell_angle_alpha    86.95570217050825
_cell_angle_beta     81.5697439897254
_cell_angle_gamma    83.12767208437388

_space_group_name_H-M_alt    "P 1"
_space_group_IT_number       1

loop_
  _space_group_symop_operation_xyz
  'x, y, z'

loop_
  _atom_site_type_symbol
  _atom_site_label
  _atom_site_symmetry_multiplicity
  _atom_site_fract_x
  _atom_site_fract_y
  _atom_site_fract_z
  _atom_site_occupancy
  Zn  Zn1       1.0  0.6395743360457047  0.5140000468384545  0.48848986023524793  1.0000
  Zn  Zn2       1.0  0.36927860090224834  0.4929150677298253  0.5083521534919202  1.0000
  H   H1        1.0  0.5987730469569074  0.6360106065015357  0.9030514925185643  1.0000
  H   H2        1.0  0.7072125168244482  0.504846525512157  0.04669638353214371  1.0000
  H   H3        1.0  0.7033085645810501  0.500411636477061  0.9002643087789512  1.0000
  H   H4        1.0  0.40471312116011393  0.11702884789342959  0.5009317252055612  1.0000
  H   H5        1.0  0.6243341855319853  0.8959687118018776  0.4903542880201714  1.0000
  H   H6        1.0  0.7085753907610481  0.10562512341216025  0.49436000034773314  1.0000
  H   H7        1.0  0.9217195393705352  0.4138609442514181  0.5371545580032163  1.0000
  H   H8        1.0  0.8537816246204031  0.6279783779934291  0.43380816528388527  1.0000
  H   H9        1.0  0.6111646739109133  0.6458401069137238  0.04698621369055901  1.0000
  H   H10       1.0  0.13816106342798656  0.4045823605080799  0.5554882276785451  1.0000
  H   H11       1.0  0.36679685868954687  0.661605261956211  0.0706677568546468  1.0000
  H   H12       1.0  0.3470141054469024  0.6417047859074287  0.929280777564664  1.0000
  H   H13       1.0  0.2767151782349586  0.5049533527835095  0.9527480582572996  1.0000
  H   H14       1.0  0.5951486858941663  0.31540036208505023  0.07451148744813452  1.0000
  H   H15       1.0  0.41826581347132213  0.3236726857268977  0.09302022054831133  1.0000
  H   H16       1.0  0.39027967182304474  0.2729671754841192  0.8874618063929847  1.0000
  H   H17       1.0  0.3755338059285975  0.22084843332599755  0.9866223143250327  1.0000
  H   H18       1.0  0.2271927573836195  0.8463386149114667  0.528076633187091  1.0000
  H   H19       1.0  0.25527291241717615  0.9952434043790108  0.5294031608584719  1.0000
  H   H20       1.0  0.7072813002351949  0.31661556997336493  0.9253725756333541  1.0000
  H   H21       1.0  0.6284696746300185  0.19686106276439122  0.9416422075386991  1.0000
  C   C1        1.0  0.4527345035814605  0.7378889793866604  0.5003209408158753  1.0000
  C   C2        1.0  0.6103465990102138  0.5460626186475392  0.9331163027631962  1.0000
  C   C3        1.0  0.4901434458707357  0.4817961926412053  0.9182919149326951  1.0000
  C   C4        1.0  0.5014555457517815  0.3516078790430868  0.9599689442650504  1.0000
  C   C5        1.0  0.5028731540246483  0.36369403689117524  0.05634689455303032  1.0000
  C   C6        1.0  0.48374847250279623  0.4788404153712165  0.8285790699349537  1.0000
  C   C7        1.0  0.5034951251874062  0.5018025751458238  0.1700375083746196  1.0000
  C   C8        1.0  0.5134977714276802  0.5058889943526026  0.24433590474177452  1.0000
  C   C9        1.0  0.421755834834542  0.8721182393856423  0.5029089721347975  1.0000
  C   C10       1.0  0.5237623342511951  0.9429494054153337  0.4967022902121628  1.0000
  C   C11       1.0  0.6041167733526008  0.14230872801001482  0.4966717808841425  1.0000
  C   C12       1.0  0.5147446399265903  0.5090939320135988  0.3342940155903592  1.0000
  C   C13       1.0  0.5056691278551781  0.0701017940886643  0.4985327098061491  1.0000
  C   C14       1.0  0.07382823541968261  0.5274739062595444  0.4777733712109368  1.0000
  C   C15       1.0  0.9349917304293882  0.49496443204837  0.4969725803318995  1.0000
  C   C16       1.0  0.5754703825550463  0.2732596981576236  0.49765675260412934  1.0000
  C   C17       1.0  0.47645510186503504  0.49273316964998776  0.6632047600870197  1.0000
  C   C18       1.0  0.6148115568148497  0.5527575459203858  0.028363753095789004  1.0000
  C   C19       1.0  0.3677527612752911  0.5677715188400114  0.05532558330165931  1.0000
  C   C20       1.0  0.360431724000037  0.5533064066584642  0.9614387813287736  1.0000
  C   C21       1.0  0.47776727507896055  0.4842038773433829  0.753353366942257  1.0000
  C   C22       1.0  0.4954694096874589  0.49567261194669504  0.08081049699806193  1.0000
  I   I1        1.0  0.10449460813471484  0.6689226648352715  0.3898300705430416  1.0000
  I   I2        1.0  0.18540818455533528  0.5207576791182689  0.13428256113693493  1.0000
  N   N1        1.0  0.16859936339431406  0.4717267744880261  0.5136625053099027  1.0000
  N   N2        1.0  0.8328263718767417  0.5532732363537817  0.47152016545732794  1.0000
  N   N3        1.0  0.38361916776180743  0.2961719007541319  0.9487952450438047  1.0000
  N   N4        1.0  0.2883283708607251  0.911011995232656  0.5109676087811581  1.0000
  N   N5        1.0  0.6219856583375787  0.28247518233555985  0.9166123147175045  1.0000
  O   O1        1.0  0.5734800657432614  0.6948570849065945  0.4806722830047223  1.0000
  O   O2        1.0  0.3528207078956669  0.6779078434070058  0.5184065967384229  1.0000
  O   O3        1.0  0.6269672467022005  0.5060579712370982  0.3603202707325296  1.0000
  O   O4        1.0  0.40040550537209196  0.5147521989295855  0.3794802917397534  1.0000
  O   O5        1.0  0.6751901779458507  0.3332200018700462  0.497969890044047  1.0000
  O   O6        1.0  0.45430112009777446  0.31992651891146556  0.49774892321056546  1.0000
  O   O7        1.0  0.5838677768449471  0.5186060446133566  0.6183075963540433  1.0000
  O   O8        1.0  0.3687233373135612  0.47467299686444175  0.6366639693634683  1.0000
