data_image0
_chemical_formula_structural       Zn4H16C16N8O12
_chemical_formula_sum              "Zn4 H16 C16 N8 O12"
_cell_length_a       5.920632278084367
_cell_length_b       8.900705231100916
_cell_length_c       12.531284830386443
_cell_angle_alpha    110.7909208113783
_cell_angle_beta     103.65003305042039
_cell_angle_gamma    90.01073738628168

_space_group_name_H-M_alt    "P 1"
_space_group_IT_number       1

loop_
  _space_group_symop_operation_xyz
  'x, y, z'

loop_
  _atom_site_type_symbol
  _atom_site_label
  _atom_site_symmetry_multiplicity
  _atom_site_fract_x
  _atom_site_fract_y
  _atom_site_fract_z
  _atom_site_occupancy
  Zn  Zn1       1.0  0.6468987937468639  0.7856922984770732  0.7686658207138349  1.0000
  Zn  Zn2       1.0  0.35301961551046185  0.016933957352293298  0.23129582776049057  1.0000
  Zn  Zn3       1.0  0.6220469473468241  0.2858311111966643  0.7687502098269975  1.0000
  Zn  Zn4       1.0  0.3780018751008781  0.5170703398770157  0.23130832879558483  1.0000
  H   H1        1.0  0.49995631268252777  0.016636656720905297  0.9999617620179606  1.0000
  H   H2        1.0  0.9999036192050282  0.5166429573052298  2.3094973805462635e-05  1.0000
  H   H3        1.0  0.4999202144545691  0.4659896582417459  2.9879541280279356e-05  1.0000
  H   H4        1.0  0.0003239016833376008  0.9659016003921294  0.9999251378293934  1.0000
  H   H5        1.0  0.635667049183887  0.5734365116281737  0.49988304171878895  1.0000
  H   H6        1.0  0.364108896912377  0.07347193608425329  0.5000587429783394  1.0000
  H   H7        1.0  0.9377334982021851  0.8679675014253546  0.5000622270303979  1.0000
  H   H8        1.0  0.0621866679943395  0.36786357257031443  0.49988210013525247  1.0000
  H   H9        1.0  0.0762548688609712  0.7728692281587043  0.7569060616034945  1.0000
  H   H10       1.0  0.9236282435110325  0.015986684907595392  0.24303132808525868  1.0000
  H   H11       1.0  0.18091385014631808  0.2729748752562812  0.7568537791128591  1.0000
  H   H12       1.0  0.8191317640831386  0.5160729689784488  0.24318237624898842  1.0000
  H   H13       1.0  0.9944433863317315  0.5931371350437687  0.7538891044633544  1.0000
  H   H14       1.0  0.005288985872581995  0.8392762177697717  0.24607188902915314  1.0000
  H   H15       1.0  0.25958254106720346  0.09329154107991398  0.7539617464849968  1.0000
  H   H16       1.0  0.7404350323028766  0.3392518874194579  0.24608441137472437  1.0000
  C   C1        1.0  0.5000227608793963  0.8940971322044575  1.716573350319256e-05  1.0000
  C   C2        1.0  0.9999895383634153  0.3940779525197371  0.9999949695161163  1.0000
  C   C3        1.0  0.5387430555694195  0.6206394361526647  0.9038154083797919  1.0000
  C   C4        1.0  0.4615044399124244  0.716845502210546  0.09628187531740913  1.0000
  C   C5        1.0  0.8651487096171593  0.12060975787330355  0.9038345123291691  1.0000
  C   C6        1.0  0.135106981408363  0.21678311155904587  0.09617023137636241  1.0000
  C   C7        1.0  0.4999287355391714  0.5880902441852879  0.999993228823314  1.0000
  C   C8        1.0  0.0002086507151660082  0.08803982314630332  0.9999768116379784  1.0000
  C   C9        1.0  0.47842772365685693  0.6378768066724304  0.4999259213517321  1.0000
  C   C10       1.0  0.5213541069899249  0.1379111058428819  0.500009495543928  1.0000
  C   C11       1.0  0.2444567821267327  0.8119583184252902  0.6073591485325736  1.0000
  C   C12       1.0  0.7554927759051752  0.20459739612028466  0.3926336071987464  1.0000
  C   C13       1.0  0.8627432659250047  0.3119808394443524  0.6072536176149512  1.0000
  C   C14       1.0  0.13702977498176952  0.7047088142235225  0.39273190975927724  1.0000
  C   C15       1.0  0.0934637399395086  0.8030006536199962  0.5000947991040263  1.0000
  C   C16       1.0  0.9064149172193156  0.30290712972535516  0.4999004972486603  1.0000
  N   N1        1.0  0.5460113706032388  0.7783751635961093  0.9084768308272685  1.0000
  N   N2        1.0  0.4541275523688171  0.8698852183533746  0.09154332924232025  1.0000
  N   N3        1.0  0.8626074457228796  0.2783390320234673  0.9084930360769192  1.0000
  N   N4        1.0  0.13750292696744987  0.3698763973027112  0.09154278663085337  1.0000
  N   N5        1.0  0.4423683856247679  0.7262949164970889  0.6041930666369026  1.0000
  N   N6        1.0  0.5575770694576505  0.12199027725358039  0.3957608784471702  1.0000
  N   N7        1.0  0.6617339847398257  0.2263366927743817  0.6041928917555808  1.0000
  N   N8        1.0  0.33793018116764967  0.622042616360808  0.3957613628986749  1.0000
  O   O1        1.0  0.5727750110756702  0.5187419804513382  0.8072468018036432  1.0000
  O   O2        1.0  0.4279233153878508  0.7114814323888579  0.19292808418157387  1.0000
  O   O3        1.0  0.7345029469900196  0.018661868371466998  0.8073205645522208  1.0000
  O   O4        1.0  0.2657518467637844  0.2113270124438031  0.19266954259850172  1.0000
  O   O5        1.0  0.21463440357396726  0.8926996973662823  0.7100281681731246  1.0000
  O   O6        1.0  0.7854485527063912  0.18267226360185868  0.28997391992458427  1.0000
  O   O7        1.0  0.9954062900255637  0.3926904988118595  0.7098673367609506  1.0000
  O   O8        1.0  0.0043984026777082255  0.6829397085922437  0.2901583363028877  1.0000
  O   O9        1.0  0.9709511700543416  0.7111289361653803  0.7817851348880538  1.0000
  O   O10       1.0  0.02885547010824747  0.9293453734333496  0.21813949424257126  1.0000
  O   O11       1.0  0.31098757653477793  0.21126238388502117  0.7818279806834312  1.0000
  O   O12       1.0  0.6890250572011565  0.4294072051272053  0.21826577257128585  1.0000
