data_image0
_chemical_formula_structural       Cd2H22C30N2O14
_chemical_formula_sum              "Cd2 H22 C30 N2 O14"
_cell_length_a       7.4618630334149625
_cell_length_b       10.18877976044904
_cell_length_c       11.916515588869467
_cell_angle_alpha    106.01808358361494
_cell_angle_beta     108.23648742763257
_cell_angle_gamma    101.51227737116136

_space_group_name_H-M_alt    "P 1"
_space_group_IT_number       1

loop_
  _space_group_symop_operation_xyz
  'x, y, z'

loop_
  _atom_site_type_symbol
  _atom_site_label
  _atom_site_symmetry_multiplicity
  _atom_site_fract_x
  _atom_site_fract_y
  _atom_site_fract_z
  _atom_site_occupancy
  Cd  Cd1       1.0  0.5999855613304066  0.8500808679268061  0.9299192234887884  1.0000
  Cd  Cd2       1.0  0.4000152475043492  0.14991802693419487  0.07007961392288559  1.0000
  H   H1        1.0  0.39572884734495534  0.6296652019252987  0.07853211541952725  1.0000
  H   H2        1.0  0.6042658754569176  0.3703293996409656  0.9214653879328765  1.0000
  H   H3        1.0  0.027997129056480205  0.8532359071034106  0.21206104588848262  1.0000
  H   H4        1.0  0.9720074289731357  0.14676514212372635  0.7879390198796514  1.0000
  H   H5        1.0  0.9492108603198589  0.41063021256775284  0.17840984525594913  1.0000
  H   H6        1.0  0.050787589282762655  0.5893698068783093  0.8215921348215146  1.0000
  H   H7        1.0  0.7383604406405554  0.7200618290683777  0.21456609345833746  1.0000
  H   H8        1.0  0.2616445572355488  0.27994354541797145  0.78543671220298  1.0000
  H   H9        1.0  0.6714695990839986  0.5310504924339767  0.17650245503396178  1.0000
  H   H10       1.0  0.32852928851314545  0.46895379872012194  0.8234988955375613  1.0000
  H   H11       1.0  0.12379337022210989  0.666184856826831  0.4249668652227356  1.0000
  H   H12       1.0  0.8762069535149521  0.33381622641450537  0.57503488668317  1.0000
  H   H13       1.0  0.8839108968968928  0.7214596744200533  0.715528193001134  1.0000
  H   H14       1.0  0.1160880140203417  0.27854137999596407  0.2844715939013511  1.0000
  H   H15       1.0  0.554449043196378  0.6794551017296584  0.5490616758271898  1.0000
  H   H16       1.0  0.44554986910983274  0.32054599284973756  0.45094063812464213  1.0000
  H   H17       1.0  0.5281392615285796  0.6388988671259026  0.3242115400426115  1.0000
  H   H18       1.0  0.47185964985165196  0.36110220067790516  0.6757890892096583  1.0000
  H   H19       1.0  0.8364062801445654  0.0813195587338882  0.1578184541823902  1.0000
  H   H20       1.0  0.16359545456035113  0.9186814997815842  0.8421818933278118  1.0000
  H   H21       1.0  0.9985885395994459  0.012128679882920297  0.12540989222049598  1.0000
  H   H22       1.0  0.001412731938898959  0.987871290111421  0.8745892790655531  1.0000
  C   C1        1.0  0.24921191499208822  0.3772854200478902  0.10630830130698851  1.0000
  C   C2        1.0  0.7507851455737936  0.6227113472225695  0.8936909924477947  1.0000
  C   C3        1.0  0.18770723234365505  0.51019679133703  0.13432990312343657  1.0000
  C   C4        1.0  0.8122916790365693  0.48980427646678487  0.8656707261288331  1.0000
  C   C5        1.0  0.28208539901120133  0.6326899567464608  0.11769427623752192  1.0000
  C   C6        1.0  0.7179158967732205  0.3673068032853876  0.8823050160790515  1.0000
  C   C7        1.0  0.22626070645605983  0.7570700599222063  0.14702741145594436  1.0000
  C   C8        1.0  0.7737372776650274  0.24292880406375866  0.8529691806484507  1.0000
  C   C9        1.0  0.3179098693276146  0.8863527878919084  0.12287445683493552  1.0000
  C   C10       1.0  0.6820900131739904  0.11364392992683035  0.8771220281284329  1.0000
  C   C11       1.0  0.07448198299341163  0.7575035074983987  0.1922465044132977  1.0000
  C   C12       1.0  0.9255192890079229  0.24249647588374043  0.807753509222536  1.0000
  C   C13       1.0  0.9728742336281114  0.6337987517322073  0.20330437806250493  1.0000
  C   C14       1.0  0.027125627868357996  0.36620126976357875  0.7966978823188171  1.0000
  C   C15       1.0  0.0301184688521586  0.5100385402645883  0.17450266608209827  1.0000
  C   C16       1.0  0.969879979361494  0.48996143901809563  0.8254967869460117  1.0000
  C   C17       1.0  0.7930509565215402  0.6330537224929884  0.23421811770241874  1.0000
  C   C18       1.0  0.20695029262269324  0.3669495110150222  0.7657843019522375  1.0000
  C   C19       1.0  0.0033575340493428463  0.6724686819854142  0.45700934385502734  1.0000
  C   C20       1.0  0.9966413773308817  0.3275323858183937  0.5429912853972425  1.0000
  C   C21       1.0  0.03021065899471144  0.6974910912054851  0.5828164779595184  1.0000
  C   C22       1.0  0.9697887150891021  0.30251105173166326  0.4171844851671196  1.0000
  C   C23       1.0  0.8686689514144347  0.7026964004761282  0.6175923668544101  1.0000
  C   C24       1.0  0.13133090961904506  0.29730360763186775  0.3824090511771345  1.0000
  C   C25       1.0  0.6838677051515417  0.679481352213031  0.5247771642079897  1.0000
  C   C26       1.0  0.3161321563449278  0.32051866928275524  0.4752250961733324  1.0000
  C   C27       1.0  0.6663451809551973  0.6565570641783226  0.4015689215539879  1.0000
  C   C28       1.0  0.3336551427818648  0.3434440190630069  0.5984328303519248  1.0000
  C   C29       1.0  0.23460198868774998  0.7168577066743396  0.6760745564958343  1.0000
  C   C30       1.0  0.7654002091837526  0.28314444036226394  0.3239269672385205  1.0000
  N   N1        1.0  0.825833666407469  0.6555314310891021  0.3698984550608343  1.0000
  N   N2        1.0  0.1741652449727553  0.34446963671471303  0.6301021741914354  1.0000
  O   O1        1.0  0.1585839505131048  0.26865344480548703  0.12165807951126338  1.0000
  O   O2        1.0  0.8414112349923641  0.7313422318941177  0.8783397577155156  1.0000
  O   O3        1.0  0.3943874745776411  0.3794041530842874  0.07000322854256777  1.0000
  O   O4        1.0  0.6056105361044857  0.6205915678781507  0.9299976963412747  1.0000
  O   O5        1.0  0.4509955254566479  0.883062387316549  0.07858062908228193  1.0000
  O   O6        1.0  0.5490038957303441  0.11693329553223455  0.921418049056065  1.0000
  O   O7        1.0  0.25622453158627684  0.9953980151423066  0.1489909548038995  1.0000
  O   O8        1.0  0.7437734753919117  0.004597598717779801  0.8510032312816732  1.0000
  O   O9        1.0  0.27019686744815624  0.7839472298104012  0.7932860015490633  1.0000
  O   O10       1.0  0.7298015803025066  0.21605273608448525  0.20671260912926936  1.0000
  O   O11       1.0  0.3499138196068969  0.6663429435203055  0.6338788029316262  1.0000
  O   O12       1.0  0.6500865045931548  0.33365815310882135  0.366123791324071  1.0000
  O   O13       1.0  0.8644307228161666  0.9898683793310992  0.1265585160243958  1.0000
  O   O14       1.0  0.1355738366024255  0.010132710059416202  0.8734440767930848  1.0000
