data_image0
_chemical_formula_structural       Zn4H44C64N16O4
_chemical_formula_sum              "Zn4 H44 C64 N16 O4"
_cell_length_a       18.59172576817569
_cell_length_b       18.46782759963522
_cell_length_c       18.696762607750824
_cell_angle_alpha    102.25563147989712
_cell_angle_beta     110.18990583727246
_cell_angle_gamma    110.11851236088346

_space_group_name_H-M_alt    "P 1"
_space_group_IT_number       1

loop_
  _space_group_symop_operation_xyz
  'x, y, z'

loop_
  _atom_site_type_symbol
  _atom_site_label
  _atom_site_symmetry_multiplicity
  _atom_site_fract_x
  _atom_site_fract_y
  _atom_site_fract_z
  _atom_site_occupancy
  Zn  Zn1       1.0  0.875108025484664  0.5106152036379683  0.4006403472825895  1.0000
  Zn  Zn2       1.0  0.8844867686361012  0.409766637106209  0.5238513735390313  1.0000
  Zn  Zn3       1.0  0.09863872658067413  0.4979739731024396  0.6246503471875329  1.0000
  Zn  Zn4       1.0  0.08646574765619881  0.6191214761759414  0.48750362353012383  1.0000
  H   H1        1.0  0.8247525719024864  0.5348891643823138  0.22194432966016112  1.0000
  H   H2        1.0  0.8339863042373209  0.23142880798815213  0.5570407729269392  1.0000
  H   H3        1.0  0.6228100120490369  0.9744973489273719  0.10836748726309524  1.0000
  H   H4        1.0  0.6706308026496615  0.0687678791302559  0.028073467460906484  1.0000
  H   H5        1.0  0.6145088048730399  0.1270702823946266  0.0029199542206725868  1.0000
  H   H6        1.0  0.5604838652124045  0.9941470158408805  0.1554262730031368  1.0000
  H   H7        1.0  0.49505720378910195  0.08839924569285529  0.12367171433272259  1.0000
  H   H8        1.0  0.5296368983810709  0.15433960264464733  0.07392784921504612  1.0000
  H   H9        1.0  0.37651488451559356  0.9999451944115877  0.9950005215205024  1.0000
  H   H10       1.0  0.4232389885844015  0.056189937004901915  0.9449438209580593  1.0000
  H   H11       1.0  0.14091729445154033  0.5232819696257422  0.37631406135102446  1.0000
  H   H12       1.0  0.1607891104393531  0.3860932407283927  0.5371967446593047  1.0000
  H   H13       1.0  0.82818511590402  0.23483847218295043  0.39949406526007886  1.0000
  H   H14       1.0  0.8240399455812265  0.3721720737834744  0.2379127540678354  1.0000
  H   H15       1.0  0.6697202312746667  0.48120438694692075  0.3400770750046931  1.0000
  H   H16       1.0  0.6889128839384638  0.3589164560578837  0.5149310506960632  1.0000
  H   H17       1.0  0.09821392865656255  0.7898413812750035  0.5918340044624273  1.0000
  H   H18       1.0  0.11908396743393007  0.6123533895863317  0.7969076122341221  1.0000
  H   H19       1.0  0.8449688781757627  0.5154763613425503  0.6470987402805902  1.0000
  H   H20       1.0  0.8268231339488706  0.6326009894336836  0.5049453007586209  1.0000
  H   H21       1.0  0.5020089101797112  0.8728703336435899  0.9946729836196514  1.0000
  H   H22       1.0  0.556992299084392  0.943304362194354  0.932195144433912  1.0000
  H   H23       1.0  0.41476958046074935  0.043542758630003696  0.8313022090311294  1.0000
  H   H24       1.0  0.5183702613412606  0.12892678011794353  0.897546750112241  1.0000
  H   H25       1.0  0.4864204356215893  0.08459263736349242  0.7914489915954945  1.0000
  H   H26       1.0  0.5813078731168204  0.03029912149334991  0.8558747824046334  1.0000
  H   H27       1.0  0.4759098237169398  0.9483023906969238  0.8056390524756837  1.0000
  H   H28       1.0  0.43836607408810824  0.9663641375912063  0.15251344552834203  1.0000
  H   H29       1.0  0.3449385094273794  0.9407374506533372  0.06269011988459282  1.0000
  H   H30       1.0  0.34470811896309084  0.8719015548148408  0.11515124922389221  1.0000
  H   H31       1.0  0.3589908398189507  0.8224079947457597  0.9857119245611089  1.0000
  H   H32       1.0  0.4405409958191199  0.8336210067130098  0.07669774802192109  1.0000
  H   H33       1.0  0.1082684856432437  0.20124207891471002  0.5927760572583338  1.0000
  H   H34       1.0  0.12276083846474957  0.2665460011529461  0.5369586560229821  1.0000
  H   H35       1.0  0.21345984883107152  0.27804038983843077  0.6217519756437397  1.0000
  H   H36       1.0  0.1781187490159368  0.39208527460478854  0.6693691132669244  1.0000
  H   H37       1.0  0.15527896404663724  0.32137942885387366  0.7178446667067321  1.0000
  H   H38       1.0  0.19268824391105  0.7524361634556912  0.4229428860812802  1.0000
  H   H39       1.0  0.20464462539944608  0.6659913465835388  0.4413265394650594  1.0000
  H   H40       1.0  0.2603733317624232  0.7177750114973521  0.3938602773768025  1.0000
  H   H41       1.0  0.1325722401796909  0.5850647946601911  0.2873319496475659  1.0000
  H   H42       1.0  0.12603471906563607  0.6716481911556542  0.2682423468936506  1.0000
  H   H43       1.0  0.31046630275118775  0.6256472453075194  0.8773508054070548  1.0000
  H   H44       1.0  0.3132403557032574  0.9499399178367227  0.664534577822721  1.0000
  C   C1        1.0  0.8937222304609732  0.5590470515433311  0.2580083141487464  1.0000
  C   C2        1.0  0.9026129940420587  0.2680190669572369  0.5790713108132479  1.0000
  C   C3        1.0  0.03458014518715654  0.7390126714562939  0.5673778835968193  1.0000
  C   C4        1.0  0.054107192795768866  0.5840878908645167  0.7476443702519762  1.0000
  C   C5        1.0  0.9135123800535251  0.5345007727036445  0.6713976773604743  1.0000
  C   C6        1.0  0.8950567436975945  0.6589569112625285  0.5219480448157584  1.0000
  C   C7        1.0  0.6422167885932879  0.4143340079245021  0.4227408691182219  1.0000
  C   C8        1.0  0.2828652304766805  0.7635838318047234  0.7387334586647113  1.0000
  C   C9        1.0  0.9586819007710117  0.7427567894779016  0.5630849530016631  1.0000
  C   C10       1.0  0.9784934492382432  0.5769608565622377  0.7536188729669391  1.0000
  C   C11       1.0  0.5683960292926641  0.9888611548269284  0.09921765519381863  1.0000
  C   C12       1.0  0.6085896665964298  0.0696646878789338  0.01422013107313086  1.0000
  C   C13       1.0  0.5358713420041852  0.9922452805087262  0.9381839150256612  1.0000
  C   C14       1.0  0.4852100065668453  0.9191025541076316  0.023032168506453784  1.0000
  C   C15       1.0  0.33790606866557477  0.8304651572696856  0.814436929396102  1.0000
  C   C16       1.0  0.5914075128232807  0.0740577287075865  0.08986917437139395  1.0000
  C   C17       1.0  0.4565952126242578  0.9557248510859325  0.9558767728549854  1.0000
  C   C18       1.0  0.04485505610780651  0.31676269416850295  0.6269313713382303  1.0000
  C   C19       1.0  0.03621230783085849  0.6104491000481147  0.3059129038665702  1.0000
  C   C20       1.0  0.4358604411871879  0.026359610833374302  0.989325666122923  1.0000
  C   C21       1.0  0.5120831057883208  0.09085942133565081  0.07318457018318014  1.0000
  C   C22       1.0  0.3865000020737455  0.8885959184378722  0.8802687663626331  1.0000
  C   C23       1.0  0.667297879407087  0.1403567881162786  0.16243141298940592  1.0000
  C   C24       1.0  0.7320219146466016  0.1980764430676984  0.22026300211481953  1.0000
  C   C25       1.0  0.96207156257347  0.1684736697797504  0.6113360797698205  1.0000
  C   C26       1.0  0.9536581748465451  0.5904420843663445  0.15897293231969925  1.0000
  C   C27       1.0  0.9574579282627977  0.10081545446810482  0.6133542812554467  1.0000
  C   C28       1.0  0.9544850155843747  0.5965343023056776  0.09486976412971869  1.0000
  C   C29       1.0  0.9534605668397731  0.026730369576050395  0.6122000134736538  1.0000
  C   C30       1.0  0.9562672809955898  0.6015833778421397  0.025021463923117382  1.0000
  C   C31       1.0  0.9509080139123893  0.9580425013047674  0.6081013150781232  1.0000
  C   C32       1.0  0.9597338157480166  0.6045877403473057  0.9607305000549289  1.0000
  C   C33       1.0  0.9502583881453857  0.8838368382134689  0.5989434251607617  1.0000
  C   C34       1.0  0.9648416740539002  0.6029464336146689  0.8907023935103453  1.0000
  C   C35       1.0  0.13859401103308494  0.4960393810600791  0.42193831413452904  1.0000
  C   C36       1.0  0.1482922331758161  0.4253599836170991  0.5039131444570586  1.0000
  C   C37       1.0  0.9508288966621237  0.8158527633619246  0.585643027129386  1.0000
  C   C38       1.0  0.9701183039207919  0.595955063546569  0.8259517857401948  1.0000
  C   C39       1.0  0.5608538501936663  0.4038092160025286  0.41333305692716493  1.0000
  C   C40       1.0  0.49061125253845006  0.3979561330486875  0.40651711474030344  1.0000
  C   C41       1.0  0.4161499548175626  0.3952154077366075  0.40212383176987027  1.0000
  C   C42       1.0  0.3499039742079119  0.39672724053448144  0.40145118195928114  1.0000
  C   C43       1.0  0.28246395529051677  0.40408048734242635  0.406735385570137  1.0000
  C   C44       1.0  0.22565950352701242  0.416939830201379  0.41779740303158525  1.0000
  C   C45       1.0  0.8366873449863165  0.28123429333498257  0.3717347901302688  1.0000
  C   C46       1.0  0.8347148469685804  0.35148843869379937  0.28918832935885763  1.0000
  C   C47       1.0  0.9592823790484457  0.586091768335379  0.2342354478277002  1.0000
  C   C48       1.0  0.9689440035993471  0.24486364666664434  0.6065803039762301  1.0000
  C   C49       1.0  0.17130441581242906  0.4406853831653804  0.4421406961773755  1.0000
  C   C50       1.0  0.799272690404365  0.2702844130049442  0.28820371402567707  1.0000
  C   C51       1.0  0.68872371142713  0.45349356440284794  0.38451188774951817  1.0000
  C   C52       1.0  0.6985827911132603  0.391090794244704  0.4741620616200422  1.0000
  C   C53       1.0  0.24749676033735563  0.6769446414058038  0.7233479432775239  1.0000
  C   C54       1.0  0.24682963382224432  0.7646777546536754  0.6587331303119583  1.0000
  C   C55       1.0  0.5190819606150966  0.008154550441268806  0.8577708231902007  1.0000
  C   C56       1.0  0.4826790275933348  0.06966138509561398  0.8443498841856326  1.0000
  C   C57       1.0  0.41493077222146013  0.869149505378637  0.04394033322910937  1.0000
  C   C58       1.0  0.3844764147145838  0.9150679726434987  0.09604898986653855  1.0000
  C   C59       1.0  0.1350799145238284  0.3278621799944332  0.6577677151889887  1.0000
  C   C60       1.0  0.1456080731449632  0.2648972766145122  0.5989101127259887  1.0000
  C   C61       1.0  0.12455762265521739  0.6401883800584116  0.31190672769971434  1.0000
  C   C62       1.0  0.19910603831966964  0.697258076538283  0.3971046447950854  1.0000
  C   C63       1.0  0.2551636236247035  0.626594388618429  0.7724102281045405  1.0000
  C   C64       1.0  0.25607727364869953  0.833291537165806  0.6296479307966648  1.0000
  N   N1        1.0  0.9281368452422923  0.5673131330768159  0.3369476222054502  1.0000
  N   N2        1.0  0.9358537415594127  0.34660335717367025  0.5831071648351909  1.0000
  N   N3        1.0  0.02358348680836287  0.3766872893777062  0.6125147603332479  1.0000
  N   N4        1.0  0.016351014298521704  0.5993321704325396  0.36674163261300663  1.0000
  N   N5        1.0  0.10228689942646702  0.5139522269975672  0.46985756115221733  1.0000
  N   N6        1.0  0.10800665834983647  0.46980066793745584  0.5199439651239359  1.0000
  N   N7        1.0  0.8878132275705821  0.362974011932515  0.41836478763743656  1.0000
  N   N8        1.0  0.8866082143244041  0.4062788066444868  0.3675150881891439  1.0000
  N   N9        1.0  0.7654120969026507  0.453210221540175  0.41111012082745185  1.0000
  N   N10       1.0  0.7716487245907616  0.41468264212686284  0.4667765927193557  1.0000
  N   N11       1.0  0.19419697908207204  0.6326432158761932  0.6420088107300259  1.0000
  N   N12       1.0  0.19403003243166236  0.684428578458494  0.6029481179443082  1.0000
  N   N13       1.0  0.01659219524839988  0.6598546325056776  0.5308026259477076  1.0000
  N   N14       1.0  0.03467115377643633  0.5472789825421387  0.6688195198379816  1.0000
  N   N15       1.0  0.9482601877516286  0.5167259104557544  0.6218709807624023  1.0000
  N   N16       1.0  0.9310888655783315  0.6106753061152618  0.5027806388345937  1.0000
  O   O1        1.0  0.21084753304763382  0.5490489534062492  0.7432440287867479  1.0000
  O   O2        1.0  0.3127875056047174  0.6672885950563555  0.8520989656456666  1.0000
  O   O3        1.0  0.2156476228837079  0.8245939408541504  0.5581388227773729  1.0000
  O   O4        1.0  0.3134361089924268  0.9090068266960074  0.690366268975481  1.0000
