data_image0
_chemical_formula_structural       Cd6H24C36N36O24
_chemical_formula_sum              "Cd6 H24 C36 N36 O24"
_cell_length_a       15.837767056399349
_cell_length_b       15.6553
_cell_length_c       15.837595453196748
_cell_angle_alpha    109.23800233969114
_cell_angle_beta     109.70346353726194
_cell_angle_gamma    109.2384409012377

_space_group_name_H-M_alt    "P 1"
_space_group_IT_number       1

loop_
  _space_group_symop_operation_xyz
  'x, y, z'

loop_
  _atom_site_type_symbol
  _atom_site_label
  _atom_site_symmetry_multiplicity
  _atom_site_fract_x
  _atom_site_fract_y
  _atom_site_fract_z
  _atom_site_occupancy
  Cd  Cd1       1.0  0.2492036064185754  0.49943205955694486  0.7505434620496985  1.0000
  Cd  Cd2       1.0  0.7505470587985954  0.49943276416372845  0.24920102552215442  1.0000
  Cd  Cd3       1.0  0.5013457475101787  0.25023117667276296  0.7507982930959968  1.0000
  Cd  Cd4       1.0  0.49865975040803784  0.748888220723032  0.24945508284045556  1.0000
  Cd  Cd5       1.0  0.750802169328928  0.25023200476500307  0.5013457627147913  1.0000
  Cd  Cd6       1.0  0.24945622181506616  0.7488854763563355  0.4986547117373235  1.0000
  H   H1        1.0  0.1308110193632075  0.5648427507705378  0.8920992399691413  1.0000
  H   H2        1.0  0.8690772747854468  0.7608505662442157  0.43363745054463015  1.0000
  H   H3        1.0  0.3264362433651656  0.43590796797857945  0.5653937417676431  1.0000
  H   H4        1.0  0.672489077112253  0.23673764130322894  0.10782912921520446  1.0000
  H   H5        1.0  0.23896335895167925  0.10947809738321737  0.6735583901957655  1.0000
  H   H6        1.0  0.43534729198772476  0.5642549381626553  0.32751185979261516  1.0000
  H   H7        1.0  0.7612946732813057  0.4340403626518921  0.8691918819295594  1.0000
  H   H8        1.0  0.5645706184581485  0.8917785130084043  0.130922311358475  1.0000
  H   H9        1.0  0.5663658976684474  0.32721803823235257  0.4354399716998073  1.0000
  H   H10       1.0  0.10789823527400702  0.6727416168529103  0.23870833039300268  1.0000
  H   H11       1.0  0.8921773941518367  0.1289109354646101  0.5646641223745164  1.0000
  H   H12       1.0  0.4346109926818329  0.8705165146048162  0.7610393155008309  1.0000
  H   H13       1.0  0.13092535893999013  0.89177858263227  0.5645589941320353  1.0000
  H   H14       1.0  0.8691905062919929  0.43403461784596686  0.7612925254380727  1.0000
  H   H15       1.0  0.3275137792776662  0.5642477277678852  0.43533685618214685  1.0000
  H   H16       1.0  0.6735718258677537  0.10947719611113621  0.2389598060990536  1.0000
  H   H17       1.0  0.2387084076797237  0.6727401513124109  0.10789522373806901  1.0000
  H   H18       1.0  0.4354405927184573  0.32721497244708786  0.5663642020701047  1.0000
  H   H19       1.0  0.7610434792676061  0.8705141517769519  0.43460820659763033  1.0000
  H   H20       1.0  0.5646600316431148  0.12890845402282025  0.8921694423921166  1.0000
  H   H21       1.0  0.5654042976831164  0.43591747247437956  0.32644062163532084  1.0000
  H   H22       1.0  0.10783475015606589  0.23674338192780212  0.6724885204078036  1.0000
  H   H23       1.0  0.8921039423398441  0.5648483093539343  0.13080954408859205  1.0000
  H   H24       1.0  0.4336469045989589  0.7608545154150121  0.8690766901661462  1.0000
  C   C1        1.0  0.36988824693331424  0.6377411453302954  0.999998802524054  1.0000
  C   C2        1.0  0.6301668083856455  0.6300552618021983  0.2677938563053885  1.0000
  C   C3        1.0  0.3623714457844968  0.3622604334237706  0.732205448993099  1.0000
  C   C4        1.0  0.6378944072472166  0.37028321622110366  0.9999994039619722  1.0000
  C   C5        1.0  0.3698353563970258  0.9998896723150569  0.6376293309210013  1.0000
  C   C6        1.0  0.3621066340137844  0.73239011504171  0.3621043173967919  1.0000
  C   C7        1.0  0.630113938426689  0.2678550175714349  0.630113938426689  1.0000
  C   C8        1.0  0.6376291778111707  0.9998908269487006  0.3698321144645432  1.0000
  C   C9        1.0  0.7322075388686003  0.3622621577066171  0.3623719912486651  1.0000
  C   C10       1.0  3.016115925250099e-07  0.637739937980818  0.36988681480536906  1.0000
  C   C11       1.0  2.114464457732815e-06  0.3702857713975761  0.637896503151218  1.0000
  C   C12       1.0  0.2677973049551455  0.6300576832747495  0.6301671682127505  1.0000
  C   C13       1.0  0.21163419201420916  0.5967184169806643  0.9458944421644161  1.0000
  C   C14       1.0  0.788320343733453  0.7342105970923924  0.38483052885253227  1.0000
  C   C15       1.0  0.3486752609381086  0.4037226497457739  0.6146128530451378  1.0000
  C   C16       1.0  0.650711203690058  0.2644873711540612  0.05408811893681083  1.0000
  C   C17       1.0  0.2659415675234129  0.055051364367066875  0.6513208429597981  1.0000
  C   C18       1.0  0.40338300591476883  0.6137810003139778  0.34928922692575526  1.0000
  C   C19       1.0  0.7342656787900239  0.3850909522662533  0.7883687242470074  1.0000
  C   C20       1.0  0.5965181050707571  0.9458943827680529  0.21167937359937378  1.0000
  C   C21       1.0  0.6151737977217238  0.3493847506692518  0.4034913755875421  1.0000
  C   C22       1.0  0.054104443210810885  0.6508234541342901  0.2657358997711441  1.0000
  C   C23       1.0  0.9459162098776589  0.21040151020962128  0.5966244217504268  1.0000
  C   C24       1.0  0.3853927874657259  0.7891122365252842  0.7340614056218725  1.0000
  C   C25       1.0  0.21168218953803122  0.9458934296148201  0.5965077935131191  1.0000
  C   C26       1.0  0.7883682269547876  0.38508839924974597  0.7342644092921375  1.0000
  C   C27       1.0  0.3492924544025868  0.6137772986485643  0.4033761947179642  1.0000
  C   C28       1.0  0.6513315315736748  0.05505167877976187  0.26593835643533476  1.0000
  C   C29       1.0  0.2657373324307741  0.650822497455039  0.05410278704778188  1.0000
  C   C30       1.0  0.4034906401741624  0.3493811760251688  0.6151707456913442  1.0000
  C   C31       1.0  0.7340634826472154  0.7891102603773563  0.3853886868457508  1.0000
  C   C32       1.0  0.5966226928779224  0.2103984491822076  0.9459106199768287  1.0000
  C   C33       1.0  0.6146198038813324  0.40372954021564317  0.3486783507459847  1.0000
  C   C34       1.0  0.054093206917961774  0.2644913872191239  0.6507108862315576  1.0000
  C   C35       1.0  0.9458978622406704  0.5967218053512938  0.21163220665081184  1.0000
  C   C36       1.0  0.38483830294094185  0.7342139086998857  0.7883203957652184  1.0000
  N   N1        1.0  0.2786875700437862  0.5890806897586246  0.9125579950139411  1.0000
  N   N2        1.0  0.7214025836156778  0.6333450991797349  0.3098385863089702  1.0000
  N   N3        1.0  0.3229123403811655  0.4111525678284593  0.6891710313641255  1.0000
  N   N4        1.0  0.6765922918897972  0.36592617094267865  0.08741326974028844  1.0000
  N   N5        1.0  0.3662632831987906  0.08824372711117691  0.6770861017482019  1.0000
  N   N6        1.0  0.4108254573103451  0.6893384406378615  0.32340868729032485  1.0000
  N   N7        1.0  0.6338763122663665  0.3103980548302587  0.7213147040449853  1.0000
  N   N8        1.0  0.5884408234250033  0.9119447565263742  0.2785948450409137  1.0000
  N   N9        1.0  0.6901619450681905  0.3235069569068542  0.4115640410951683  1.0000
  N   N10       1.0  0.08743976295102135  0.6765191385655243  0.3661256983697783  1.0000
  N   N11       1.0  0.9125892988527723  0.27851414825760656  0.589181844592467  1.0000
  N   N12       1.0  0.31083062091772734  0.7219834703718534  0.6337400025245685  1.0000
  N   N13       1.0  0.2785980290107659  0.9119437332467301  0.5884370575438709  1.0000
  N   N14       1.0  0.7213139451141332  0.3103953101407414  0.6338755533355142  1.0000
  N   N15       1.0  0.3234089082136861  0.6893327614465858  0.41081872838272193  1.0000
  N   N16       1.0  0.6770899550053004  0.0882430270667812  0.3662586421935857  1.0000
  N   N17       1.0  0.3661259327318546  0.6765205465228872  0.08743845290177177  1.0000
  N   N18       1.0  0.4115639087349121  0.32350638063712717  0.6901618127079344  1.0000
  N   N19       1.0  0.6337416245117282  0.721981939096267  0.3108291540822351  1.0000
  N   N20       1.0  0.5891788174510779  0.2785128115616756  0.9125854995057239  1.0000
  N   N21       1.0  0.689177012921995  0.41115735285318783  0.32291446091072373  1.0000
  N   N22       1.0  0.08741679522865552  0.36593038020984636  0.6765919563498457  1.0000
  N   N23       1.0  0.9125617167367964  0.5890825439269209  0.2786858863269899  1.0000
  N   N24       1.0  0.3098460026960482  0.6333488563227334  0.7214045945631113  1.0000
  N   N25       1.0  0.4626925265400672  0.6495399513673092  1.9995205450644782e-08  1.0000
  N   N26       1.0  0.5373975055346633  0.5370496583781234  0.18677829587052489  1.0000
  N   N27       1.0  0.35061877237243516  0.3502712302093229  0.8132224752659027  1.0000
  N   N28       1.0  0.6497747484189134  0.4642459701597233  0.9999999755870874  1.0000
  N   N29       1.0  0.4626027273074057  0.9996506612284151  0.649381516768308  1.0000
  N   N30       1.0  0.3502267868603184  0.8144727969019457  0.3502260146546519  1.0000
  N   N31       1.0  0.5373089578782952  0.18684868514726818  0.5373089578782952  1.0000
  N   N32       1.0  0.6493823003692398  0.9996524515854832  0.4626011942913451  1.0000
  N   N33       1.0  0.813221609460733  0.35026995708720676  0.3506179065672652  1.0000
  N   N34       1.0  0.9999995497426182  0.6495390552868302  0.4626920562874799  1.0000
  N   N35       1.0  2.710748106235226e-07  0.4642471162787346  0.64977427170097  1.0000
  N   N36       1.0  0.18677933946645447  0.5370503569304077  0.537398549130593  1.0000
  O   O1        1.0  0.5440619559967317  0.6978475995662168  0.08528144334715648  1.0000
  O   O2        1.0  0.455944313446814  0.5415709643190852  0.15430070362879184  1.0000
  O   O3        1.0  0.3882027285160775  0.30183089934755714  0.8470372955621529  1.0000
  O   O4        1.0  0.6128111088400204  0.46079169449116375  0.9147172685838998  1.0000
  O   O5        1.0  0.45883220387820955  0.9136261606777296  0.6117984239169444  1.0000
  O   O6        1.0  0.30190684237418003  0.8479788993394592  0.38718923593810933  1.0000
  O   O7        1.0  0.5412191434586191  0.15378529890362805  0.4559382943060227  1.0000
  O   O8        1.0  0.6983568965183693  0.08562752695478087  0.5440555328860839  1.0000
  O   O9        1.0  0.845699150549045  0.38726669441837913  0.3016408775695254  1.0000
  O   O10       1.0  0.9147183854266387  0.6125660502120313  0.45877958962164195  1.0000
  O   O11       1.0  0.08528175730273084  0.5460759259389221  0.6980918171907717  1.0000
  O   O12       1.0  0.1529663686275029  0.4547963097009245  0.5411703723838457  1.0000
  O   O13       1.0  0.5440577696449225  0.0856257978079212  0.6983583610715555  1.0000
  O   O14       1.0  0.45593930066608834  0.15378721198973014  0.5412209220243511  1.0000
  O   O15       1.0  0.3871911872256319  0.8479843255355065  0.3019087936617098  1.0000
  O   O16       1.0  0.6117998630450856  0.9136268651673093  0.45882978197802515  1.0000
  O   O17       1.0  0.4587811187959758  0.6125660460614739  0.9147183701896466  1.0000
  O   O18       1.0  0.30164250804153886  0.38726962785479213  0.8456992366097255  1.0000
  O   O19       1.0  0.5411651644596986  0.4547942750429712  0.15296424952600773  1.0000
  O   O20       1.0  0.6980935662058556  0.5460739467495445  0.08528273411214828  1.0000
  O   O21       1.0  0.847034664255581  0.30182854148443283  0.38820241382649806  1.0000
  O   O22       1.0  0.9147170203694444  0.4607897165896376  0.6128108606255652  1.0000
  O   O23       1.0  0.0852801370268921  0.6978467036324075  0.5440621940878003  1.0000
  O   O24       1.0  0.15430133365288867  0.5415710259465315  0.4559441712652442  1.0000
