data_image0
_chemical_formula_structural       Tb2H40C52O19
_chemical_formula_sum              "Tb2 H40 C52 O19"
_cell_length_a       7.030941308838649
_cell_length_b       14.582520140640812
_cell_length_c       16.7109
_cell_angle_alpha    104.01056130647194
_cell_angle_beta     102.2686902725261
_cell_angle_gamma    89.96902537384027

_space_group_name_H-M_alt    "P 1"
_space_group_IT_number       1

loop_
  _space_group_symop_operation_xyz
  'x, y, z'

loop_
  _atom_site_type_symbol
  _atom_site_label
  _atom_site_symmetry_multiplicity
  _atom_site_fract_x
  _atom_site_fract_y
  _atom_site_fract_z
  _atom_site_occupancy
  Tb  Tb1       1.0  0.0032989571558062003  0.028729576036987208  0.4972124076281403  1.0000
  Tb  Tb2       1.0  0.5062092487207649  0.9708055700797829  0.5027863115737716  1.0000
  H   H1        1.0  0.19961891721311528  0.4651947594019532  0.8926666046981637  1.0000
  H   H2        1.0  0.30678857840747753  0.5354948074715651  0.10768715198850744  1.0000
  H   H3        1.0  0.3035072720244046  0.5715975294454125  0.9696949446185315  1.0000
  H   H4        1.0  0.3342341223630995  0.429160693966054  0.030789373508390828  1.0000
  H   H5        1.0  0.7758685345155882  0.5003108090674573  0.8923638569105421  1.0000
  H   H6        1.0  0.8831143144187623  0.4999526625911202  0.1075076339169598  1.0000
  H   H7        1.0  0.7242216752225445  0.5753920418163005  0.8203011147564823  1.0000
  H   H8        1.0  0.9042734982677416  0.42451399116529853  0.17926566316251777  1.0000
  H   H9        1.0  0.2627306708938946  0.6614781390200122  0.8686456730931695  1.0000
  H   H10       1.0  0.3946316821835438  0.3389552044850532  0.1315057919042886  1.0000
  H   H11       1.0  0.1616252943284451  0.5585506638359092  0.7865234857532286  1.0000
  H   H12       1.0  0.3760519718025961  0.4418819718697976  0.21358441468488823  1.0000
  H   H13       1.0  0.8853361187063841  0.7214096342597218  0.9243158139848547  1.0000
  H   H14       1.0  0.9619256808894292  0.27887436358031453  0.07539893080665651  1.0000
  H   H15       1.0  0.8761973933584032  0.6456184787524395  0.9939320666185195  1.0000
  H   H16       1.0  0.8823504576403138  0.3544977706391848  0.005653104028816368  1.0000
  H   H17       1.0  0.3523202739117367  0.6471607735586602  0.74532824321129  1.0000
  H   H18       1.0  0.6079894769986964  0.352943443243838  0.2550438321653701  1.0000
  H   H19       1.0  0.4805352129722351  0.7322156070943253  0.6548124978687966  1.0000
  H   H20       1.0  0.8265099989400684  0.2673358184077301  0.3455337572075692  1.0000
  H   H21       1.0  0.9604381340407429  0.8873871686652708  0.6273156360530551  1.0000
  H   H22       1.0  0.3327514932361311  0.1127658862930971  0.3722558600259802  1.0000
  H   H23       1.0  0.8280484546827225  0.8028299180799368  0.7182382664533264  1.0000
  H   H24       1.0  0.1096707373526868  0.19775418668888287  0.2811430059566788  1.0000
  H   H25       1.0  0.4294798707045473  0.7830547117508573  0.1376677075636366  1.0000
  H   H26       1.0  0.29257482028643983  0.2177473952209539  0.8625864140462483  1.0000
  H   H27       1.0  0.4093402701141216  0.8818783662435907  0.27993421108418204  1.0000
  H   H28       1.0  0.1299367451938949  0.11860806221350373  0.7202724283377862  1.0000
  H   H29       1.0  0.7881455206655446  0.8845127954628469  0.1976917631157775  1.0000
  H   H30       1.0  0.5916066331103025  0.11472719832065081  0.8021289856028346  1.0000
  H   H31       1.0  0.8047840116121705  0.787737512318998  0.0553169959609079  1.0000
  H   H32       1.0  0.7506834651493077  0.2119222064851982  0.9444857580290531  1.0000
  H   H33       1.0  0.5043460937206632  0.442234455951251  0.8072425812946877  1.0000
  H   H34       1.0  0.6965770625198644  0.5573070603597614  0.19270114363243349  1.0000
  H   H35       1.0  0.2548457771774295  0.3175768326047645  0.7200736027811916  1.0000
  H   H36       1.0  0.5338540268345399  0.681627771210721  0.2797012653871178  1.0000
  H   H37       1.0  0.6551622903336921  0.2032927166836984  0.5645337926305061  1.0000
  H   H38       1.0  0.09012083327129972  0.7964929904066411  0.4356925687729074  1.0000
  H   H39       1.0  0.9098165364031062  0.3246059880524897  0.6524234503268572  1.0000
  H   H40       1.0  0.25728307785064425  0.6755145081352936  0.3480624351201556  1.0000
  C   C1        1.0  0.023320138228662295  0.5879880392332595  0.8931635853103758  1.0000
  C   C2        1.0  0.13043019596103994  0.4124983892238348  0.10677759037685772  1.0000
  C   C3        1.0  0.1669426275568711  0.5283955798871603  0.9385825416562028  1.0000
  C   C4        1.0  0.2284336976750296  0.47224798002793034  0.061624691211918  1.0000
  C   C5        1.0  0.8330278730992619  0.5299626476709989  0.8468937097155091  1.0000
  C   C6        1.0  0.9861776092079638  0.470232875248989  0.15296047124321888  1.0000
  C   C7        1.0  0.1265028925612626  0.620611927350943  0.8325107683497635  1.0000
  C   C8        1.0  0.2946597518932919  0.37986246851702543  0.1675264453623058  1.0000
  C   C9        1.0  0.9674375399525914  0.6720158558970369  0.9573811729376303  1.0000
  C   C10       1.0  0.010558281681696308  0.3283382140796648  0.0424161856586878  1.0000
  C   C11       1.0  0.0825355692499485  0.7213374387249588  0.7386747627639779  1.0000
  C   C12       1.0  0.3443633023278423  0.2790053064619755  0.26125206942673884  1.0000
  C   C13       1.0  0.2663470586666534  0.7002789921555532  0.7207569961993412  1.0000
  C   C14       1.0  0.5463247409248666  0.2998160232552678  0.2794151518173251  1.0000
  C   C15       1.0  0.3387085885382888  0.7476682827296914  0.6699037652740145  1.0000
  C   C16       1.0  0.6693709497778216  0.2521542299273848  0.3302759752536489  1.0000
  C   C17       1.0  0.23079990727774907  0.8160105577685499  0.636917347301832  1.0000
  C   C18       1.0  0.5939805527137667  0.18384876045526252  0.3630201532409956  1.0000
  C   C19       1.0  0.045617165725417394  0.8353695780737382  0.6540375242684178  1.0000
  C   C20       1.0  0.39146390713190016  0.16475658050892864  0.3456767563557791  1.0000
  C   C21       1.0  0.9712122326717034  0.7881890883109008  0.7043811603785812  1.0000
  C   C22       1.0  0.2669082207276361  0.21218055325172716  0.2952794120854989  1.0000
  C   C23       1.0  0.1190896825500616  0.7774277068360007  0.08856656649901137  1.0000
  C   C24       1.0  0.0314280037353001  0.2228619533989118  0.9114647051251837  1.0000
  C   C25       1.0  0.289873587289854  0.8065168449480495  0.1512751651109099  1.0000
  C   C26       1.0  0.1394041950610827  0.193975953703287  0.8488942612095869  1.0000
  C   C27       1.0  0.2783605192408984  0.8618710017243174  0.23016100456758443  1.0000
  C   C28       1.0  0.0489867759148623  0.1383981323291508  0.7699899380917615  1.0000
  C   C29       1.0  0.09679998800078951  0.8887673774179703  0.24766487940426174  1.0000
  C   C30       1.0  0.8500054657624077  0.11107424582183263  0.752347361031859  1.0000
  C   C31       1.0  0.9279578911875248  0.8620720167426585  0.18370034863745846  1.0000
  C   C32       1.0  0.7452759751091095  0.13751975332294114  0.8161909095867657  1.0000
  C   C33       1.0  0.9375817218082789  0.8070604348568082  0.10424822158250178  1.0000
  C   C34       1.0  0.8343822426132377  0.19275783100410857  0.8956356960851083  1.0000
  C   C35       1.0  0.0756957959949247  0.9400085121111845  0.33289565585908326  1.0000
  C   C36       1.0  0.7434332131236019  0.05964342090004491  0.667101942522919  1.0000
  C   C37       1.0  0.7238864050456472  0.3914923198070924  0.7351275058498247  1.0000
  C   C38       1.0  0.9884780343237908  0.6083514268307938  0.2650296040411106  1.0000
  C   C39       1.0  0.5388215536586927  0.3902239433533268  0.7542004422617623  1.0000
  C   C40       1.0  0.7841144365959423  0.609374196906515  0.24581528250115534  1.0000
  C   C41       1.0  0.39788921631950563  0.3204873035745593  0.7050366682337029  1.0000
  C   C42       1.0  0.6921238589663546  0.6789317634471104  0.29490241863101835  1.0000
  C   C43       1.0  0.4380312472638437  0.25252440899285494  0.636478741835262  1.0000
  C   C44       1.0  0.80085098348291  0.7469944577386302  0.3635381564282554  1.0000
  C   C45       1.0  0.6229879294977891  0.2557894874421933  0.6176522089368106  1.0000
  C   C46       1.0  0.004845763117117508  0.7439162383204236  0.3825264176606211  1.0000
  C   C47       1.0  0.7655185867082963  0.3239215460710199  0.6664505384905013  1.0000
  C   C48       1.0  0.09879769012918162  0.6759582983342441  0.3338352947926424  1.0000
  C   C49       1.0  0.2895373457648418  0.17685004038003174  0.5872341735722912  1.0000
  C   C50       1.0  0.7015392783420396  0.8225824748294883  0.41273133156570907  1.0000
  C   C51       1.0  0.3168266544330791  0.866039232157469  0.5855629286151257  1.0000
  C   C52       1.0  0.7312195025468429  0.1335928824716675  0.4144169386556413  1.0000
  O   O1        1.0  0.225869125203829  0.9619205647091889  0.3956849507245082  1.0000
  O   O2        1.0  0.8303571536266006  0.0378700969766683  0.6043350850448519  1.0000
  O   O3        1.0  0.9083486855601706  0.9612432007213274  0.3458484484960493  1.0000
  O   O4        1.0  0.5631731915951335  0.0381043785649453  0.6540966728936864  1.0000
  O   O5        1.0  0.4820560283457098  0.8456574417765594  0.5692397071515104  1.0000
  O   O6        1.0  0.9130051330446776  0.1537517160540602  0.4308078184717488  1.0000
  O   O7        1.0  0.22355736889880976  0.9327203020975647  0.5566168200168918  1.0000
  O   O8        1.0  0.6667421927765034  0.06699462505673642  0.4432948919692166  1.0000
  O   O9        1.0  0.3306778091717462  0.11046624617128492  0.5268958299349364  1.0000
  O   O10       1.0  0.8032784494206666  0.8891184459007064  0.4730359588283193  1.0000
  O   O11       1.0  0.1212568793173219  0.17496941747955935  0.6031274614665351  1.0000
  O   O12       1.0  0.5172005997121829  0.8243010116764395  0.3968689894237869  1.0000
  O   O13       1.0  0.0023306674591836106  0.6793493650697259  0.789521427737867  1.0000
  O   O14       1.0  0.21334736163477433  0.3211844859445137  0.210340787212175  1.0000
  O   O15       1.0  0.8732713520339673  0.45569042959104433  0.7804575653053619  1.0000
  O   O16       1.0  0.09272299600821299  0.54444705378139  0.21968475092849354  1.0000
  O   O17       1.0  0.14124638206263282  0.7191191955295937  0.013832624853655858  1.0000
  O   O18       1.0  0.1281955608943406  0.281411824287197  0.9862136603820774  1.0000
  O   O19       1.0  0.0837558231130799  0.5002598475135116  0.9999672227897848  1.0000
