data_image0
_chemical_formula_structural       Zn2H38C52N14O12
_chemical_formula_sum              "Zn2 H38 C52 N14 O12"
_cell_length_a       14.18818963437244
_cell_length_b       15.256611340534878
_cell_length_c       23.60361325048262
_cell_angle_alpha    89.22598524501961
_cell_angle_beta     89.81466719887908
_cell_angle_gamma    90.25554087587723

_space_group_name_H-M_alt    "P 1"
_space_group_IT_number       1

loop_
  _space_group_symop_operation_xyz
  'x, y, z'

loop_
  _atom_site_type_symbol
  _atom_site_label
  _atom_site_symmetry_multiplicity
  _atom_site_fract_x
  _atom_site_fract_y
  _atom_site_fract_z
  _atom_site_occupancy
  Zn  Zn1       1.0  0.38950512357227746  0.5001327116510765  0.49985225213185897  1.0000
  Zn  Zn2       1.0  0.5970223544562501  0.5005126159223396  0.5001236790827689  1.0000
  H   H1        1.0  0.557967913410934  0.7190827789343999  0.039559822571980895  1.0000
  H   H2        1.0  0.6566952798024558  0.06371256998860991  0.4548329229512119  1.0000
  H   H3        1.0  0.39019195761007097  0.054085278197661124  0.5419890434603047  1.0000
  H   H4        1.0  0.6554918144741817  0.938640458456206  0.5473712637681769  1.0000
  H   H5        1.0  0.9275192399234127  0.5271912774513012  0.5904866766191502  1.0000
  H   H6        1.0  0.05781861467859529  0.3814661193170893  0.4519402209385318  1.0000
  H   H7        1.0  0.9288690439510672  0.4719974451933951  0.41178560575223583  1.0000
  H   H8        1.0  0.0587449532703843  0.6180255196624602  0.5500275489403207  1.0000
  H   H9        1.0  0.672843242029586  0.5078112489597616  0.6001360113216092  1.0000
  H   H10       1.0  0.7775109890627545  0.531458740551635  0.6341435387031353  1.0000
  H   H11       1.0  0.3125043847911114  0.36165373482915447  0.45745837005315326  1.0000
  H   H12       1.0  0.4381718892631311  0.2800893915021377  0.9598687119583571  1.0000
  H   H13       1.0  0.20708614356436064  0.3184351633109799  0.43503665204605807  1.0000
  H   H14       1.0  0.674796381968825  0.4904574777044745  0.4011825445606405  1.0000
  H   H15       1.0  0.78002405021099  0.4669690451549898  0.36772062797295735  1.0000
  H   H16       1.0  0.2084004843455247  0.6821050313999351  0.5652300837744306  1.0000
  H   H17       1.0  0.31353472065443105  0.6391780300319996  0.5423621453863418  1.0000
  H   H18       1.0  0.5818531293049672  0.7802108921895369  0.9459757145151071  1.0000
  H   H19       1.0  0.5668886090492009  0.7156631488445628  0.884297624522702  1.0000
  H   H20       1.0  0.43824396157837237  0.28110618772583257  0.11507423398753497  1.0000
  H   H21       1.0  0.4208425749867287  0.21743433685227845  0.05324787836239149  1.0000
  H   H22       1.0  0.35326180264923573  0.5342701827241214  0.6795759414126649  1.0000
  H   H23       1.0  0.35825399196469476  0.5385540915347705  0.7859794883490634  1.0000
  H   H24       1.0  0.6318385795483932  0.5805359361521598  0.3212624117103147  1.0000
  H   H25       1.0  0.3608412221378572  0.712492028836117  0.4548392641794478  1.0000
  H   H26       1.0  0.3276803201806473  0.81453804441356  0.42834837334422093  1.0000
  H   H27       1.0  0.7191773259076298  0.19980247134542853  0.4286177260578511  1.0000
  H   H28       1.0  0.662133944008147  0.2995059730452567  0.4412448935315466  1.0000
  H   H29       1.0  0.35833205481094405  0.286987125807734  0.5442993512977379  1.0000
  H   H30       1.0  0.3242419385091039  0.18479449996358716  0.5708307980815802  1.0000
  H   H31       1.0  0.6614954828586617  0.7025712498020555  0.5597916921554071  1.0000
  H   H32       1.0  0.7180792940804606  0.8025645458488031  0.5732510267154538  1.0000
  H   H33       1.0  0.6364270083985629  0.5757937253126642  0.21546817567801915  1.0000
  H   H34       1.0  0.6175397708294385  0.3987121018301637  0.6779299700260778  1.0000
  H   H35       1.0  0.34383235790337346  0.4936877536958023  0.32029896117803247  1.0000
  H   H36       1.0  0.6218784999045397  0.40101915660912374  0.7841841168721898  1.0000
  H   H37       1.0  0.3469694478705917  0.4909084015418659  0.21420244022242224  1.0000
  H   H38       1.0  0.3920462989291521  0.9455074758586123  0.4579173482806595  1.0000
  C   C1        1.0  0.5044141219793943  0.6702143432084711  0.5136647077160532  1.0000
  C   C2        1.0  0.40730496079050466  0.5119014508418332  0.29681258069597755  1.0000
  C   C3        1.0  0.5637800960696636  0.43079509052459036  0.7609156005101738  1.0000
  C   C4        1.0  0.4091917749583017  0.5102970604470016  0.2379440081355568  1.0000
  C   C5        1.0  0.4910440950993972  0.4712411542845203  0.7904474109910989  1.0000
  C   C6        1.0  0.4925376853615759  0.5311274687005466  0.20907039419247295  1.0000
  C   C7        1.0  0.4468994355835392  0.9079586669404237  0.4793697524736799  1.0000
  C   C8        1.0  0.5965028553751566  0.09732070991199751  0.473345391073529  1.0000
  C   C9        1.0  0.4457774990316209  0.0922424828633623  0.5211050423859617  1.0000
  C   C10       1.0  0.5959549829038052  0.9044169784460511  0.528440214996415  1.0000
  C   C11       1.0  0.4387408137553307  0.816458061127797  0.4827540129741548  1.0000
  C   C12       1.0  0.5034347896970388  0.33045070651337494  0.4865537420942444  1.0000
  C   C13       1.0  0.5903334548334626  0.18920926547880876  0.4676397790995849  1.0000
  C   C14       1.0  0.4373565994265362  0.183650629444692  0.5174427561874069  1.0000
  C   C15       1.0  0.5901463309338482  0.8123921380675513  0.5336654611129319  1.0000
  C   C16       1.0  0.5105028700085936  0.7661687760316415  0.5107721814461853  1.0000
  C   C17       1.0  0.5097535852525111  0.23461899924768664  0.489818610401535  1.0000
  C   C18       1.0  0.5242203020943775  0.9519065759702062  0.5021597150663267  1.0000
  C   C19       1.0  0.5240963267282693  0.049114090716983624  0.49911961985949177  1.0000
  C   C20       1.0  0.48501849742335407  0.4726432019337921  0.6092491638455968  1.0000
  C   C21       1.0  0.48696310488712397  0.5290655435596323  0.39059484934134037  1.0000
  C   C22       1.0  0.8908986058269263  0.5164996852983562  0.5506874424880903  1.0000
  C   C23       1.0  0.414462620682059  0.5077206980465405  0.7619014004703287  1.0000
  C   C24       1.0  0.09487570303789279  0.4345687686483899  0.4728682220972685  1.0000
  C   C25       1.0  0.8916558873745756  0.4827735288775302  0.45149769982046445  1.0000
  C   C26       1.0  0.09545457038141338  0.5650550126358312  0.528903878344927  1.0000
  C   C27       1.0  0.7918823578849511  0.5150023468307128  0.5495144693782023  1.0000
  C   C28       1.0  0.19395847236911828  0.4356033542868263  0.4737925802304445  1.0000
  C   C29       1.0  0.792703188801596  0.4841820391135343  0.4523348221156737  1.0000
  C   C30       1.0  0.19453993620870588  0.5645051849513864  0.527201212196715  1.0000
  C   C31       1.0  0.9411121578927178  0.4996936257765797  0.5011574042679569  1.0000
  C   C32       1.0  0.04543731295569128  0.49971471627402764  0.5010630907818052  1.0000
  C   C33       1.0  0.4777962259757301  0.4384797442163163  0.12627963939355877  1.0000
  C   C34       1.0  0.5726884582712585  0.557385128467253  0.2386067875823628  1.0000
  C   C35       1.0  0.5207606528787565  0.5602137548563918  0.8731475408594701  1.0000
  C   C36       1.0  0.5176044000052824  0.5981556015019721  0.11548334105277998  1.0000
  C   C37       1.0  0.4730725459532151  0.4024069585888271  0.8838132421780428  1.0000
  C   C38       1.0  0.5197144264694555  0.58573692677367  0.05337588151009949  1.0000
  C   C39       1.0  0.4760731434152062  0.4135079246069184  0.9460524847461823  1.0000
  C   C40       1.0  0.4982954063067807  0.5028414668706988  0.029671456400222996  1.0000
  C   C41       1.0  0.49892449028070723  0.4961419903572948  0.9697329488485804  1.0000
  C   C42       1.0  0.477220622122914  0.4294541132186824  0.06493617036061747  1.0000
  C   C43       1.0  0.5214672616417813  0.5692229328718884  0.9345099677703032  1.0000
  C   C44       1.0  0.5419905848052265  0.6569673159255985  0.0191952323049236  1.0000
  C   C45       1.0  0.4117846597384441  0.505668749207942  0.703044664386425  1.0000
  C   C46       1.0  0.4552946149376708  0.34194693072800675  0.9802384304851512  1.0000
  C   C47       1.0  0.5442006834090164  0.6511579770492517  0.9592193058751091  1.0000
  C   C48       1.0  0.45592039001105883  0.347095384420534  0.0402615440951095  1.0000
  C   C49       1.0  0.5700701386686472  0.5597172413169886  0.29756414077585447  1.0000
  C   C50       1.0  0.48598584608670575  0.4680404205919545  0.6726617532786462  1.0000
  C   C51       1.0  0.48822832854091996  0.5350077479476809  0.3271673613081844  1.0000
  C   C52       1.0  0.5612665681359345  0.4295780886449734  0.7019373237927976  1.0000
  N   N1        1.0  0.49572261939835716  0.5229132192045399  0.1483149484258846  1.0000
  N   N2        1.0  0.43598616413864016  0.27486395280792675  0.07204982374886978  1.0000
  N   N3        1.0  0.36016484042136904  0.7787164970415648  0.458875370065769  1.0000
  N   N4        1.0  0.6600633483222322  0.2329629645373999  0.43861007936285284  1.0000
  N   N5        1.0  0.3579277340911274  0.22070922863989753  0.540559266908147  1.0000
  N   N6        1.0  0.6591792030661523  0.7690346925427677  0.5629194436533423  1.0000
  N   N7        1.0  0.4953430483465552  0.47765431648934975  0.851371466921044  1.0000
  N   N8        1.0  0.7432796397748546  0.49975027668872235  0.5008025936950204  1.0000
  N   N9        1.0  0.24330579380964673  0.5001684736291169  0.500297403889526  1.0000
  N   N10       1.0  0.7410154479753073  0.5308375772400425  0.597399053931518  1.0000
  N   N11       1.0  0.24353454691287615  0.37226470963087616  0.44684731564579033  1.0000
  N   N12       1.0  0.7427446639762322  0.46774816890899024  0.40430833670746574  1.0000
  N   N13       1.0  0.24463206595204667  0.6282826703739133  0.5535969802071106  1.0000
  N   N14       1.0  0.5670976719668557  0.7225682692857873  0.9273278790233089  1.0000
  O   O1        1.0  0.4254385634679067  0.6325532218095165  0.5010671792870978  1.0000
  O   O2        1.0  0.540781860415656  0.6208254267008473  0.8393087086298364  1.0000
  O   O3        1.0  0.533201576829782  0.6691745926596725  0.1378288893981363  1.0000
  O   O4        1.0  0.4521471050576053  0.3329567043905827  0.8609816022038996  1.0000
  O   O5        1.0  0.5761506388981487  0.37616572009645216  0.4721817981733522  1.0000
  O   O6        1.0  0.4242932296946406  0.3676955643617533  0.4989659831726953  1.0000
  O   O7        1.0  0.5769915230742769  0.6249212082761914  0.5278816224460456  1.0000
  O   O8        1.0  0.4079086834577409  0.49400054393296244  0.5859985133457783  1.0000
  O   O9        1.0  0.5643186915100386  0.5438697632115039  0.4167291964959289  1.0000
  O   O10       1.0  0.40917201062589464  0.508150674843222  0.4138462039541508  1.0000
  O   O11       1.0  0.5621286188013811  0.4561375297632751  0.5831648489501189  1.0000
  O   O12       1.0  0.4633919508464216  0.37614074670611336  0.15979395402374044  1.0000
