data_image0
_chemical_formula_structural       Sm2H28C14N20Cl2O12
_chemical_formula_sum              "Sm2 H28 C14 N20 Cl2 O12"
_cell_length_a       8.81592118930556
_cell_length_b       10.024755899518082
_cell_length_c       10.070001386184442
_cell_angle_alpha    65.34066086737496
_cell_angle_beta     85.0177068393695
_cell_angle_gamma    70.79062106606764

_space_group_name_H-M_alt    "P 1"
_space_group_IT_number       1

loop_
  _space_group_symop_operation_xyz
  'x, y, z'

loop_
  _atom_site_type_symbol
  _atom_site_label
  _atom_site_symmetry_multiplicity
  _atom_site_fract_x
  _atom_site_fract_y
  _atom_site_fract_z
  _atom_site_occupancy
  Sm  Sm1       1.0  0.1083258163928136  0.17782900982480504  0.05901196186814419  1.0000
  Sm  Sm2       1.0  0.8916744658844704  0.8221707903654764  0.9409889425847807  1.0000
  H   H1        1.0  0.21895800417554764  0.8402972078377718  0.1044216440645157  1.0000
  H   H2        1.0  0.7810422733461306  0.15970259016115315  0.8955782686249593  1.0000
  H   H3        1.0  0.3699766353864361  0.8949534618831906  0.06922582900767789  1.0000
  H   H4        1.0  0.6300236468908479  0.10504633830708344  0.9307750754452471  1.0000
  H   H5        1.0  0.8433104221819361  0.36591495444241684  0.8191758401710839  1.0000
  H   H6        1.0  0.15668871640136925  0.634084844565436  0.18082416348243396  1.0000
  H   H7        1.0  0.4949633501810453  0.8156552256048785  0.745921512856469  1.0000
  H   H8        1.0  0.5050369320962388  0.18434457458540274  0.2540793915964557  1.0000
  H   H9        1.0  0.5539470906736097  0.7125218047179089  0.6344256871184157  1.0000
  H   H10       1.0  0.44605280346103626  0.2874791554280805  0.3655747631808167  1.0000
  H   H11       1.0  0.4207282247167966  0.3198628837880477  0.7778532856772102  1.0000
  H   H12       1.0  0.5792731917432404  0.680136913201949  0.2221465360482283  1.0000
  H   H13       1.0  0.5311605428543444  0.24537616547981142  0.6575879314250129  1.0000
  H   H14       1.0  0.4688385957289609  0.7546236335280413  0.3424120722284981  1.0000
  H   H15       1.0  0.1876337783228479  0.22923271092928843  0.6091113234493974  1.0000
  H   H16       1.0  0.8123653602604647  0.7707670880785571  0.3908886802041209  1.0000
  H   H17       1.0  0.35446690345744963  0.07227207664632831  0.7187031061259788  1.0000
  H   H18       1.0  0.6455329859215836  0.927728881308305  0.2812963524098108  1.0000
  H   H19       1.0  0.1071331527586494  0.7509941262163907  0.6125183421820208  1.0000
  H   H20       1.0  0.8928667413760039  0.24900683392959877  0.38748210811721856  1.0000
  H   H21       1.0  0.29325887170487147  0.6232449323698078  0.7122444896856804  1.0000
  H   H22       1.0  0.7067402716340466  0.3767548688294013  0.2877565057312808  1.0000
  H   H23       1.0  0.5905531763461198  0.44272281611949194  0.8926836330232106  1.0000
  H   H24       1.0  0.4094459622371928  0.5572769828883608  0.10731637063030769  1.0000
  H   H25       1.0  0.7173562249025237  0.51186935569951  0.960002429829501  1.0000
  H   H26       1.0  0.28264443600617273  0.4881292801523431  0.039996945250209  1.0000
  H   H27       1.0  0.6675727631935685  0.34132838012254757  0.07849933002230353  1.0000
  H   H28       1.0  0.33242712142985903  0.658672575640722  0.9214991367500358  1.0000
  C   C1        1.0  0.1228515044777296  0.04515574302943291  0.7780517423425549  1.0000
  C   C2        1.0  0.8771487777995545  0.9548440571608482  0.22194916211036989  1.0000
  C   C3        1.0  0.23803051666870803  0.10278550917005451  0.6631131149160651  1.0000
  C   C4        1.0  0.7619697560973506  0.8972142866375068  0.33688580600995965  1.0000
  C   C5        1.0  0.3667271711538403  0.9112689315770769  0.5490175628628079  1.0000
  C   C6        1.0  0.6332731063678309  0.08873086642184802  0.4509823498266669  1.0000
  C   C7        1.0  0.09016131339730994  0.5467618121576409  0.7988576105962436  1.0000
  C   C8        1.0  0.9098378251859955  0.4532379868502049  0.20114239305726742  1.0000
  C   C9        1.0  0.1793050391557998  0.6290669466229276  0.6694430304027036  1.0000
  C   C10       1.0  0.8206941041831186  0.3709328545762817  0.3305579650142646  1.0000
  C   C11       1.0  0.3338722845290718  0.43401030991211104  0.5653138731605124  1.0000
  C   C12       1.0  0.6661276096055743  0.5659906502338715  0.43468657713872716  1.0000
  C   C13       1.0  0.6943215215285432  0.4080635006361178  0.9668063589067584  1.0000
  C   C14       1.0  0.3056787512375151  0.5919362951714507  0.03319256201926619  1.0000
  N   N1        1.0  0.23167844789124098  0.05161011957761022  0.34131378292831016  1.0000
  N   N2        1.0  0.768321446243405  0.9483908405683793  0.6586866673709293  1.0000
  N   N3        1.0  0.1798874525944072  0.13160897843699362  0.4184997212530844  1.0000
  N   N4        1.0  0.8201116859888985  0.868390820570852  0.5815002824004337  1.0000
  N   N5        1.0  0.26333465082303315  0.045608473103655504  0.5503579779114742  1.0000
  N   N6        1.0  0.736665631454251  0.9543913270866259  0.44964292654145765  1.0000
  N   N7        1.0  0.3474938163091038  0.9142970170188606  0.4163865065390623  1.0000
  N   N8        1.0  0.6525053222742088  0.08570278198899224  0.5836134971144559  1.0000
  N   N9        1.0  0.466694684002924  0.7951372426924906  0.6610894758545313  1.0000
  N   N10       1.0  0.5333055982743601  0.20486255749779053  0.3389114285983936  1.0000
  N   N11       1.0  0.21499989714654072  0.5626346986703866  0.5632070014633328  1.0000
  N   N12       1.0  0.7850003851307433  0.43736510151988744  0.4367939029895921  1.0000
  N   N13       1.0  0.1253945915820722  0.6326989766067825  0.43461341747588017  1.0000
  N   N14       1.0  0.8746045470012404  0.367300822401063  0.565386586177631  1.0000
  N   N15       1.0  0.19000791601866487  0.5498508234189433  0.36214589160398697  1.0000
  N   N16       1.0  0.8099923615030062  0.45014897457997455  0.6378540210854879  1.0000
  N   N17       1.0  0.31823301971484597  0.4260831274848514  0.43718143162281814  1.0000
  N   N18       1.0  0.6817668744198  0.5739178326611382  0.5628190186764144  1.0000
  N   N19       1.0  0.44912937915288603  0.33829892375726445  0.6724836076669688  1.0000
  N   N20       1.0  0.5508708983687851  0.6617008742416602  0.3275163050225061  1.0000
  Cl  Cl1       1.0  0.4280854057889058  0.17808126534656313  0.0467839899403302  1.0000
  Cl  Cl2       1.0  0.5719148717327655  0.8219185326523545  0.9532159227491445  1.0000
  O   O1        1.0  0.0707106813641971  0.9417515949104995  0.7781123686241357  1.0000
  O   O2        1.0  0.929289600913087  0.05824820527978153  0.22188853582879622  1.0000
  O   O3        1.0  0.08887080628503698  0.10796546041208191  0.8675146255545126  1.0000
  O   O4        1.0  0.911131003073244  0.8920331788135628  0.13248664208806088  1.0000
  O   O5        1.0  0.12078616106066413  0.4028580061767288  0.8392286248666563  1.0000
  O   O6        1.0  0.8792141164610073  0.5971417918221887  0.16077128782282557  1.0000
  O   O7        1.0  0.9966802180902402  0.6299869340653148  0.8577311650100937  1.0000
  O   O8        1.0  0.0033196712887927607  0.37001402388931137  0.14226829352569575  1.0000
  O   O9        1.0  0.2713397954619195  0.9042616915160552  0.12447400252842289  1.0000
  O   O10       1.0  0.7286608702023898  0.09573694652715403  0.8755263643147443  1.0000
  O   O11       1.0  0.8330131437103887  0.3087006175123578  0.9283414834914365  1.0000
  O   O12       1.0  0.16698638301556187  0.6912980215397868  0.07165897431576686  1.0000
