data_image0
_chemical_formula_structural       Zr6H40C108N12O56
_chemical_formula_sum              "Zr6 H40 C108 N12 O56"
_cell_length_a       19.003097111219795
_cell_length_b       19.003104498119814
_cell_length_c       19.003109506697403
_cell_angle_alpha    59.99989995838852
_cell_angle_beta     59.999898851595944
_cell_angle_gamma    59.99994945660559

_space_group_name_H-M_alt    "P 1"
_space_group_IT_number       1

loop_
  _space_group_symop_operation_xyz
  'x, y, z'

loop_
  _atom_site_type_symbol
  _atom_site_label
  _atom_site_symmetry_multiplicity
  _atom_site_fract_x
  _atom_site_fract_y
  _atom_site_fract_z
  _atom_site_occupancy
  Zr  Zr1       1.0  0.9069968709977875  0.4070006301875818  0.5930030922554793  1.0000
  Zr  Zr2       1.0  0.09299681640786876  0.5930036792823045  0.40700038508844466  1.0000
  Zr  Zr3       1.0  0.09299880553762563  0.4069990797884556  0.593000995754352  1.0000
  Zr  Zr4       1.0  0.9070033157915351  0.5930020865368629  0.4069978353112021  1.0000
  Zr  Zr5       1.0  0.9070042926782308  0.5929998730182432  0.5929956550552689  1.0000
  Zr  Zr6       1.0  0.0930044614724537  0.4070005589028938  0.4069979220932892  1.0000
  H   H1        1.0  0.926761221632525  0.42676073311746854  0.719717550662935  1.0000
  H   H2        1.0  0.9267616016985447  0.7197176750957722  0.4267603328984748  1.0000
  H   H3        1.0  0.21971802159297477  0.42676090531981714  0.42676041314847163  1.0000
  H   H4        1.0  0.9267610522800784  0.42676061577956387  0.42676123131312954  1.0000
  H   H5        1.0  0.32234456345710083  0.38509090681879604  0.17696445806335961  1.0000
  H   H6        1.0  0.43456959960280295  0.32179392917608135  0.06192526431512851  1.0000
  H   H7        1.0  0.31869469746008877  0.6109257825025408  0.18022768439237072  1.0000
  H   H8        1.0  0.6769637368794228  0.6156025292756908  0.8223418011453846  1.0000
  H   H9        1.0  0.5619246566637136  0.6817140227505477  0.9345666499966044  1.0000
  H   H10       1.0  0.6802288853062421  0.39015228480425157  0.8186938965701174  1.0000
  H   H11       1.0  0.8850924430989483  0.8223439678325876  0.6155991635240313  1.0000
  H   H12       1.0  0.821794829884823  0.9345683390549269  0.6817124855018124  1.0000
  H   H13       1.0  0.11092617572939664  0.8186960407599739  0.3901500647527171  1.0000
  H   H14       1.0  0.11560119462530591  0.17696472904813734  0.38509281017985586  1.0000
  H   H15       1.0  0.18171371881783935  0.06192565644094124  0.32179508523385886  1.0000
  H   H16       1.0  0.8901507864262614  0.1802287366913972  0.6109253350626742  1.0000
  H   H17       1.0  0.3223445985150521  0.17696475212019883  0.6155998937725541  1.0000
  H   H18       1.0  0.4345678165880359  0.06192487529189349  0.6817132408220701  1.0000
  H   H19       1.0  0.31869571138674513  0.18022951899090606  0.3901510907105745  1.0000
  H   H20       1.0  0.6769655055584851  0.8223443973645602  0.38509142580391403  1.0000
  H   H21       1.0  0.5619255528908912  0.9345685937482457  0.3217946851630345  1.0000
  H   H22       1.0  0.6802288838859384  0.81869517438453  0.6109254288977015  1.0000
  H   H23       1.0  0.11560046789799132  0.3850921414846554  0.8223438959314536  1.0000
  H   H24       1.0  0.18171307381618368  0.3217952208500633  0.9345676606250422  1.0000
  H   H25       1.0  0.8901513935692055  0.6109254946497485  0.8186948828507495  1.0000
  H   H26       1.0  0.8850917143455208  0.6156001378013016  0.17696466234622246  1.0000
  H   H27       1.0  0.821793441859072  0.6817134950999629  0.061925291689576355  1.0000
  H   H28       1.0  0.11092534157971563  0.39015133731111007  0.1802280457311056  1.0000
  H   H29       1.0  0.11560269839671397  0.8223422390952633  0.17696248019348815  1.0000
  H   H30       1.0  0.18171483164351848  0.9345668331042345  0.061923139200452296  1.0000
  H   H31       1.0  0.8901528324263882  0.8186942698101445  0.18022759733978  1.0000
  H   H32       1.0  0.8850926118228917  0.17696497314516085  0.8223423488210385  1.0000
  H   H33       1.0  0.8217956175483254  0.0619248542844559  0.9345669149092188  1.0000
  H   H34       1.0  0.1109272424762792  0.18022730600694817  0.8186939834910092  1.0000
  H   H35       1.0  0.32234401758807263  0.6156012121265277  0.38509212510611945  1.0000
  H   H36       1.0  0.43456696226792285  0.6817136939811516  0.3217955775398876  1.0000
  H   H37       1.0  0.31869506797566777  0.39015149784086833  0.6109250419548715  1.0000
  H   H38       1.0  0.6769638851246783  0.3850918260981048  0.615601886430632  1.0000
  H   H39       1.0  0.561925067987943  0.32179413561110676  0.6817133868764458  1.0000
  H   H40       1.0  0.680228789415061  0.610924738787098  0.39015135843744986  1.0000
  C   C1        1.0  0.7617896927166475  0.5039983133162734  0.7339697853754857  1.0000
  C   C2        1.0  0.00024312820953325919  0.7339709377504137  0.5039964211565504  1.0000
  C   C3        1.0  0.23397150169701325  0.500241602073139  0.26178785644992797  1.0000
  C   C4        1.0  0.0039980869922402705  0.2617886518944985  0.5002434087442608  1.0000
  C   C5        1.0  0.0002449606149995205  0.26178961251376615  0.7339700301861569  1.0000
  C   C6        1.0  0.7617887686907993  0.5002433045458899  0.5039977103102515  1.0000
  C   C7        1.0  0.003998307764895852  0.733970979353323  0.26178839061643794  1.0000
  C   C8        1.0  0.23397069048792954  0.5039990839448976  0.5002414143280802  1.0000
  C   C9        1.0  0.0039992755772218285  0.5002414994105565  0.7339702756620382  1.0000
  C   C10       1.0  0.2339720928681785  0.2617904498092614  0.5039976817436056  1.0000
  C   C11       1.0  0.00024251891134255716  0.5039972904956185  0.2617891332126164  1.0000
  C   C12       1.0  0.7617902409189417  0.7339719839774828  0.5002420997641224  1.0000
  C   C13       1.0  0.3511019227346852  0.4347532660663162  0.14805371954803806  1.0000
  C   C14       1.0  0.42543198761112694  0.4343101979117492  0.07488666965648601  1.0000
  C   C15       1.0  0.46361072617673227  0.3707665294144746  0.03520319522623087  1.0000
  C   C16       1.0  0.34971137817618136  0.562758495602594  0.14935813395742067  1.0000
  C   C17       1.0  0.4248448480524874  0.5636724257066489  0.07725123163037058  1.0000
  C   C18       1.0  0.46452891294184473  0.6283892331358344  0.03644095893108109  1.0000
  C   C19       1.0  0.6480528447088006  0.5660939556636179  0.8510995411708321  1.0000
  C   C20       1.0  0.5748873007648144  0.5653724491894253  0.9254286725335135  1.0000
  C   C21       1.0  0.5352016698104833  0.6304224203236968  0.9636097701200371  1.0000
  C   C22       1.0  0.6493579558628826  0.4381727388983522  0.8497114738134571  1.0000
  C   C23       1.0  0.5772525806075921  0.4342320969232747  0.9248441949750728  1.0000
  C   C24       1.0  0.5364417687903686  0.37064080849605585  0.96452911515086  1.0000
  C   C25       1.0  0.3134480565680208  0.4991143911361746  0.18411721437662007  1.0000
  C   C26       1.0  0.4634449806331208  0.4990988081321318  0.03831165644712092  1.0000
  C   C27       1.0  0.6841178832563274  0.5033224343329293  0.8134459410538284  1.0000
  C   C28       1.0  0.5383121000834596  0.49914420371595003  0.9634446900630775  1.0000
  C   C29       1.0  0.934754490581746  0.8511020207616654  0.5660905790235733  1.0000
  C   C30       1.0  0.9343117560551661  0.9254302700203779  0.5653709304994267  1.0000
  C   C31       1.0  0.870766625083036  0.9636107187091766  0.6304204710620097  1.0000
  C   C32       1.0  0.06275884751723049  0.8497137429127407  0.438170419222786  1.0000
  C   C33       1.0  0.06367240523796644  0.9248457423246847  0.43423053236797676  1.0000
  C   C34       1.0  0.12838957171152332  0.9645301036277018  0.37064051986881463  1.0000
  C   C35       1.0  0.06609236863767627  0.148053631546162  0.43475460800223686  1.0000
  C   C36       1.0  0.06537203507750185  0.07488825238032602  0.43431113775235264  1.0000
  C   C37       1.0  0.13042199037522556  0.035203642833522536  0.37076583380719796  1.0000
  C   C38       1.0  0.9381714443286601  0.1493580007681103  0.5627583838937796  1.0000
  C   C39       1.0  0.9342317483281735  0.07725361710711819  0.563670236190987  1.0000
  C   C40       1.0  0.8706400320953592  0.036441387655152396  0.6283892470461437  1.0000
  C   C41       1.0  0.999114800086695  0.8134483754691857  0.5033198394986587  1.0000
  C   C42       1.0  0.9990997060778216  0.9634456985550345  0.4991434345494954  1.0000
  C   C43       1.0  0.0033211905714624046  0.18411797691894094  0.4991148451768125  1.0000
  C   C44       1.0  0.9991430944752154  0.038313412817565534  0.49909892449267806  1.0000
  C   C45       1.0  0.3511019934469319  0.14805362861913807  0.5660919382139936  1.0000
  C   C46       1.0  0.4254298983625589  0.07488759682239987  0.5653722079730626  1.0000
  C   C47       1.0  0.46360915960954713  0.0352026529603506  0.6304220483897537  1.0000
  C   C48       1.0  0.34971419895661177  0.1493580511427126  0.4381718261058367  1.0000
  C   C49       1.0  0.4248445417653528  0.07725336239910527  0.43423229477911457  1.0000
  C   C50       1.0  0.46453100453077684  0.03644028135288117  0.3706398554843561  1.0000
  C   C51       1.0  0.6480551195144174  0.85110147738488  0.43475302560201384  1.0000
  C   C52       1.0  0.5748875040706383  0.9254309553384134  0.4343104043186231  1.0000
  C   C53       1.0  0.5352030927739836  0.9636107500536895  0.3707659619419773  1.0000
  C   C54       1.0  0.6493589049979256  0.8497130459046289  0.5627586600199804  1.0000
  C   C55       1.0  0.5772520283810679  0.9248454088677249  0.5636716766855513  1.0000
  C   C56       1.0  0.5364406715934397  0.9645293867255019  0.6283902429467787  1.0000
  C   C57       1.0  0.3134491859829041  0.1841183322143607  0.5033205950175343  1.0000
  C   C58       1.0  0.4634448073740387  0.03831147542086915  0.4991441131644977  1.0000
  C   C59       1.0  0.6841192497156643  0.8134480974799345  0.4991130365680193  1.0000
  C   C60       1.0  0.5383116969420316  0.9634451252990885  0.4991005111180088  1.0000
  C   C61       1.0  0.06609263894205263  0.4347534618647514  0.8511005798855679  1.0000
  C   C62       1.0  0.06537163779709233  0.4343113500392307  0.9254308212769614  1.0000
  C   C63       1.0  0.13042123010672685  0.3707670864336095  0.9636097466266804  1.0000
  C   C64       1.0  0.9381713148122449  0.562758929341925  0.8497122843466869  1.0000
  C   C65       1.0  0.934231533377968  0.5636720316690856  0.9248452489232333  1.0000
  C   C66       1.0  0.8706408077774557  0.6283899303075132  0.9645295237635166  1.0000
  C   C67       1.0  0.9347533720418968  0.566091593609151  0.1480541193204773  1.0000
  C   C68       1.0  0.9343101038609665  0.5653725941880337  0.07488722989909766  1.0000
  C   C69       1.0  0.8707661878313858  0.6304214807101898  0.035202906509304986  1.0000
  C   C70       1.0  0.06275799339574216  0.43817152822664707  0.14935814468442743  1.0000
  C   C71       1.0  0.0636707291690116  0.434232434514719  0.07725165791189433  1.0000
  C   C72       1.0  0.12838897994367943  0.3706410079135765  0.036441256104978975  1.0000
  C   C73       1.0  0.0033207504912838417  0.4991146126906258  0.813447202899951  1.0000
  C   C74       1.0  0.999143464828322  0.49909972589703216  0.9634448386998429  1.0000
  C   C75       1.0  0.9991134929338448  0.5033207791923856  0.18411761325910456  1.0000
  C   C76       1.0  0.9990988226923537  0.4991447071710479  0.038312710427831596  1.0000
  C   C77       1.0  0.06609434478325228  0.8511001327831949  0.1480518744676687  1.0000
  C   C78       1.0  0.06537371635231175  0.9254294031726502  0.07488602775107008  1.0000
  C   C79       1.0  0.13042301418865793  0.9636082958052795  0.03520203878051127  1.0000
  C   C80       1.0  0.9381731873146966  0.8497120981184875  0.14935655690495528  1.0000
  C   C81       1.0  0.9342327803446298  0.924845147674837  0.07725133143383552  1.0000
  C   C82       1.0  0.8706413273739109  0.9645295670893217  0.03643927464437992  1.0000
  C   C83       1.0  0.9347539286191097  0.14805272416609955  0.8511009564837054  1.0000
  C   C84       1.0  0.9343117682238218  0.07488765517724254  0.9254287068389077  1.0000
  C   C85       1.0  0.8707671576596642  0.03520341270725409  0.9636084590082419  1.0000
  C   C86       1.0  0.0627604399924948  0.1493566665902223  0.8497112278358542  1.0000
  C   C87       1.0  0.06367269703236633  0.07725132498116961  0.9248440954276232  1.0000
  C   C88       1.0  0.12839150721651313  0.03643989232950437  0.9645279393369037  1.0000
  C   C89       1.0  0.0033226808399507597  0.813446526662126  0.184117011790434  1.0000
  C   C90       1.0  0.9991444829838233  0.9634453014578025  0.03831164876754663  1.0000
  C   C91       1.0  0.9991153223415667  0.18411762927178182  0.8134467509811998  1.0000
  C   C92       1.0  0.9990996348932346  0.03831196923319177  0.9634450294795087  1.0000
  C   C93       1.0  0.35110211726026136  0.5660920244851579  0.434753399701286  1.0000
  C   C94       1.0  0.4254299593646354  0.5653720285325363  0.43431143751283957  1.0000
  C   C95       1.0  0.46360947371175615  0.6304218861560997  0.37076699388560297  1.0000
  C   C96       1.0  0.34971295365242866  0.43817186268230296  0.5627582174909448  1.0000
  C   C97       1.0  0.4248446195162858  0.4342321342325164  0.5636713218526522  1.0000
  C   C98       1.0  0.4645297071687156  0.37064031138117304  0.6283888761829531  1.0000
  C   C99       1.0  0.6480539712958447  0.4347533606752592  0.5660921802344845  1.0000
  C   C100      1.0  0.5748873393265231  0.4343107339179825  0.565372238784427  1.0000
  C   C101      1.0  0.5352035749505506  0.37076561091441124  0.6304217416836265  1.0000
  C   C102      1.0  0.6493581738054888  0.5627580075252893  0.43817097854586246  1.0000
  C   C103      1.0  0.5772532126044043  0.5636706876816504  0.43423166217309733  1.0000
  C   C104      1.0  0.5364410346997065  0.6283897907315749  0.3706398533106568  1.0000
  C   C105      1.0  0.3134479658221284  0.5033219803910142  0.49911345030856324  1.0000
  C   C106      1.0  0.463444623516992  0.49914362499234954  0.49910036198203755  1.0000
  C   C107      1.0  0.6841180739786807  0.49911389172936543  0.5033210198323063  1.0000
  C   C108      1.0  0.5383117181209233  0.4990986484011371  0.4991443107102142  1.0000
  N   N1        1.0  0.5730859880953222  0.3013306786970915  0.9289060890587848  1.0000
  N   N2        1.0  0.42890621248842126  0.6966759506178588  0.07308933944446509  1.0000
  N   N3        1.0  0.8013299347186803  0.07308565897892538  0.6966770203924497  1.0000
  N   N4        1.0  0.19667828366042564  0.9289083255840467  0.30132882221069224  1.0000
  N   N5        1.0  0.5730873555655978  0.928905692232959  0.696677723513261  1.0000
  N   N6        1.0  0.42890849790371294  0.07308815257589171  0.3013294160186533  1.0000
  N   N7        1.0  0.19667841173804135  0.3013296270505492  0.07308584108436383  1.0000
  N   N8        1.0  0.801329050835662  0.6966800390968969  0.9289057188176884  1.0000
  N   N9        1.0  0.19667981743283747  0.07308699196114096  0.9289049775688338  1.0000
  N   N10       1.0  0.8013310641063787  0.9289064976715335  0.07308684220251416  1.0000
  N   N11       1.0  0.5730881437248456  0.6966759424696463  0.3013292586177626  1.0000
  N   N12       1.0  0.428906722254908  0.3013291431064572  0.6966781918260806  1.0000
  O   O1        1.0  0.7919621987908986  0.44451803068741924  0.7031730882117557  1.0000
  O   O2        1.0  0.06034865848305767  0.7031733384102241  0.4445151143884373  1.0000
  O   O3        1.0  0.20317328066406762  0.5603485979928421  0.2919616158454801  1.0000
  O   O4        1.0  0.9445157993447922  0.2919622700287618  0.5603483776097137  1.0000
  O   O5        1.0  0.060348404719697275  0.2919620993849747  0.7031734544168485  1.0000
  O   O6        1.0  0.7919616575404905  0.5603481489325401  0.44451664531338514  1.0000
  O   O7        1.0  0.9445188681615879  0.7031731684519255  0.2919614638780675  1.0000
  O   O8        1.0  0.20317427493230178  0.44451787857762776  0.5603468841362796  1.0000
  O   O9        1.0  0.9445170907990176  0.5603472049876429  0.7031736798474312  1.0000
  O   O10       1.0  0.20317398438881898  0.2919635008461228  0.44451697212527813  1.0000
  O   O11       1.0  0.060348749410963076  0.44451557238011924  0.29196255329641474  1.0000
  O   O12       1.0  0.7919628099745355  0.7031744463523352  0.5603483175265325  1.0000
  O   O13       1.0  0.2036453435774207  0.2929358096168428  0.5634266130282343  1.0000
  O   O14       1.0  0.9399940479585499  0.5634293159945967  0.2929352723883128  1.0000
  O   O15       1.0  0.7929358064751431  0.7036433350236206  0.43999486391611964  1.0000
  O   O16       1.0  0.06342792490124101  0.43999696211099604  0.7036428094294394  1.0000
  O   O17       1.0  0.9399953928208264  0.2929356838850056  0.7036415809845026  1.0000
  O   O18       1.0  0.20364261538448175  0.5634290598516856  0.4399935705466618  1.0000
  O   O19       1.0  0.0634284937331701  0.7036430968525664  0.2929362384375054  1.0000
  O   O20       1.0  0.7929342425458189  0.4399952037302127  0.5634303476591354  1.0000
  O   O21       1.0  0.06342838729936776  0.2929340484921  0.4399971270852774  1.0000
  O   O22       1.0  0.7929351874079135  0.5634286573801006  0.7036421795468045  1.0000
  O   O23       1.0  0.9399975739833414  0.7036415434559515  0.5634270055342513  1.0000
  O   O24       1.0  0.20364271631759595  0.43999560075187105  0.2929335656877042  1.0000
  O   O25       1.0  0.9475844287633568  0.4475839723766413  0.4475836468041265  1.0000
  O   O26       1.0  0.15724908882254623  0.44758371861001944  0.4475828154662764  1.0000
  O   O27       1.0  0.9475853784584489  0.6572476258575646  0.4475835526001008  1.0000
  O   O28       1.0  0.9475841426075962  0.44758364899506364  0.6572486906816691  1.0000
  O   O29       1.0  0.038614605929155055  0.5386151729541311  0.5386126566887482  1.0000
  O   O30       1.0  0.8841585813540506  0.5386140614726287  0.5386144799106064  1.0000
  O   O31       1.0  0.03861531673721453  0.5386148587253174  0.38415541055823604  1.0000
  O   O32       1.0  0.038614401512305205  0.3841590651800715  0.5386133533417875  1.0000
  O   O33       1.0  0.6524791157383093  0.26439216357596257  0.9086756892932399  1.0000
  O   O34       1.0  0.5222273004287816  0.28423179794459225  0.922439723629189  1.0000
  O   O35       1.0  0.40868297835457684  0.6744509387880413  0.15247560314168856  1.0000
  O   O36       1.0  0.422436206980159  0.7711033133783969  0.022228568013503126  1.0000
  O   O37       1.0  0.7643895762593689  0.15247797027691246  0.6744519573486798  1.0000
  O   O38       1.0  0.7842324449014415  0.02222840301442372  0.7711011954804546  1.0000
  O   O39       1.0  0.1744539807150576  0.9086805634977893  0.26439112246434604  1.0000
  O   O40       1.0  0.2711023541526389  0.9224402493434524  0.2842313911766752  1.0000
  O   O41       1.0  0.6524760263649944  0.9086810510962023  0.6744524160362318  1.0000
  O   O42       1.0  0.5222287147709608  0.9224356396727201  0.7711029474938015  1.0000
  O   O43       1.0  0.4086844904154178  0.15247742153103164  0.2643883494691863  1.0000
  O   O44       1.0  0.42243772618812886  0.02222882701828872  0.2842317268452987  1.0000
  O   O45       1.0  0.17445314743802248  0.2643899197074902  0.1524763808716543  1.0000
  O   O46       1.0  0.27110105641132526  0.2842334402238719  0.022228878992280002  1.0000
  O   O47       1.0  0.7643909268098242  0.674455341146448  0.9086768330642414  1.0000
  O   O48       1.0  0.7842323953620469  0.7711032331932726  0.9224377177750471  1.0000
  O   O49       1.0  0.17445561353276434  0.15247573749546475  0.9086759106613866  1.0000
  O   O50       1.0  0.2711031091113086  0.022228520650983914  0.9224399690195992  1.0000
  O   O51       1.0  0.7643936769563671  0.9086779834717261  0.15247431508340284  1.0000
  O   O52       1.0  0.7842330150785488  0.9224393715701706  0.022225529359687534  1.0000
  O   O53       1.0  0.6524768845746538  0.6744516995925166  0.26439039446142243  1.0000
  O   O54       1.0  0.5222282458429324  0.7711030557415696  0.28423149704976697  1.0000
  O   O55       1.0  0.40867904737142174  0.2643905246462168  0.6744534266376547  1.0000
  O   O56       1.0  0.42243821252557723  0.28423182950946574  0.771101881979625  1.0000
