data_image0
_chemical_formula_structural       Zn8H72C78O38
_chemical_formula_sum              "Zn8 H72 C78 O38"
_cell_length_a       18.216061610347012
_cell_length_b       18.017382903403426
_cell_length_c       18.249293116445628
_cell_angle_alpha    118.20426755570463
_cell_angle_beta     90.12377626008619
_cell_angle_gamma    120.81376099531349

_space_group_name_H-M_alt    "P 1"
_space_group_IT_number       1

loop_
  _space_group_symop_operation_xyz
  'x, y, z'

loop_
  _atom_site_type_symbol
  _atom_site_label
  _atom_site_symmetry_multiplicity
  _atom_site_fract_x
  _atom_site_fract_y
  _atom_site_fract_z
  _atom_site_occupancy
  Zn  Zn1       1.0  0.9618735450258171  0.10324142139621979  0.0752588216697632  1.0000
  Zn  Zn2       1.0  0.9570901675815122  0.9275259598065019  0.9022085869044218  1.0000
  Zn  Zn3       1.0  0.9591695731524084  0.9205568428429275  0.07196675794260439  1.0000
  Zn  Zn4       1.0  0.13598719269295154  0.098582878203004  0.06704916104978051  1.0000
  Zn  Zn5       1.0  0.5500548882349393  0.9289870211333593  0.49171048565560244  1.0000
  Zn  Zn6       1.0  0.5463963923367956  0.10331764849908609  0.656986848311135  1.0000
  Zn  Zn7       1.0  0.37091973576287535  0.9226216193198907  0.4906274191170967  1.0000
  Zn  Zn8       1.0  0.5469614805905536  0.1005773668795413  0.4814861148282078  1.0000
  H   H1        1.0  0.14116363764108536  0.06482978308566349  0.609128376848368  1.0000
  H   H2        1.0  0.2067144360383324  0.15615558177250222  0.7219138752186043  1.0000
  H   H3        1.0  0.17094319316929327  0.19294642643879453  0.6624438466039495  1.0000
  H   H4        1.0  0.0439498253567976  0.029614599738401595  0.7013897458233629  1.0000
  H   H5        1.0  0.008413721002192204  0.0655993955547771  0.642116807095441  1.0000
  H   H6        1.0  0.12507895491560816  0.20878977214251646  0.8367990845236833  1.0000
  H   H7        1.0  0.0950193341340579  0.24956839921025423  0.7782140150182288  1.0000
  H   H8        1.0  0.9605272772716233  0.07485012663243398  0.8005265140221028  1.0000
  H   H9        1.0  0.9316213816916913  0.12241656288126279  0.7479418569370182  1.0000
  H   H10       1.0  0.7840216044984061  0.18144201062909807  0.8066284523935963  1.0000
  H   H11       1.0  0.613492212121109  0.8483403072445981  0.6696471990374634  1.0000
  H   H12       1.0  0.7180584681457772  0.8590079449799288  0.7700140494638178  1.0000
  H   H13       1.0  0.5367799446064154  0.4424697535364571  0.90870277984736  1.0000
  H   H14       1.0  0.5670522343318893  0.4970883948776431  0.8450706942338116  1.0000
  H   H15       1.0  0.46667806095895503  0.46844926605113807  0.8732073773255493  1.0000
  H   H16       1.0  0.6598836736370687  0.6318337057963817  0.0058154001926027645  1.0000
  H   H17       1.0  0.5603697321214581  0.603591928897842  0.03352462896015143  1.0000
  H   H18       1.0  0.627797620353526  0.6933804001605492  0.9207828295761191  1.0000
  H   H19       1.0  0.525061853022258  0.6614276163220296  0.9436753747736902  1.0000
  H   H20       1.0  0.7122919406116494  0.8144068616036504  0.0827714277188817  1.0000
  H   H21       1.0  0.6092512904541679  0.7881341865685131  0.10428380603712387  1.0000
  H   H22       1.0  0.6162383747802309  0.0016145055675878  0.2460711321350857  1.0000
  H   H23       1.0  0.8008385817701082  0.023609356279408193  0.4168330221111277  1.0000
  H   H24       1.0  0.8903610862591119  0.016093257413459097  0.3125603651166244  1.0000
  H   H25       1.0  0.4426483041339395  0.34488337239356787  0.5092819444459594  1.0000
  H   H26       1.0  0.3263863581799383  0.2509749891943187  0.483684001733387  1.0000
  H   H27       1.0  0.37984468019880063  0.3811677973635809  0.5736129991336298  1.0000
  H   H28       1.0  0.3519392909493887  0.30926146857650844  0.378925324668927  1.0000
  H   H29       1.0  0.4057536558543617  0.43858913405856015  0.46776504028329674  1.0000
  H   H30       1.0  0.2068919977447337  0.26091453105429707  0.4146657566564614  1.0000
  H   H31       1.0  0.2607564018287718  0.39037260561553205  0.5048501195224588  1.0000
  H   H32       1.0  0.2395774566182496  0.32094984607508076  0.31217768983514566  1.0000
  H   H33       1.0  0.2932311048262618  0.4511795659281005  0.4028947279337984  1.0000
  H   H34       1.0  0.23080546855338466  0.6063020292991934  0.4196620862623774  1.0000
  H   H35       1.0  0.3847042812001149  0.6135228714082785  0.240869886933794  1.0000
  H   H36       1.0  0.2871469307439655  0.41918068990464274  0.14787501312587648  1.0000
  H   H37       1.0  0.0127937836544447  0.34355794141931273  0.4676724943155222  1.0000
  H   H38       1.0  0.9703933290435174  0.2468108083531177  0.4914526750128943  1.0000
  H   H39       1.0  0.06372544101940045  0.3760088109935111  0.571087720716541  1.0000
  H   H40       1.0  0.8706784969920063  0.30833681991174433  0.5043573410333054  1.0000
  H   H41       1.0  0.9635243843344695  0.43630916286421234  0.5826676958917362  1.0000
  H   H42       1.0  0.8799936936393066  0.25360946725732697  0.6054901235875434  1.0000
  H   H43       1.0  0.9766761173083509  0.3801304353658495  0.6834837447583555  1.0000
  H   H44       1.0  0.7889415299478201  0.3231135391462629  0.6182149837905017  1.0000
  H   H45       1.0  0.8857983254538054  0.4509145429783387  0.6965170785354716  1.0000
  H   H46       1.0  0.8780681029489231  0.5979389634986562  0.9060432412302434  1.0000
  H   H47       1.0  0.7253400356476332  0.6211844937309579  0.7479668279168835  1.0000
  H   H48       1.0  0.6319258413474954  0.42801116454693744  0.6401125871788196  1.0000
  H   H49       1.0  0.5734622249867627  0.8886603732665819  0.9002423333918657  1.0000
  H   H50       1.0  0.5291324947634236  0.7933111719641983  0.7852721589292173  1.0000
  H   H51       1.0  0.4616480561804721  0.7749576643239777  0.853541995373682  1.0000
  H   H52       1.0  0.5305679773413132  0.9470850097572665  0.8180307107581157  1.0000
  H   H53       1.0  0.464786963265908  0.9298075742378982  0.8866542971050252  1.0000
  H   H54       1.0  0.40419132497891036  0.7722571652777005  0.6875603697047269  1.0000
  H   H55       1.0  0.33807270415466917  0.7526663914603872  0.7560664081106978  1.0000
  H   H56       1.0  0.4092961091036145  0.928706991936167  0.7268278906804329  1.0000
  H   H57       1.0  0.34014770479528533  0.9066008374332385  0.7936636680408288  1.0000
  H   H58       1.0  0.11941356427675492  0.8429477283704471  0.7474242979121399  1.0000
  H   H59       1.0  0.2806569822075388  0.1762122962910979  0.8996807820082183  1.0000
  H   H60       1.0  0.38175098102938426  0.17796290860979982  0.8058837174602118  1.0000
  H   H61       1.0  0.09378746421766951  0.44568362385444266  0.049126960021340045  1.0000
  H   H62       1.0  0.21007519579799802  0.49929053428585485  0.08748368679574983  1.0000
  H   H63       1.0  0.16879403195881787  0.4976289950574753  0.9979632448036856  1.0000
  H   H64       1.0  0.176074685469608  0.6238300213897503  0.188879677470794  1.0000
  H   H65       1.0  0.13091791384140083  0.6189685754928858  0.10004188328159803  1.0000
  H   H66       1.0  0.32934835289902503  0.7048073475888258  0.1706060670113345  1.0000
  H   H67       1.0  0.2840375058074827  0.6947346337740185  0.0778018443636341  1.0000
  H   H68       1.0  0.28876116904332605  0.822096325174158  0.26571571808090516  1.0000
  H   H69       1.0  0.23564502593588807  0.8067236701143444  0.17261568859702697  1.0000
  H   H70       1.0  0.29341619067301383  0.0074297229257566984  0.14783362452119772  1.0000
  H   H71       1.0  0.11996092771919112  0.013231462550258796  0.307205885459112  1.0000
  H   H72       1.0  0.21110416014659714  0.0113270872295459  0.4092092812630668  1.0000
  C   C1        1.0  0.15048549384444948  0.1292468173518273  0.6709522801228618  1.0000
  C   C2        1.0  0.0640754248898219  0.09530170341484022  0.6957521240310172  1.0000
  C   C3        1.0  0.07302400793647479  0.18215614771959565  0.7816642367843869  1.0000
  C   C4        1.0  0.983633941522001  0.1439251138577546  0.7996338672081863  1.0000
  C   C5        1.0  0.9218718890911148  0.2182698639796356  0.9083354687049622  1.0000
  C   C6        1.0  0.8318380343376077  0.11612557634213518  0.8495618261983753  1.0000
  C   C7        1.0  0.7701235349546636  0.11083170260704377  0.7982460271864298  1.0000
  C   C8        1.0  0.6921545204999829  0.014057849190372498  0.7333550234999893  1.0000
  C   C9        1.0  0.6737861773103759  0.9228647853111979  0.7214575639617352  1.0000
  C   C10       1.0  0.7321671694980691  0.9286779189305676  0.7763505662960599  1.0000
  C   C11       1.0  0.8112909744897792  0.024763660209380596  0.8401081406034763  1.0000
  C   C12       1.0  0.8730018324923561  0.026679465353829795  0.8959765925203057  1.0000
  C   C13       1.0  0.6300579198221357  0.008473783362646299  0.6744751259260013  1.0000
  C   C14       1.0  0.537226267344444  0.4974976091590833  0.8975054642816362  1.0000
  C   C15       1.0  0.5903731205048928  0.6061195984959226  0.9815605484783351  1.0000
  C   C16       1.0  0.5938284153717746  0.6863051786036606  0.9694001333196526  1.0000
  C   C17       1.0  0.6446483132225963  0.7911158106155936  0.055814585752592884  1.0000
  C   C18       1.0  0.6815748516240062  0.9636030331091374  0.1099908480937728  1.0000
  C   C19       1.0  0.7218195099866591  0.9921247823335051  0.19910611554529828  1.0000
  C   C20       1.0  0.6759566300307682  0.004032466426693299  0.2602048557148606  1.0000
  C   C21       1.0  0.704935194079617  0.015566112218010596  0.3384715899168143  1.0000
  C   C22       1.0  0.7805414936706541  0.017033835249606  0.3566415203606966  1.0000
  C   C23       1.0  0.8295408688720727  0.0115794121808435  0.2983285035832992  1.0000
  C   C24       1.0  0.8008880154805026  0.9996630622025292  0.2198904407645231  1.0000
  C   C25       1.0  0.8566127763702769  0.9974579057958196  0.15995688148832696  1.0000
  C   C26       1.0  0.6526577068856768  0.023028249096455504  0.4012015362333515  1.0000
  C   C27       1.0  0.37668842469955877  0.33237524861574036  0.5063574254244545  1.0000
  C   C28       1.0  0.3524631987625141  0.35769255234085034  0.44512250486423  1.0000
  C   C29       1.0  0.2611051941504455  0.3420886225429242  0.43915716087801837  1.0000
  C   C30       1.0  0.24096766497083166  0.369636327208255  0.37861674216294017  1.0000
  C   C31       1.0  0.13072277721912684  0.4008909243310228  0.34943253124501444  1.0000
  C   C32       1.0  0.19398044914332496  0.45734319094871967  0.3125900169680307  1.0000
  C   C33       1.0  0.2436558950128145  0.5652186516006878  0.36054596502166464  1.0000
  C   C34       1.0  0.31203522511000875  0.6208199181529537  0.33426923747978077  1.0000
  C   C35       1.0  0.3300000045470667  0.568971975431367  0.25929543119051607  1.0000
  C   C36       1.0  0.2766697147282713  0.46128321529963767  0.20832935238294684  1.0000
  C   C37       1.0  0.2084048931892823  0.40510936095360256  0.23420864986209727  1.0000
  C   C38       1.0  0.15004921138370259  0.2896571855049146  0.17581711335615322  1.0000
  C   C39       1.0  0.3675456279657041  0.7363676288177102  0.388156647170149  1.0000
  C   C40       1.0  0.998824951248224  0.3288099379732614  0.5196654880021399  1.0000
  C   C41       1.0  0.9342681273228873  0.35461816178871436  0.5574109721898992  1.0000
  C   C42       1.0  0.9135093467511907  0.336139155895836  0.6309356874700498  1.0000
  C   C43       1.0  0.8533947637419174  0.368304746023  0.6694588036084284  1.0000
  C   C44       1.0  0.8041433513756926  0.39499713275134235  0.7995201376165469  1.0000
  C   C45       1.0  0.7767092623394944  0.45440863852252283  0.7852802586534652  1.0000
  C   C46       1.0  0.8246559025660716  0.5606885213451916  0.8474831069607661  1.0000
  C   C47       1.0  0.8054691508298077  0.6199321600273252  0.8337772754577345  1.0000
  C   C48       1.0  0.7376226825490589  0.5731157261339135  0.7581839700224934  1.0000
  C   C49       1.0  0.6868403519808765  0.4665803098951358  0.6979878476618496  1.0000
  C   C50       1.0  0.7055370661724253  0.40700673103546586  0.7115924159234838  1.0000
  C   C51       1.0  0.645392002683927  0.29190476796110687  0.6521874571306725  1.0000
  C   C52       1.0  0.8598485172816125  0.7345416902922677  0.8966419227231128  1.0000
  C   C53       1.0  0.5125593709914043  0.833312349784485  0.8424052425061462  1.0000
  C   C54       1.0  0.47758864016091723  0.8876000368587071  0.8271085716996255  1.0000
  C   C55       1.0  0.39140938219337335  0.8127842270556371  0.7479054222246476  1.0000
  C   C56       1.0  0.35723387006174784  0.868790429561784  0.7359357766570797  1.0000
  C   C57       1.0  0.21784576397910632  0.8136931938091647  0.6443459228515352  1.0000
  C   C58       1.0  0.2365315933197038  0.9168713310406528  0.7118320148615496  1.0000
  C   C59       1.0  0.1775424148114196  0.91619542662157  0.7606506329985977  1.0000
  C   C60       1.0  0.19394735443054145  0.0094478289113056  0.8279782267551712  1.0000
  C   C61       1.0  0.2683800720966687  0.10443677385333668  0.8460300659683001  1.0000
  C   C62       1.0  0.32475711710362987  0.10544371738019007  0.7949267409830156  1.0000
  C   C63       1.0  0.30926797682433715  0.012363898185356  0.7279782570720458  1.0000
  C   C64       1.0  0.3683427634180346  0.015704970815448895  0.6718347667025315  1.0000
  C   C65       1.0  0.1346571312230935  0.0090193383368415  0.8840323882714074  1.0000
  C   C66       1.0  0.16265816788138923  0.5083923646971158  0.061686565033618045  1.0000
  C   C67       1.0  0.18263327183822747  0.6146764716158585  0.12557647575069816  1.0000
  C   C68       1.0  0.2763342221849995  0.7045526316564544  0.14098778886644678  1.0000
  C   C69       1.0  0.2899625157070105  0.8073880025435397  0.20006733887573344  1.0000
  C   C70       1.0  0.39278417276710803  0.9821809696768398  0.23020020362870502  1.0000
  C   C71       1.0  0.3220191450578154  0.9993432709287258  0.2576653693341129  1.0000
  C   C72       1.0  0.2751377971629977  0.007596133871380998  0.2047304213829193  1.0000
  C   C73       1.0  0.20265446049013752  0.012566696524316998  0.2230765053380708  1.0000
  C   C74       1.0  0.17790619396409107  0.011663077216923097  0.29547755740374276  1.0000
  C   C75       1.0  0.22755540267193908  0.009299366416385598  0.3511862942744487  1.0000
  C   C76       1.0  0.299641388111354  0.0035887368970647995  0.3328299521537943  1.0000
  C   C77       1.0  0.35628773596825153  0.006991501159255598  0.394955291500473  1.0000
  C   C78       1.0  0.14729196803718736  0.013342194430656202  0.16350585756277522  1.0000
  O   O1        1.0  0.0039923446779255006  0.013381131100857098  0.030409743168085906  1.0000
  O   O2        1.0  0.9954632909573459  0.22569174123007937  0.8843055557438788  1.0000
  O   O3        1.0  0.931778661048277  0.29271864402119957  0.9726252139711208  1.0000
  O   O4        1.0  0.8849937823917173  0.9555030682424357  0.8552778975195424  1.0000
  O   O5        1.0  0.9077099160338378  0.09747498890322959  0.9776187400722236  1.0000
  O   O6        1.0  0.6161430787354262  0.07818605485294938  0.7107966610663399  1.0000
  O   O7        1.0  0.5968135333774852  0.934975429234335  0.5932903249364403  1.0000
  O   O8        1.0  0.6519663791460176  0.866749257945493  0.04052994750874466  1.0000
  O   O9        1.0  0.6724431215309252  0.018961945280011598  0.09705879159564292  1.0000
  O   O10       1.0  0.8860987125882571  0.9429254525216064  0.14713398268228411  1.0000
  O   O11       1.0  0.8698146404464494  0.0504950361063337  0.12759322193018363  1.0000
  O   O12       1.0  0.6180182040953851  0.07100206270479958  0.4075000073697481  1.0000
  O   O13       1.0  0.6468268623939153  0.980585409638607  0.44278448634577944  1.0000
  O   O14       1.0  0.15327164746035749  0.352591072442955  0.3746164131826077  1.0000
  O   O15       1.0  0.06410944930441795  0.3988199079333796  0.3600296628882377  1.0000
  O   O16       1.0  0.18982320886853188  0.24713222185648928  0.14060203140627445  1.0000
  O   O17       1.0  0.0659782518601659  0.24431185340983314  0.1657926146213597  1.0000
  O   O18       1.0  0.325076750959809  0.7765907035229132  0.41800508869552994  1.0000
  O   O19       1.0  0.4522114861867762  0.7841547858424887  0.3994911212342629  1.0000
  O   O20       1.0  0.8362808812374068  0.34971910300539816  0.7392343197728125  1.0000
  O   O21       1.0  0.8021926471614619  0.38999505424740033  0.8637062647627333  1.0000
  O   O22       1.0  0.610616551182126  0.2501337751163248  0.5706326742958368  1.0000
  O   O23       1.0  0.6337655893284618  0.24528725785547315  0.6905908392713371  1.0000
  O   O24       1.0  0.8991720742728332  0.7736439315212565  0.9764176801950345  1.0000
  O   O25       1.0  0.8625324925304055  0.7846551660456736  0.8643653200628236  1.0000
  O   O26       1.0  0.27743226520020403  0.793659479959423  0.6580505059163572  1.0000
  O   O27       1.0  0.14867375917810924  0.7463195011073082  0.5819216678741057  1.0000
  O   O28       1.0  0.44894402674541556  0.09778920597987908  0.7054167453093998  1.0000
  O   O29       1.0  0.33255538167890103  0.9355986940364501  0.5939102251603147  1.0000
  O   O30       1.0  0.05162185104957461  0.9314112366206897  0.8489699006118911  1.0000
  O   O31       1.0  0.17277320163353949  0.08718863907711949  0.9631695537274396  1.0000
  O   O32       1.0  0.37688889205955434  0.8902135980078824  0.20790412075402995  1.0000
  O   O33       1.0  0.4599168299472467  0.04394055078430629  0.2237963904310547  1.0000
  O   O34       1.0  0.3176389406598617  0.9614300631695015  0.4338641776920583  1.0000
  O   O35       1.0  0.43979291732973275  0.05671131401827269  0.40318591749182536  1.0000
  O   O36       1.0  0.1867845282554866  0.05816501912427439  0.12425071272224392  1.0000
  O   O37       1.0  0.06411498078927742  0.9682513006970693  0.15736188925369984  1.0000
  O   O38       1.0  0.5032100527242206  0.0132518490322866  0.528685016305964  1.0000
