data_image0
_chemical_formula_structural       Hf12H64C80N24O64
_chemical_formula_sum              "Hf12 H64 C80 N24 O64"
_cell_length_a       15.82393380846917
_cell_length_b       15.838625756731902
_cell_length_c       34.304600751305586
_cell_angle_alpha    89.70155386775792
_cell_angle_beta     90.0781888386271
_cell_angle_gamma    89.84166673493266

_space_group_name_H-M_alt    "P 1"
_space_group_IT_number       1

loop_
  _space_group_symop_operation_xyz
  'x, y, z'

loop_
  _atom_site_type_symbol
  _atom_site_label
  _atom_site_symmetry_multiplicity
  _atom_site_fract_x
  _atom_site_fract_y
  _atom_site_fract_z
  _atom_site_occupancy
  Hf  Hf1       1.0  0.9042256950296801  0.9463675436054331  0.45289768105162387  1.0000
  Hf  Hf2       1.0  0.9119000240738867  0.9500911507131066  0.5549100147074595  1.0000
  Hf  Hf3       1.0  0.06041178196504399  0.10004933974859397  0.44728675983575517  1.0000
  Hf  Hf4       1.0  0.0665773490615322  0.108989496795509  0.5507427378123564  1.0000
  Hf  Hf5       1.0  0.87442430169731  0.1380901288773586  0.5009943745912294  1.0000
  Hf  Hf6       1.0  0.09740602224249528  0.9142998352664335  0.5011507001242135  1.0000
  Hf  Hf7       1.0  0.41240270446004956  0.600917246516481  0.9521944296387582  1.0000
  Hf  Hf8       1.0  0.4185050159835342  0.5947408496590326  0.054350803097022976  1.0000
  Hf  Hf9       1.0  0.5670465422826181  0.4424211142057644  0.945494904778833  1.0000
  Hf  Hf10      1.0  0.575524811039358  0.4385251840070481  0.04902831809926768  1.0000
  Hf  Hf11      1.0  0.6046832461550836  0.6299905517908686  0.999865914976993  1.0000
  Hf  Hf12      1.0  0.38147246117362227  0.40912373973912247  0.0008147145747727997  1.0000
  H   H1        1.0  0.9424610138736396  0.8134564158145918  0.501602620553008  1.0000
  H   H2        1.0  0.900387623238444  0.11594277548583418  0.5824847033990109  1.0000
  H   H3        1.0  0.19563663317705246  0.0798112209262953  0.5013545911211492  1.0000
  H   H4        1.0  0.9049010762435259  0.10736737736731071  0.4155627544165339  1.0000
  H   H5        1.0  0.880004739907477  0.9855035237029808  0.6307099396633118  1.0000
  H   H6        1.0  0.9965258815358877  0.036048767262663296  0.6181869723388116  1.0000
  H   H7        1.0  0.1575222463293287  0.24675146830885805  0.552658815522143  1.0000
  H   H8        1.0  0.20641377626795787  0.17719483137024378  0.4242584762040662  1.0000
  H   H9        1.0  0.07912286382308759  0.07083273381731198  0.3721674772572141  1.0000
  H   H10       1.0  0.840303085373307  0.948617975948025  0.376050199460593  1.0000
  H   H11       1.0  0.7605030674173959  0.8598087142158518  0.4534658572956331  1.0000
  H   H12       1.0  0.8061821964798238  0.849325480171565  0.5088396617733648  1.0000
  H   H13       1.0  0.1370801349441065  0.2465625863669914  0.4340978318717886  1.0000
  H   H14       1.0  0.9214023516483321  0.8890148278354315  0.37974535486008404  1.0000
  H   H15       1.0  0.757511461022048  0.875833524072199  0.5491626336126598  1.0000
  H   H16       1.0  0.09544001501220828  0.058734544999424494  0.6247305299173573  1.0000
  H   H17       1.0  0.2811916343804696  0.5615889186053521  0.0006879905308850002  1.0000
  H   H18       1.0  0.5852289960737875  0.6024831495662396  0.08163717206873858  1.0000
  H   H19       1.0  0.53353731186575  0.3074160044109179  0.9997513897183691  1.0000
  H   H20       1.0  0.5720452083291362  0.6018715823247547  0.9148101751006545  1.0000
  H   H21       1.0  0.45441177217736584  0.620355511811404  0.130316740373935  1.0000
  H   H22       1.0  0.5042545268849707  0.5065656760264333  0.11696021886304207  1.0000
  H   H23       1.0  0.7184702492127357  0.35053914556234383  0.04651069832732448  1.0000
  H   H24       1.0  0.6708405516568732  0.3403689087089958  0.9915532895177958  1.0000
  H   H25       1.0  0.5384611554908003  0.4212381541841523  0.8708549571148008  1.0000
  H   H26       1.0  0.41303741743413264  0.668676135713511  0.8762332142865927  1.0000
  H   H27       1.0  0.3259323029172164  0.7452615080875021  0.9545376538051894  1.0000
  H   H28       1.0  0.3154848929513179  0.6991439049346438  0.008192206276774496  1.0000
  H   H29       1.0  0.7177694558506501  0.3647407806323243  0.95032251155483  1.0000
  H   H30       1.0  0.3534525055832772  0.5876848939806435  0.8782644568537631  1.0000
  H   H31       1.0  0.2660856080029674  0.6850141512053156  0.05013115277684928  1.0000
  H   H32       1.0  0.5287521795362763  0.40755403439526106  0.12389521638807814  1.0000
  H   H33       1.0  0.4061350073915761  0.14531481967765808  0.9350409297014505  1.0000
  H   H34       1.0  0.5106673103040221  0.22978300935827178  0.8696126055208351  1.0000
  H   H35       1.0  0.560808697641228  0.9062298153440979  0.9394030525367891  1.0000
  H   H36       1.0  0.4643891026828724  0.8190689514182451  0.872407633868526  1.0000
  H   H37       1.0  0.8782344095360057  0.5891473960759515  0.06239807202166499  1.0000
  H   H38       1.0  0.7890617286343229  0.4900525114522124  0.1283806467858852  1.0000
  H   H39       1.0  0.11666007073800697  0.44127181809157173  0.06700904051914587  1.0000
  H   H40       1.0  0.20056810333267794  0.5456779655922473  0.13228506365883413  1.0000
  H   H41       1.0  0.8758400794842912  0.5978148594400496  0.9380454665726955  1.0000
  H   H42       1.0  0.7866303176592523  0.4954370527568059  0.8735110929948247  1.0000
  H   H43       1.0  0.11422999545403195  0.4445295494598652  0.9355131517304823  1.0000
  H   H44       1.0  0.1982642343479739  0.5428414722230459  0.8679601010525813  1.0000
  H   H45       1.0  0.5230044297573996  0.22325921549941796  0.13068930338202014  1.0000
  H   H46       1.0  0.41417580374871216  0.1429521096406106  0.06592740864792998  1.0000
  H   H47       1.0  0.5685119962982838  0.8987351185589887  0.06285828236894987  1.0000
  H   H48       1.0  0.4657295764888757  0.8132635022290202  0.12858411237991865  1.0000
  H   H49       1.0  0.9598795819085664  0.7331610167402686  0.631306302518247  1.0000
  H   H50       1.0  0.06632484797204088  0.649631313575405  0.5665383350445976  1.0000
  H   H51       1.0  0.907648241092481  0.4100371568656199  0.5628769833884062  1.0000
  H   H52       1.0  0.013459702352612598  0.3218892260665527  0.6271318333571967  1.0000
  H   H53       1.0  0.968140640161458  0.7332284622332635  0.3676265987689148  1.0000
  H   H54       1.0  0.0609917593876119  0.6481614314964617  0.43678949770017517  1.0000
  H   H55       1.0  0.9102610022151152  0.4120901700554569  0.4398314450861988  1.0000
  H   H56       1.0  0.009702995432476796  0.3212616832674726  0.374709981559519  1.0000
  H   H57       1.0  0.3618161319120502  0.941447948003763  0.566142111162328  1.0000
  H   H58       1.0  0.27793119292103796  0.046467558167250886  0.6312019692038501  1.0000
  H   H59       1.0  0.689275022813014  0.9957360301611897  0.6292092168319241  1.0000
  H   H60       1.0  0.6028211399511887  0.09898670139588012  0.5635853073051604  1.0000
  H   H61       1.0  0.2769860106590656  0.0392393827115143  0.36727800921622106  1.0000
  H   H62       1.0  0.36307426667278964  0.9457570603136742  0.43604005994485096  1.0000
  H   H63       1.0  0.6891306429051268  0.0012045571692596  0.3724834982757627  1.0000
  H   H64       1.0  0.5986539843683188  0.09541043676410507  0.4392239387939225  1.0000
  C   C1        1.0  0.7352147113730749  0.0612991394669109  0.4408437681391033  1.0000
  C   C2        1.0  0.0294172076546957  0.7847677984870529  0.5654871552889629  1.0000
  C   C3        1.0  0.7386133185792473  0.0625538159029588  0.562576784810666  1.0000
  C   C4        1.0  0.0292607394902689  0.7842805003247832  0.43610587585723676  1.0000
  C   C5        1.0  0.22672965680772708  0.9791693883515648  0.43559037732890704  1.0000
  C   C6        1.0  0.9473079093631964  0.2751915230842386  0.5604350173565675  1.0000
  C   C7        1.0  0.22632347402655734  0.9774978068692303  0.5654286236051076  1.0000
  C   C8        1.0  0.9473745927649869  0.27607981068786813  0.4421823207932219  1.0000
  C   C9        1.0  0.9855635050786518  0.4553764886513391  0.3687071650866256  1.0000
  C   C10       1.0  0.9879586926056803  0.5234242689463572  0.3104418313227909  1.0000
  C   C11       1.0  0.9895083125052153  0.5985392400511316  0.36643070026906327  1.0000
  C   C12       1.0  0.41209160667641226  0.017509298436216597  0.3654641208932573  1.0000
  C   C13       1.0  0.4874030721161943  0.017237465417473206  0.3093401260737067  1.0000
  C   C14       1.0  0.5552573790602224  0.022610999346824194  0.36747410887821247  1.0000
  C   C15       1.0  0.41214791337333867  0.020239492696333596  0.6346474756671083  1.0000
  C   C16       1.0  0.48577839899417075  0.0210719863691793  0.6913184762767697  1.0000
  C   C17       1.0  0.5554959917651487  0.0218272170284024  0.6337669298551061  1.0000
  C   C18       1.0  0.9852529717630176  0.455198835672519  0.6329973331952841  1.0000
  C   C19       1.0  0.9862290110285128  0.5985195552100463  0.6346008155333391  1.0000
  C   C20       1.0  0.9856113693029298  0.5232683920478889  0.6908881142315123  1.0000
  C   C21       1.0  0.4926984061135754  0.9465895905418195  0.13309706116056924  1.0000
  C   C22       1.0  0.4939302016822892  0.08985993423961249  0.13406204792471493  1.0000
  C   C23       1.0  0.4925796549017674  0.0158334151423176  0.19068328407439578  1.0000
  C   C24       1.0  0.5258976608680968  0.7703332388880779  0.9404872553051428  1.0000
  C   C25       1.0  0.2514180035359885  0.47921895282099297  0.06548269699973017  1.0000
  C   C26       1.0  0.5327666757312881  0.7631364307502223  0.0625412028299763  1.0000
  C   C27       1.0  0.24991694993672545  0.4776966205873165  0.935890618850521  1.0000
  C   C28       1.0  0.44337253135441296  0.28027620585189794  0.9356909346630499  1.0000
  C   C29       1.0  0.7430308578665359  0.5518267896706917  0.059832839260991484  1.0000
  C   C30       1.0  0.45179699335754003  0.27751595873159124  0.06501027506012486  1.0000
  C   C31       1.0  0.7404574564617689  0.5590346882356911  0.9404817828036723  1.0000
  C   C32       1.0  0.922654488041992  0.5177268558119437  0.13383672671145763  1.0000
  C   C33       1.0  0.9915309251287848  0.5194727879895209  0.19175140461413775  1.0000
  C   C34       1.0  0.06615676528190308  0.518581048470345  0.13548108774498493  1.0000
  C   C35       1.0  0.48798174535935596  0.9525526587558346  0.867856265992607  1.0000
  C   C36       1.0  0.48498924571753577  0.09565848960217947  0.8663353570566483  1.0000
  C   C37       1.0  0.48690303482825203  0.0218546303614389  0.8099695446689947  1.0000
  C   C38       1.0  0.9204314654762339  0.5219480923742167  0.867627857294273  1.0000
  C   C39       1.0  0.0637836240438503  0.5196544548490891  0.8658841890852496  1.0000
  C   C40       1.0  0.9888727373001057  0.521336697975201  0.8096083692563594  1.0000
  C   C41       1.0  0.4409404291397506  0.1937374717193805  0.9190897559536777  1.0000
  C   C42       1.0  0.4809535568493145  0.17782228252733734  0.8854173750688614  1.0000
  C   C43       1.0  0.5277084445693488  0.8570228492646094  0.9233832083803362  1.0000
  C   C44       1.0  0.4913744006781258  0.8716577543813743  0.8885821360970066  1.0000
  C   C45       1.0  0.828702649896172  0.5549216427982842  0.07784826430243189  1.0000
  C   C46       1.0  0.8420347889762211  0.5185772502324042  0.11282764520694846  1.0000
  C   C47       1.0  0.16501401970337068  0.4767013435914933  0.08258963550714066  1.0000
  C   C48       1.0  0.14880374679999156  0.516131967648299  0.11635648246809886  1.0000
  C   C49       1.0  0.826632708954669  0.5625321661593433  0.9229706806723496  1.0000
  C   C50       1.0  0.839950069922345  0.5244266775240761  0.8885860119164161  1.0000
  C   C51       1.0  0.16324542320936788  0.4772033102236718  0.919025408630098  1.0000
  C   C52       1.0  0.14670837091559719  0.515374587590628  0.8848109038704163  1.0000
  C   C53       1.0  0.4916889017910789  0.17259551081195915  0.11485846089099276  1.0000
  C   C54       1.0  0.450383971881628  0.19047861026912466  0.08160407348769635  1.0000
  C   C55       1.0  0.5338769449419017  0.8501893955367307  0.07880605585092576  1.0000
  C   C56       1.0  0.49510178147685474  0.8655366591524398  0.11286760630518694  1.0000
  C   C57       1.0  0.9868437211873199  0.5213697410059056  0.767981833320661  1.0000
  C   C58       1.0  0.9860434104772293  0.521384957321686  0.7325543219565771  1.0000
  C   C59       1.0  0.48698570833106186  0.020746729556016398  0.7683611997142915  1.0000
  C   C60       1.0  0.48680583526500937  0.0208094722629895  0.7329438334358114  1.0000
  C   C61       1.0  0.48983605644347955  0.015486845991034698  0.26774833281028504  1.0000
  C   C62       1.0  0.4913351858162398  0.0147551519781359  0.23233584445323868  1.0000
  C   C63       1.0  0.9896312324570643  0.5204254899684316  0.23338562992671533  1.0000
  C   C64       1.0  0.9885880274168953  0.521271590734692  0.2688053879772027  1.0000
  C   C65       1.0  0.9898115295314085  0.6813640832475868  0.6155728006587249  1.0000
  C   C66       1.0  0.03083293038761779  0.6979073912802035  0.5821532424381457  1.0000
  C   C67       1.0  0.9438563020638638  0.3610700080792171  0.5779535973215528  1.0000
  C   C68       1.0  0.9830767985481045  0.3748290893449635  0.6121080854395868  1.0000
  C   C69       1.0  0.993912729736557  0.6813639634644842  0.38503050778999165  1.0000
  C   C70       1.0  0.030005001796247682  0.6974951453780348  0.4196262905752163  1.0000
  C   C71       1.0  0.9446173516380154  0.3623899823903471  0.42461516827857065  1.0000
  C   C72       1.0  0.9820712274636205  0.3750863721405223  0.38993116696173735  1.0000
  C   C73       1.0  0.313249493872668  0.9759562717680696  0.5820580519834591  1.0000
  C   C74       1.0  0.32973341059448547  0.016540783707775092  0.6154567574019578  1.0000
  C   C75       1.0  0.6367612510399139  0.024926406201167595  0.6134366234446771  1.0000
  C   C76       1.0  0.6517120054417943  0.06391845175063077  0.5792669391185681  1.0000
  C   C77       1.0  0.329403687048675  0.013469071182512898  0.3843400967553874  1.0000
  C   C78       1.0  0.3138059835864552  0.9774259570118388  0.41911344210106427  1.0000
  C   C79       1.0  0.635637949636468  0.027425908500198697  0.38843075607878297  1.0000
  C   C80       1.0  0.6488439009556969  0.06325003493923022  0.42331874926746577  1.0000
  N   N1        1.0  0.9887784948444106  0.44902630293336193  0.3294725440634279  1.0000
  N   N2        1.0  0.9868413578973259  0.6001579464400066  0.3271061249047235  1.0000
  N   N3        1.0  0.987340484024905  0.5283401145828037  0.3887087505106023  1.0000
  N   N4        1.0  0.4106395298069145  0.018419938634117696  0.3261250094174527  1.0000
  N   N5        1.0  0.5618843134813005  0.017709516799421007  0.32830294420956097  1.0000
  N   N6        1.0  0.48235249062562957  0.0212757140498496  0.38762327533663654  1.0000
  N   N7        1.0  0.4096340063140147  0.023618598419879795  0.6739499266401408  1.0000
  N   N8        1.0  0.5608609830343879  0.018679439493709496  0.6730246656338676  1.0000
  N   N9        1.0  0.4832400927867012  0.020883026376139893  0.6130329622030357  1.0000
  N   N10       1.0  0.985771106011576  0.5281861471290981  0.6126633337219258  1.0000
  N   N11       1.0  0.9828439345597886  0.5999379847697027  0.6738969670850846  1.0000
  N   N12       1.0  0.9883647492856368  0.44883670587670815  0.6722635245880608  1.0000
  N   N13       1.0  0.49332761474217074  0.0191331124126464  0.11242596745383075  1.0000
  N   N14       1.0  0.4972131381247066  0.0920227320785187  0.17337210691494673  1.0000
  N   N15       1.0  0.488754836158968  0.9411245679348853  0.17237727367882624  1.0000
  N   N16       1.0  0.9168456074659587  0.515499657003545  0.17309446135546835  1.0000
  N   N17       1.0  0.06802773619229899  0.5226628459183755  0.1747662422358544  1.0000
  N   N18       1.0  0.995499601507177  0.5177185612066282  0.11353682035970536  1.0000
  N   N19       1.0  0.48623711081665266  0.024808764286007104  0.888272896343778  1.0000
  N   N20       1.0  0.4884562433914822  0.0980428801290572  0.8270432870989876  1.0000
  N   N21       1.0  0.48515681000798583  0.9469325506904125  0.828615353591537  1.0000
  N   N22       1.0  0.9934603752009963  0.5205254934241168  0.8879224889075557  1.0000
  N   N23       1.0  0.06559692758901288  0.5232386337916918  0.8265985305549532  1.0000
  N   N24       1.0  0.9143731503325296  0.5193236054843452  0.8283800208043739  1.0000
  O   O1        1.0  0.7803328790239233  0.9972540433870875  0.4312574745145523  1.0000
  O   O2        1.0  0.7572848589934508  0.12051049163116549  0.46338951568592507  1.0000
  O   O3        1.0  0.9685137041827401  0.8318801778368865  0.5761495022352034  1.0000
  O   O4        1.0  0.08718597842972997  0.8047444476696625  0.5410453294577592  1.0000
  O   O5        1.0  0.7843659801426809  0.9991582911964514  0.5726178578465094  1.0000
  O   O6        1.0  0.7607559532639099  0.12280485303843845  0.5401430318984166  1.0000
  O   O7        1.0  0.971009003574835  0.8340844866786483  0.4238456533417716  1.0000
  O   O8        1.0  0.0837979041095025  0.8015234144856435  0.4621535436055167  1.0000
  O   O9        1.0  0.815533028568275  0.8505286470418482  0.4653484403283768  1.0000
  O   O10       1.0  0.8987064982590168  0.9456194183309634  0.3849725429392874  1.0000
  O   O11       1.0  0.8109822330955437  0.8537358401097207  0.5394626935038075  1.0000
  O   O12       1.0  0.928358061553574  0.970366483852885  0.6148490602479268  1.0000
  O   O13       1.0  0.8723343967371662  0.008443282488194401  0.5022575147151042  1.0000
  O   O14       1.0  0.9568154619958233  0.8730026563937939  0.5016445165606453  1.0000
  O   O15       1.0  0.17992130241890436  0.04023242320053551  0.4240267918320838  1.0000
  O   O16       1.0  0.20646539708022965  0.9223931868547339  0.46017315376713686  1.0000
  O   O17       1.0  0.0118000159245  0.23110983282188607  0.569519602978012  1.0000
  O   O18       1.0  0.8868054469274682  0.2524258693391133  0.5380212030101956  1.0000
  O   O19       1.0  0.1757658847182597  0.03266580196189751  0.5785291049155814  1.0000
  O   O20       1.0  0.2100143773025849  0.924970964971365  0.5381156730843555  1.0000
  O   O21       1.0  0.015066652626160198  0.23478020392429494  0.43584633709343706  1.0000
  O   O22       1.0  0.8835200970193283  0.24952922243176087  0.46128876010656206  1.0000
  O   O23       1.0  0.1695743257121194  0.19873691325644668  0.44475886160584094  1.0000
  O   O24       1.0  0.0449594612304622  0.1061437177614906  0.3889419293158624  1.0000
  O   O25       1.0  0.16561887357156016  0.1871929808228501  0.5474885176674105  1.0000
  O   O26       1.0  0.0426922849916522  0.08329318443819742  0.6151520721975527  1.0000
  O   O27       1.0  0.1383568322484408  0.05808410406313411  0.49929305624647896  1.0000
  O   O28       1.0  0.0020896110354939996  0.13951846317389988  0.4997009016346821  1.0000
  O   O29       1.0  0.03156852879152439  0.9764851548138933  0.45799936675266634  1.0000
  O   O30       1.0  0.9244116990945767  0.09119244543922629  0.5591883867934582  1.0000
  O   O31       1.0  0.9212258785592552  0.08498816991378529  0.44093681560571685  1.0000
  O   O32       1.0  0.03347697149667538  0.9799572558390607  0.5424093924110662  1.0000
  O   O33       1.0  0.46149470079420496  0.7257929821531944  0.9310110359092716  1.0000
  O   O34       1.0  0.5859951189051454  0.7470864054290445  0.962606121304098  1.0000
  O   O35       1.0  0.2964824752402251  0.5428132445912297  0.07490841329003928  1.0000
  O   O36       1.0  0.2727071591337165  0.4204554586092115  0.04213431996453919  1.0000
  O   O37       1.0  0.47210134501608547  0.716193167361581  0.07391141961890207  1.0000
  O   O38       1.0  0.5916293001041382  0.7420414557784767  0.03905947885375129  1.0000
  O   O39       1.0  0.29979712343718745  0.535593886098951  0.923686269405948  1.0000
  O   O40       1.0  0.26711916250011564  0.42325109050192816  0.9622334705187681  1.0000
  O   O41       1.0  0.31601419313999907  0.6898284097828051  0.9658915538579433  1.0000
  O   O42       1.0  0.4096371844919062  0.6098426036174016  0.8845150417969659  1.0000
  O   O43       1.0  0.3216419815944959  0.6962729147430123  0.03922837818867458  1.0000
  O   O44       1.0  0.43899275542712246  0.5724642398275036  0.11430744332340476  1.0000
  O   O45       1.0  0.47469269914301276  0.6336391918396983  0.0018987230121893996  1.0000
  O   O46       1.0  0.34085897679739213  0.5475384576630302  0.0011895897218252998  1.0000
  O   O47       1.0  0.5030231791810634  0.32750208305361633  0.9238163352880586  1.0000
  O   O48       1.0  0.38770974434552835  0.29964067565955327  0.9611783148841577  1.0000
  O   O49       1.0  0.698876223075473  0.48715163682586377  0.06876139678644218  1.0000
  O   O50       1.0  0.7205722857726113  0.6124100687720002  0.037409467424978984  1.0000
  O   O51       1.0  0.5120832683551839  0.3251682675352825  0.07607800016335628  1.0000
  O   O52       1.0  0.3947282166267954  0.2970443999610737  0.04018339941404039  1.0000
  O   O53       1.0  0.6989291504252859  0.4924642456361851  0.9334208149083731  1.0000
  O   O54       1.0  0.7147374660248216  0.6218752694484238  0.9606941626649783  1.0000
  O   O55       1.0  0.664641776695987  0.3432562854336467  0.960739474279357  1.0000
  O   O56       1.0  0.5699426565038336  0.4590286444624567  0.8875488867561853  1.0000
  O   O57       1.0  0.6634096415028308  0.3431369133610929  0.03446650876336579  1.0000
  O   O58       1.0  0.5524309527839435  0.46007075312066087  0.11385056449948645  1.0000
  O   O59       1.0  0.5201711716622696  0.36726959500233386  0.9991039433815696  1.0000
  O   O60       1.0  0.6036613448116056  0.5025540348273267  0.9985745704870292  1.0000
  O   O61       1.0  0.44300027114071827  0.4743508645092263  0.9578632604326595  1.0000
  O   O62       1.0  0.5602273434156472  0.5783479372685962  0.058424749777721274  1.0000
  O   O63       1.0  0.5498806279386059  0.5836626130754538  0.9398912455976923  1.0000
  O   O64       1.0  0.44757492930156667  0.4720192231701432  0.043064347200313983  1.0000
