data_image0
_chemical_formula_structural       Li2H10C6O6
_chemical_formula_sum              "Li2 H10 C6 O6"
_cell_length_a       4.524903613944166
_cell_length_b       4.884794878000459
_cell_length_c       10.199061717492965
_cell_angle_alpha    90.0000311884151
_cell_angle_beta     98.15650936279303
_cell_angle_gamma    90.00003389734442

_space_group_name_H-M_alt    "P 1"
_space_group_IT_number       1

loop_
  _space_group_symop_operation_xyz
  'x, y, z'

loop_
  _atom_site_type_symbol
  _atom_site_label
  _atom_site_symmetry_multiplicity
  _atom_site_fract_x
  _atom_site_fract_y
  _atom_site_fract_z
  _atom_site_occupancy
  Li  Li1       1.0  0.04442049476470799  0.9439478650926675  0.5897222955120258  1.0000
  Li  Li2       1.0  0.9555784066501757  0.44394748841170906  0.4102775799240137  1.0000
  H   H1        1.0  0.5596453871523365  0.9168107996140978  0.7021774103105118  1.0000
  H   H2        1.0  0.4403557268349587  0.4168120600357952  0.297822598176481  1.0000
  H   H3        1.0  0.3459107119229897  0.4571599448972208  0.7544784446533728  1.0000
  H   H4        1.0  0.6540881972856027  0.9571602643537322  0.24552241519966608  1.0000
  H   H5        1.0  0.5832325391518012  0.21958413246228767  0.9600780627167187  1.0000
  H   H6        1.0  0.4167684294540877  0.7195840882265402  0.03992188520237512  1.0000
  H   H7        1.0  0.8174540089804124  0.49059452876312565  0.9176957751235337  1.0000
  H   H8        1.0  0.18254939196954467  0.990594404387615  0.08230439740641773  1.0000
  H   H9        1.0  0.903633618584422  0.14424836185572332  0.8825976013281082  1.0000
  H   H10       1.0  0.0963672925446986  0.6442502773298672  0.11740330381542216  1.0000
  C   C1        1.0  0.7262661106195124  0.43334527557444597  0.6523009658078254  1.0000
  C   C2        1.0  0.2737327829801544  0.933345502796897  0.3476989063722798  1.0000
  C   C3        1.0  0.5310434269723459  0.31275679545217383  0.7499813953022285  1.0000
  C   C4        1.0  0.4689576103136447  0.8127570186002091  0.25001858122994497  1.0000
  C   C5        1.0  0.7206945812520261  0.2910487463559548  0.8865844925454527  1.0000
  C   C6        1.0  0.27930644003229327  0.7910487103473757  0.11341547732020983  1.0000
  O   O1        1.0  0.7959682873359454  0.685218724912751  0.6674200050346359  1.0000
  O   O2        1.0  0.20403265593950687  0.18522194254511254  0.33257993233144845  1.0000
  O   O3        1.0  0.8192716171748344  0.2798116815842064  0.5665784103950886  1.0000
  O   O4        1.0  0.18072270199326823  0.7798160496225819  0.43341917114809564  1.0000
  O   O5        1.0  0.39915525439564453  0.056264901682759216  0.7094673598483328  1.0000
  O   O6        1.0  0.6008455918787448  0.5562672902991963  0.2905335182758223  1.0000
