data_image0
_chemical_formula_structural       CuH18C20I8O12
_chemical_formula_sum              "Cu1 H18 C20 I8 O12"
_cell_length_a       9.588883059752218
_cell_length_b       10.492750254747838
_cell_length_c       10.496424793814038
_cell_angle_alpha    103.85491737715822
_cell_angle_beta     96.87817215519391
_cell_angle_gamma    113.43932973605473

_space_group_name_H-M_alt    "P 1"
_space_group_IT_number       1

loop_
  _space_group_symop_operation_xyz
  'x, y, z'

loop_
  _atom_site_type_symbol
  _atom_site_label
  _atom_site_symmetry_multiplicity
  _atom_site_fract_x
  _atom_site_fract_y
  _atom_site_fract_z
  _atom_site_occupancy
  Cu  Cu1       1.0  0.4999962304231502  0.9999931684908107  0.9999979784180155  1.0000
  H   H1        1.0  0.48674677715853704  0.9844561030300985  0.34320006584817986  1.0000
  H   H2        1.0  0.5132505758628839  0.01551809001816201  0.6568020368698058  1.0000
  H   H3        1.0  0.6890482517874829  0.0731339234903743  0.43406639519928797  1.0000
  H   H4        1.0  0.31095677837465274  0.9268651154339126  0.565936204814875  1.0000
  H   H5        1.0  0.6126825804328533  0.9007653854659099  0.3036479925690543  1.0000
  H   H6        1.0  0.3873393807315324  0.0992363317639544  0.6963522734022051  1.0000
  H   H7        1.0  0.17542697389055203  0.0014492957676281993  0.9408243936905195  1.0000
  H   H8        1.0  0.8245615633791916  0.998543210558637  0.05919404990397233  1.0000
  H   H9        1.0  0.288235502125687  0.17573112884441855  0.9210429204440302  1.0000
  H   H10       1.0  0.7117316523557234  0.8242557773109525  0.07895672430817768  1.0000
  H   H11       1.0  0.1973898535516199  0.16581385848480323  0.0610947790860408  1.0000
  H   H12       1.0  0.8026015928305412  0.8341732774666257  0.9389190085129683  1.0000
  H   H13       1.0  0.6627719769934471  0.17413268591950984  0.2633530842273403  1.0000
  H   H14       1.0  0.33720103054672995  0.8258555835944678  0.7366494017077585  1.0000
  H   H15       1.0  0.4744391496562201  0.22127375086769527  0.11650773721409992  1.0000
  H   H16       1.0  0.5255537441255241  0.778728820422259  0.8834847694302184  1.0000
  H   H17       1.0  0.2154800802631556  0.49812222085022034  0.7218305777076638  1.0000
  H   H18       1.0  0.7845242524504739  0.501884902984706  0.2781574937120865  1.0000
  C   C1        1.0  0.7347735850876019  0.30396737046942957  0.07475826957912092  1.0000
  C   C2        1.0  0.2652262997246241  0.6960463927656877  0.9252431414765354  1.0000
  C   C3        1.0  0.8732024294523839  0.41206065305386375  0.04160951830632339  1.0000
  C   C4        1.0  0.1267769325809454  0.5879446332661473  0.9583830489432684  1.0000
  C   C5        1.0  0.02554275419839769  0.4374372411813994  0.0995502813922045  1.0000
  C   C6        1.0  0.974430831381305  0.5625692313111231  0.9004533472387877  1.0000
  C   C7        1.0  0.1533028298957718  0.5247990022490187  0.05751825047969562  1.0000
  C   C8        1.0  0.8467025234458632  0.47520567237537414  0.9424579661575193  1.0000
  C   C9        1.0  0.6067784688966285  0.005537808110247507  0.3349177440888411  1.0000
  C   C10       1.0  0.3932256546128626  0.9944567551345925  0.6650790231696107  1.0000
  C   C11       1.0  0.25488909554172773  0.11674875604396111  0.9941252399612138  1.0000
  C   C12       1.0  0.7451027864916283  0.8832393864038295  0.005885953942772915  1.0000
  C   C13       1.0  0.17886486765372922  0.29690662234962434  0.6847238050528972  1.0000
  C   C14       1.0  0.8211718727275394  0.7031120814433792  0.3152912830191426  1.0000
  C   C15       1.0  0.08320168584008061  0.14429157576898896  0.5868350636649851  1.0000
  C   C16       1.0  0.9168263955687053  0.855709678991744  0.41317816107952865  1.0000
  C   C17       1.0  0.1383864569790774  0.09529042564686561  0.4763214152711441  1.0000
  C   C18       1.0  0.8616323632375043  0.9047209504723028  0.5236844092509756  1.0000
  C   C19       1.0  0.055232572073364974  0.9508381403647949  0.3886953406605472  1.0000
  C   C20       1.0  0.94479728190214  0.0491623374888661  0.6113255341487047  1.0000
  I   I1        1.0  0.05832964941921406  0.3450926193341959  0.2509768391465172  1.0000
  I   I2        1.0  0.9416548555053623  0.6549028034637987  0.7490008138291415  1.0000
  I   I3        1.0  0.3843048909282913  0.5658522194009095  0.135457379525846  1.0000
  I   I4        1.0  0.6156807254973701  0.4341336912442346  0.8645221490096519  1.0000
  I   I5        1.0  0.3512197409592233  0.2420916443508717  0.4494170687393079  1.0000
  I   I6        1.0  0.6487989638559809  0.757912234603957  0.5505880740323832  1.0000
  I   I7        1.0  0.13462609002329637  0.8740513270217962  0.2225964460863282  1.0000
  I   I8        1.0  0.8653969958774964  0.12595054842492465  0.7774077892790743  1.0000
  O   O1        1.0  0.6797643976130132  0.17473125305934198  0.9922493189384838  1.0000
  O   O2        1.0  0.3202384238148994  0.8252771976972114  0.007749357734070371  1.0000
  O   O3        1.0  0.6822214077158008  0.34235281410890656  0.1753850808615383  1.0000
  O   O4        1.0  0.3177597327888861  0.6576493194617259  0.8246069987256064  1.0000
  O   O5        1.0  0.6495784126670257  0.07365075732668201  0.2330162590332492  1.0000
  O   O6        1.0  0.3504116687800405  0.9263477455534784  0.7669864962217402  1.0000
  O   O7        1.0  0.38961786520891917  0.12022899077401664  0.07655925172942801  1.0000
  O   O8        1.0  0.6103826266950421  0.8797741090712068  0.9234418245501602  1.0000
  O   O9        1.0  0.14588124580144074  0.3973987222154209  0.650993877563927  1.0000
  O   O10       1.0  0.8541297783817613  0.6026044544953281  0.3489969307353818  1.0000
  O   O11       1.0  0.2777864139598449  0.3202788237569579  0.7845572781157202  1.0000
  O   O12       1.0  0.7222047224328421  0.6797389754425184  0.21544690855871104  1.0000
