data_image0
_chemical_formula_structural       Cu2H8C10I2N2
_chemical_formula_sum              "Cu2 H8 C10 I2 N2"
_cell_length_a       4.045232316716118
_cell_length_b       7.725749439304017
_cell_length_c       10.076543827815824
_cell_angle_alpha    87.82857484640083
_cell_angle_beta     81.079599221198
_cell_angle_gamma    79.13390417022435

_space_group_name_H-M_alt    "P 1"
_space_group_IT_number       1

loop_
  _space_group_symop_operation_xyz
  'x, y, z'

loop_
  _atom_site_type_symbol
  _atom_site_label
  _atom_site_symmetry_multiplicity
  _atom_site_fract_x
  _atom_site_fract_y
  _atom_site_fract_z
  _atom_site_occupancy
  Cu  Cu1       1.0  0.2834763763683981  0.014016140854458594  0.9130844187950089  1.0000
  Cu  Cu2       1.0  0.716499917416357  0.9859783052259274  0.0869106797123962  1.0000
  H   H1        1.0  0.38143656119032715  0.4249092010146072  0.2879107110778492  1.0000
  H   H2        1.0  0.6185233869017139  0.5750903880798858  0.7120905219973181  1.0000
  H   H3        1.0  0.49970079835179604  0.6432806263242767  0.1122324144383597  1.0000
  H   H4        1.0  0.5002666600750133  0.3567189403260115  0.887768248677098  1.0000
  H   H5        1.0  0.8096992695513168  0.9547009428189598  0.37701690972807006  1.0000
  H   H6        1.0  0.19034149702612527  0.04527585815159089  0.6229834779091165  1.0000
  H   H7        1.0  0.7036862939124687  0.7505400813504793  0.566944250899013  1.0000
  H   H8        1.0  0.29635390995518657  0.2494493713453635  0.43307089922276987  1.0000
  C   C1        1.0  0.46747394936802794  0.43539901394554187  0.5539121555699609  1.0000
  C   C2        1.0  0.5324865768563997  0.5645916857532783  0.44611796691997807  1.0000
  C   C3        1.0  0.5227646508139401  0.4606994435585037  0.6852552609121503  1.0000
  C   C4        1.0  0.47723959620379464  0.539317943666255  0.31471851486263364  1.0000
  C   C5        1.0  0.45811396368142  0.33820751670302235  0.7853573024079807  1.0000
  C   C6        1.0  0.5419152260191069  0.6618246004012034  0.2146431762212089  1.0000
  C   C7        1.0  0.7123834772347094  0.8352417159489534  0.36270630741611143  1.0000
  C   C8        1.0  0.2876737266805236  0.16478667609138134  0.637283157088959  1.0000
  C   C9        1.0  0.6523941611629455  0.7191806712436558  0.46843403405154055  1.0000
  C   C10       1.0  0.3476091472185843  0.28082719786048915  0.5315488885987918  1.0000
  I   I1        1.0  0.10774770782899881  0.2040434951041661  0.1323687076276343  1.0000
  I   I2        1.0  0.8922435804482945  0.7959587352314942  0.8676271280756894  1.0000
  N   N1        1.0  0.3400468240600177  0.19146609437697748  0.7634274038974028  1.0000
  N   N2        1.0  0.6599382499538395  0.808493420591084  0.23658739222484124  1.0000
