data_image0
_chemical_formula_structural       Cu2H24C16S2N12O10
_chemical_formula_sum              "Cu2 H24 C16 S2 N12 O10"
_cell_length_a       5.1997021436600335
_cell_length_b       6.361796304528474
_cell_length_c       19.840695505182197
_cell_angle_alpha    91.36561664273512
_cell_angle_beta     85.74653800680059
_cell_angle_gamma    91.43062358229687

_space_group_name_H-M_alt    "P 1"
_space_group_IT_number       1

loop_
  _space_group_symop_operation_xyz
  'x, y, z'

loop_
  _atom_site_type_symbol
  _atom_site_label
  _atom_site_symmetry_multiplicity
  _atom_site_fract_x
  _atom_site_fract_y
  _atom_site_fract_z
  _atom_site_occupancy
  Cu  Cu1       1.0  0.7944957557503681  0.8600414214429433  0.7497882565085163  1.0000
  Cu  Cu2       1.0  0.20579260968020915  0.1397383743436222  0.25015025049351175  1.0000
  H   H1        1.0  0.435210910141457  0.7053823537924444  0.4805558329183627  1.0000
  H   H2        1.0  0.5558689551367948  0.2985149745237266  0.9688536472640266  1.0000
  H   H3        1.0  0.5622632084896821  0.29527977266561584  0.5196429151676156  1.0000
  H   H4        1.0  0.44535095595103485  0.7019469012735939  0.031234141198623902  1.0000
  H   H5        1.0  0.2051886282661215  0.5486261355314141  0.5874413985841542  1.0000
  H   H6        1.0  0.7904638934014583  0.4403085978878423  0.0694778344026687  1.0000
  H   H7        1.0  0.7935240293411214  0.4513918007721641  0.41281034756024576  1.0000
  H   H8        1.0  0.21057506451462155  0.5597097704790457  0.9306856421342432  1.0000
  H   H9        1.0  0.4024853852616274  0.6287795037349471  0.6953559326912  1.0000
  H   H10       1.0  0.5808936783851024  0.36651421564204884  0.1836754621969447  1.0000
  H   H11       1.0  0.5976329282993049  0.37049617730635737  0.3047574001791133  1.0000
  H   H12       1.0  0.4198781737371604  0.6332937978875963  0.8164353874392632  1.0000
  H   H13       1.0  0.08126298034762408  0.10019219114265351  0.6372674341885229  1.0000
  H   H14       1.0  0.92397964878554  0.8891226325738232  0.1426968865551714  1.0000
  H   H15       1.0  0.9180329273236936  0.8994775717590289  0.3626372445512729  1.0000
  H   H16       1.0  0.0769349632976031  0.1107265380759728  0.857184768881403  1.0000
  H   H17       1.0  0.0843697530694953  0.09119870605836411  0.5490794019793555  1.0000
  H   H18       1.0  0.9086353423329001  0.9035443694683708  0.0536930115214744  1.0000
  H   H19       1.0  0.9139104814230377  0.9091731755289346  0.4508395548471285  1.0000
  H   H20       1.0  0.09240728404464699  0.0966966033328518  0.946193512322587  1.0000
  H   H21       1.0  0.7768078427148594  0.4337524689781206  0.7387263962030488  1.0000
  H   H22       1.0  0.22334865362121548  0.5661059361630622  0.26130428239402187  1.0000
  H   H23       1.0  0.04141878371205368  0.4892126983008254  0.7658281632964119  1.0000
  H   H24       1.0  0.9591310373606274  0.5105777327578949  0.23401925753203304  1.0000
  C   C1        1.0  0.3749488138870588  0.6513459635176774  0.5885197337442634  1.0000
  C   C2        1.0  0.6160038927933087  0.34278347083098043  0.0753215382503285  1.0000
  C   C3        1.0  0.6237734669579851  0.3486941543285199  0.4116684163403476  1.0000
  C   C4        1.0  0.3850158900660005  0.6572771832285511  0.9247872236442092  1.0000
  C   C5        1.0  0.501687817354906  0.7373107219360409  0.5308545867411212  1.0000
  C   C6        1.0  0.48650062169913594  0.26406331231287794  0.0208035631396655  1.0000
  C   C7        1.0  0.4963579107575241  0.26309373193242186  0.4692991006757267  1.0000
  C   C8        1.0  0.5145712444014379  0.7362378542006524  0.9792568954627257  1.0000
  C   C9        1.0  0.4847361380307547  0.6974101459028644  0.6487784704686773  1.0000
  C   C10       1.0  0.5018745633527644  0.2977466726251734  0.1387897133766742  1.0000
  C   C11       1.0  0.5147686206384209  0.3022089157891018  0.3513310665778491  1.0000
  C   C12       1.0  0.49898374651616695  0.702216310457203  0.8612839208484431  1.0000
  C   C13       1.0  0.7975810634069515  0.9132819263258014  0.5946743712612417  1.0000
  C   C14       1.0  0.18645768471967733  0.0891305411350558  0.0920291212718496  1.0000
  C   C15       1.0  0.20112949343546657  0.0868152595208258  0.405331904311339  1.0000
  C   C16       1.0  0.814447307612923  0.9109921063974369  0.9079435930271202  1.0000
  S   S1        1.0  0.3573514095041332  0.16761621259143306  0.7452048628054513  1.0000
  S   S2        1.0  0.6430623106814579  0.8321812209145351  0.2546049392391652  1.0000
  N   N1        1.0  0.692457649841316  0.8261732647180082  0.6531712764543584  1.0000
  N   N2        1.0  0.29039731210854564  0.17320615920535695  0.14833512881266836  1.0000
  N   N3        1.0  0.30706563440613616  0.17346147451436877  0.3468392556120605  1.0000
  N   N4        1.0  0.7103365159131131  0.8268453946202786  0.8516646606257724  1.0000
  N   N5        1.0  0.9884747590111969  0.05612402398008241  0.5951891263901032  1.0000
  N   N6        1.0  0.9986040152107236  0.9428011780494077  0.09711811239129278  1.0000
  N   N7        1.0  0.010235270263919502  0.9439743715759903  0.4047717532933106  1.0000
  N   N8        1.0  0.002323579486251477  0.057323061243664604  0.9027968938279258  1.0000
  N   N9        1.0  0.7116668478247019  0.8599072910731564  0.5332411904310348  1.0000
  N   N10       1.0  0.2713347658361797  0.1468801900429924  0.028339487153964203  1.0000
  N   N11       1.0  0.28636020319431293  0.1405612325384737  0.46681545470981695  1.0000
  N   N12       1.0  0.7297117538165665  0.8534298034285113  0.9716531129936499  1.0000
  O   O1        1.0  0.6417704981664443  0.14820976771821393  0.7592301588925068  1.0000
  O   O2        1.0  0.3586836895438594  0.8516202047379836  0.24055767059395808  1.0000
  O   O3        1.0  0.34208394030414985  0.23784044908440197  0.6758551520036065  1.0000
  O   O4        1.0  0.7510594431434825  0.6729159450579234  0.2041270648108338  1.0000
  O   O5        1.0  0.6580918971850024  0.7612856052264904  0.3238935699106591  1.0000
  O   O6        1.0  0.24977424784289326  0.32737683946966467  0.7955803328751188  1.0000
  O   O7        1.0  0.2230147298483017  0.9608546857068133  0.7570192414891252  1.0000
  O   O8        1.0  0.7772222938250833  0.039142330509527305  0.2430292230026652  1.0000
  O   O9        1.0  0.9023588149731908  0.5521518540973389  0.7406764159067691  1.0000
  O   O10       1.0  0.09786678077475132  0.4476965180596012  0.2592769425727539  1.0000
