data_image0
_chemical_formula_structural       Zn2H54C54N8O10
_chemical_formula_sum              "Zn2 H54 C54 N8 O10"
_cell_length_a       8.973912571179143
_cell_length_b       10.267953902358652
_cell_length_c       18.021123557216477
_cell_angle_alpha    100.57505317637636
_cell_angle_beta     90.94226524175396
_cell_angle_gamma    106.95541360011158

_space_group_name_H-M_alt    "P 1"
_space_group_IT_number       1

loop_
  _space_group_symop_operation_xyz
  'x, y, z'

loop_
  _atom_site_type_symbol
  _atom_site_label
  _atom_site_symmetry_multiplicity
  _atom_site_fract_x
  _atom_site_fract_y
  _atom_site_fract_z
  _atom_site_occupancy
  Zn  Zn1       1.0  0.319078127816219  0.2938617280647478  0.1370591125212428  1.0000
  Zn  Zn2       1.0  0.6809227067430896  0.7061378181061926  0.8629395638380044  1.0000
  H   H1        1.0  0.5348805427827655  0.10918412315486141  0.30813574319991927  1.0000
  H   H2        1.0  0.46512141093733567  0.8908154315366515  0.6918640525670197  1.0000
  H   H3        1.0  0.2641550671764961  0.7894823194791556  0.12671473331774047  1.0000
  H   H4        1.0  0.7358398550334044  0.21051618918612286  0.8732876740877628  1.0000
  H   H5        1.0  0.5031024796952508  0.6760356267743788  0.3001883658807784  1.0000
  H   H6        1.0  0.4969005896547357  0.32396393131058693  0.699811438923838  1.0000
  H   H7        1.0  0.7676108856276826  0.7960148026084044  0.342991430782341  1.0000
  H   H8        1.0  0.2323873746446239  0.2039837034194321  0.6570082278111611  1.0000
  H   H9        1.0  0.6526012885732939  0.7656266998383644  0.4198468490326092  1.0000
  H   H10       1.0  0.34740101700129605  0.23437390102715486  0.5801547223497535  1.0000
  H   H11       1.0  0.9248454728405732  0.9638878540872184  0.30629958867693563  1.0000
  H   H12       1.0  0.07515586018784151  0.03610650645401141  0.6936985554556327  1.0000
  H   H13       1.0  0.06073698964002723  0.8699396512041703  0.3132383896017216  1.0000
  H   H14       1.0  0.93927527182079  0.1300640794411407  0.686760808338249  1.0000
  H   H15       1.0  0.1269306462589199  0.051804426969333406  0.323465759561742  1.0000
  H   H16       1.0  0.8730731144418798  0.9481972055187172  0.6765337101786811  1.0000
  H   H17       1.0  0.5983983183102808  0.8838832494946516  0.5151195565407816  1.0000
  H   H18       1.0  0.4016050923014873  0.11611733938296  0.4848786927692215  1.0000
  H   H19       1.0  0.6789269785100416  0.9792965950699964  0.6056859371117014  1.0000
  H   H20       1.0  0.321073937301115  0.0206998467351056  0.3943140836590259  1.0000
  H   H21       1.0  0.6770574920186689  0.8049558988184489  0.5799481231930058  1.0000
  H   H22       1.0  0.322943763288812  0.19504157121573232  0.4200497868980974  1.0000
  H   H23       1.0  0.7688149691523023  0.08441077224792791  0.0037253502786143014  1.0000
  H   H24       1.0  0.23118475683892106  0.915588780783807  0.9962755377829776  1.0000
  H   H25       1.0  0.6209929216586403  0.0664092291819784  0.11803265853154697  1.0000
  H   H26       1.0  0.37900938744684953  0.9335913768106606  0.8819700232208304  1.0000
  H   H27       1.0  0.7675010196681455  0.1411863130561741  0.24654415526242693  1.0000
  H   H28       1.0  0.2325079054957228  0.858817422790139  0.7534583466745415  1.0000
  H   H29       1.0  0.06201566026882691  0.23500883307571743  0.25345020443042887  1.0000
  H   H30       1.0  0.9379939491840474  0.7649969669194404  0.7465497417023241  1.0000
  H   H31       1.0  0.9036797166222071  0.10384775427090182  0.9157579643756859  1.0000
  H   H32       1.0  0.0963152055877003  0.8961507543943767  0.0842444430298173  1.0000
  H   H33       1.0  0.08131471468735901  0.14411474000849012  0.8123365115229075  1.0000
  H   H34       1.0  0.9186765847338876  0.855879600245906  0.18766377201059467  1.0000
  H   H35       1.0  0.37013740054266725  0.2536650037632242  0.8454881988909972  1.0000
  H   H36       1.0  0.6298568921482968  0.7463282979339709  0.15450978095510234  1.0000
  H   H37       1.0  0.46739852446717833  0.3177296300107528  0.9827312264782431  1.0000
  H   H38       1.0  0.5325986148788857  0.6822688649329437  0.017266757522563105  1.0000
  H   H39       1.0  0.6329747236530351  0.4404150446112354  0.21777780550780787  1.0000
  H   H40       1.0  0.3670224156930288  0.5595834503324684  0.7822201784929914  1.0000
  H   H41       1.0  0.9857553549556499  0.4734345243449027  0.07155226785156539  1.0000
  H   H42       1.0  0.014243442991045237  0.5265722776355021  0.9284471427798234  1.0000
  H   H43       1.0  0.8371026615365054  0.5404333631454679  0.04029245868333219  1.0000
  H   H44       1.0  0.16289086384816184  0.45956097620515374  0.9597061773705062  1.0000
  H   H45       1.0  0.7936172850486188  0.36006605817927106  0.0360751497962823  1.0000
  H   H46       1.0  0.2063817425299916  0.639931410195132  0.963923852589481  1.0000
  H   H47       1.0  0.9969649409279382  0.6515443418975906  0.19491044992700776  1.0000
  H   H48       1.0  0.003033665902506819  0.34845520261357177  0.8050893187268995  1.0000
  H   H49       1.0  0.005178707725995926  0.4930068850761487  0.21812072590827816  1.0000
  H   H50       1.0  0.9948139037377429  0.5069947237316229  0.7818808741954014  1.0000
  H   H51       1.0  0.8664656311451112  0.574491517823539  0.2596875806135444  1.0000
  H   H52       1.0  0.1335298958674116  0.4255121619199826  0.7403114817612744  1.0000
  H   H53       1.0  0.6987886193594548  0.0423784050571854  0.3907121956476586  1.0000
  H   H54       1.0  0.3012159051167487  0.9576221846503188  0.6092855075150111  1.0000
  C   C1        1.0  0.5370305734358781  0.8989022187455692  0.3127724636610906  1.0000
  C   C2        1.0  0.46297018869883994  0.1011004446090098  0.6872276442117169  1.0000
  C   C3        1.0  0.4913269786125269  0.9992327073575711  0.281763217020817  1.0000
  C   C4        1.0  0.5086742042703633  0.0007678798602554984  0.7182361245838462  1.0000
  C   C5        1.0  0.3935056119199912  0.9606728198461453  0.21538275385325525  1.0000
  C   C6        1.0  0.6064944588639206  0.03932776910534841  0.7846176890837454  1.0000
  C   C7        1.0  0.3352200125070511  0.8204278154601926  0.1801225599369261  1.0000
  C   C8        1.0  0.6647767131526476  0.1795727658745108  0.8198784110720536  1.0000
  C   C9        1.0  0.37334383738414795  0.7193700290297188  0.21216012474717158  1.0000
  C   C10       1.0  0.6266558108861418  0.2806326334949745  0.7878405292729623  1.0000
  C   C11       1.0  0.4738345020331706  0.75800295659689  0.2780240056090547  1.0000
  C   C12       1.0  0.5261670238769512  0.24199866397714223  0.7219743356860064  1.0000
  C   C13       1.0  0.7294002394375527  0.8488384803978807  0.39493858421202077  1.0000
  C   C14       1.0  0.27060136772441007  0.15116003581030674  0.6050611014945132  1.0000
  C   C15       1.0  0.01578678298525916  0.9819735469047328  0.42115436160297987  1.0000
  C   C16       1.0  0.9842167071128929  0.0180239350434803  0.5788446769334854  1.0000
  C   C17       1.0  0.8693241631816093  0.9296466727278696  0.44949564851577845  1.0000
  C   C18       1.0  0.1306807891045665  0.0703518510971222  0.5505035091187762  1.0000
  C   C19       1.0  0.8518754578961278  0.9496689262285688  0.5279485473731711  1.0000
  C   C20       1.0  0.14812614573493477  0.0503295848525056  0.4720500279633413  1.0000
  C   C21       1.0  0.032457482687128336  0.9660857784873612  0.3369567238854285  1.0000
  C   C22       1.0  0.9675470453199747  0.0339148163472629  0.6630420896472555  1.0000
  C   C23       1.0  0.6934865421767141  0.9013823627189126  0.5581677999556689  1.0000
  C   C24       1.0  0.30651506145434837  0.09861614836216151  0.44183077538084337  1.0000
  C   C25       1.0  0.35888986176254184  0.06930112126867978  0.1781838982904205  1.0000
  C   C26       1.0  0.6411072069243885  0.9307004934222218  0.8218160724089498  1.0000
  C   C27       1.0  0.3164343517711217  0.5694081680491366  0.1713336569695727  1.0000
  C   C28       1.0  0.683563141194881  0.4305913756321262  0.8286666578316612  1.0000
  C   C29       1.0  0.9940623169704994  0.17335695891306813  0.06861334743182819  1.0000
  C   C30       1.0  0.00593852465061672  0.8266425975121124  0.9313875496674411  1.0000
  C   C31       1.0  0.8307676689414905  0.11904168591679819  0.05973166870470688  1.0000
  C   C32       1.0  0.16923282435604398  0.8809568294615037  0.9402685631491533  1.0000
  C   C33       1.0  0.7479350586623922  0.10787358753441371  0.12402364844573549  1.0000
  C   C34       1.0  0.2520687108656645  0.8921280577714443  0.8759785972197205  1.0000
  C   C35       1.0  0.82926355377937  0.1499455989612102  0.19531220546850386  1.0000
  C   C36       1.0  0.1707450230609169  0.8500570958382241  0.8046896312230557  1.0000
  C   C37       1.0  0.991508550395743  0.2015610480110084  0.19955446455595896  1.0000
  C   C38       1.0  0.00849779165386619  0.7984416348743935  0.8004462436902313  1.0000
  C   C39       1.0  0.09239291124296048  0.19244993085244744  0.0038901159327195964  1.0000
  C   C40       1.0  0.907603462562257  0.8075496043082494  0.9961090794608295  1.0000
  C   C41       1.0  0.02872917634502409  0.15370369942306178  0.9288510678403267  1.0000
  C   C42       1.0  0.9712698565299364  0.8462937766420209  0.07114960010045478  1.0000
  C   C43       1.0  0.12857247245452194  0.1754727894027681  0.8711085041234694  1.0000
  C   C44       1.0  0.8714206357128802  0.8245236312117257  0.12889200856852057  1.0000
  C   C45       1.0  0.2884393701337942  0.2356952185377637  0.8891441663593723  1.0000
  C   C46       1.0  0.7115567313033254  0.764300163519522  0.11085404264521508  1.0000
  C   C47       1.0  0.3435888236766758  0.2712657081032646  0.9651379777803366  1.0000
  C   C48       1.0  0.6564075448321843  0.7287338193667524  0.03485955205819381  1.0000
  C   C49       1.0  0.6609322581507513  0.4220859293314733  0.15808845368929517  1.0000
  C   C50       1.0  0.3390660003561052  0.5779125741328031  0.8419106497191959  1.0000
  C   C51       1.0  0.860386771519707  0.46191261680924367  0.0687928267455575  1.0000
  C   C52       1.0  0.13961148875259974  0.5380858892185927  0.9312068318479375  1.0000
  C   C53       1.0  0.9259705008829755  0.5530036601190461  0.20818152902624826  1.0000
  C   C54       1.0  0.07402468486776567  0.44699898883183653  0.7918190888431764  1.0000
  N   N1        1.0  0.6419004690768517  0.9393543493922963  0.3758720134580783  1.0000
  N   N2        1.0  0.3581007191023957  0.060646245516210194  0.6241289937016035  1.0000
  N   N3        1.0  0.0712562910793721  0.2131051488364619  0.1377244195423444  1.0000
  N   N4        1.0  0.9287460091988606  0.7868954443383771  0.862275486285  1.0000
  N   N5        1.0  0.2477480860829572  0.2497425780943345  0.020946285244121995  1.0000
  N   N6        1.0  0.752253095034483  0.7502580065599388  0.9790525011755303  1.0000
  N   N7        1.0  0.8103532459891839  0.47724838112319656  0.14586214285109378  1.0000
  N   N8        1.0  0.18964424521136888  0.5227511599945132  0.8541376167651363  1.0000
  O   O1        1.0  0.3169804279002904  0.037924248145209595  0.10823916905604138  1.0000
  O   O2        1.0  0.6830165789547634  0.9620804991106977  0.8917655642669187  1.0000
  O   O3        1.0  0.3763180958559076  0.19082204383642684  0.21844837073830795  1.0000
  O   O4        1.0  0.6236835183678622  0.8091764826260075  0.7815535357082479  1.0000
  O   O5        1.0  0.35723506832513857  0.48185337608471457  0.20455720982264577  1.0000
  O   O6        1.0  0.6427675732148687  0.5181482478827705  0.7954411405100854  1.0000
  O   O7        1.0  0.23850615385657647  0.5390539744998577  0.10895291807220528  1.0000
  O   O8        1.0  0.7614864540762625  0.46094762918079374  0.8910475716614599  1.0000
  O   O9        1.0  0.5576407636253791  0.3539897303476351  0.10624564338129969  1.0000
  O   O10       1.0  0.4423575726024183  0.6460056636236831  0.8937536940686569  1.0000
