data_image0
_chemical_formula_structural       Zr6H22C51Br10O32
_chemical_formula_sum              "Zr6 H22 C51 Br10 O32"
_cell_length_a       14.786195586908628
_cell_length_b       14.800317322736351
_cell_length_c       14.848710350090428
_cell_angle_alpha    60.036168611902625
_cell_angle_beta     59.90283426621313
_cell_angle_gamma    60.21286047464384

_space_group_name_H-M_alt    "P 1"
_space_group_IT_number       1

loop_
  _space_group_symop_operation_xyz
  'x, y, z'

loop_
  _atom_site_type_symbol
  _atom_site_label
  _atom_site_symmetry_multiplicity
  _atom_site_fract_x
  _atom_site_fract_y
  _atom_site_fract_z
  _atom_site_occupancy
  Zr  Zr1       1.0  0.8759775579085768  0.8848453499036284  0.61503055660593  1.0000
  Zr  Zr2       1.0  0.12226978784030254  0.11547109405625383  0.3842604148619698  1.0000
  Zr  Zr3       1.0  0.11464946795146598  0.877534048202101  0.6222073242752015  1.0000
  Zr  Zr4       1.0  0.8839977391295335  0.12414214979430241  0.3757878133059904  1.0000
  Zr  Zr5       1.0  0.11799292919589999  0.8812171748490061  0.3802457796001874  1.0000
  Zr  Zr6       1.0  0.8797186577455419  0.11959809998501235  0.618764998718106  1.0000
  H   H1        1.0  0.08589702174018028  0.7190819023121267  0.5938507120854978  1.0000
  H   H2        1.0  0.09932222438656874  0.09481053834644372  0.21806292411966405  1.0000
  H   H3        1.0  0.09334004653554474  0.08838319640243242  0.5989673522923126  1.0000
  H   H4        1.0  0.7170407484619826  0.10020324505414645  0.5877543333667246  1.0000
  H   H5        1.0  0.15027926564758326  0.5785925062211988  0.3834640362845008  1.0000
  H   H6        1.0  0.8403555818944353  0.4294332350805235  0.6083176660721108  1.0000
  H   H7        1.0  0.6224645882561218  0.10593443507241354  0.9310619842874956  1.0000
  H   H8        1.0  0.3881019265354621  0.8813611777625783  0.0798338733229897  1.0000
  H   H9        1.0  0.8576134581065276  0.13334479339216915  0.09751755386647425  1.0000
  H   H10       1.0  0.1301388946469756  0.85707210018942  0.9117873456710367  1.0000
  H   H11       1.0  0.5995130937153873  0.41286990638406024  0.35555389053061487  1.0000
  H   H12       1.0  0.4105620193500456  0.599860332796361  0.630579464628397  1.0000
  H   H13       1.0  0.13515211960032036  0.5991020381533902  0.9093988526168956  1.0000
  H   H14       1.0  0.7372821070580355  0.6155414594350931  0.9748230751649699  1.0000
  H   H15       1.0  0.8241962857984858  0.5309927440308474  0.8896544689682384  1.0000
  H   H16       1.0  0.8373399748244592  0.36127575549341645  0.058876285254406545  1.0000
  H   H17       1.0  0.7505189199307835  0.4458462754384271  0.14418538863635874  1.0000
  H   H18       1.0  0.6031521507753297  0.8639025186370335  0.6271984358440079  1.0000
  H   H19       1.0  0.4039865594383016  0.12884862898852142  0.3627882982036538  1.0000
  H   H20       1.0  0.1752794357753444  0.4943029709743101  0.096189561530224  1.0000
  H   H21       1.0  0.18950618298489985  0.35271208068009235  0.14690498065291277  1.0000
  H   H22       1.0  0.25871401964938895  0.41640861654744304  0.005794213343918396  1.0000
  C   C1        1.0  0.9859628070233337  0.7057481607718047  0.4953768991606323  1.0000
  C   C2        1.0  0.3116204301519757  0.9951394023377276  0.20560234745111222  1.0000
  C   C3        1.0  0.0055818360625607705  0.3012880788754444  0.4978016731607509  1.0000
  C   C4        1.0  0.6945424001500197  0.9973788108567522  0.8014496730244645  1.0000
  C   C5        1.0  0.9888540835259146  0.7015270744813195  0.8054659778698506  1.0000
  C   C6        1.0  0.6999966779452647  0.008834038175628424  0.4837748972611138  1.0000
  C   C7        1.0  0.0043871439793007885  0.3068491287481693  0.19961492663315986  1.0000
  C   C8        1.0  0.3060384162809125  0.985096669482019  0.5073237820680844  1.0000
  C   C9        1.0  0.3025474360281137  0.6974701432857418  0.49446320040828334  1.0000
  C   C10       1.0  0.987205662662475  0.9968357262088509  0.8103183061202728  1.0000
  C   C11       1.0  0.7044738935550471  0.3120125407022343  0.4949655177227114  1.0000
  C   C12       1.0  0.0033696801613700986  0.996199187231369  0.196097701806586  1.0000
  C   C13       1.0  0.006078711709250236  0.4039559009690379  0.4944319583703275  1.0000
  C   C14       1.0  0.9847331623418538  0.6038352327346034  0.4977983953479991  1.0000
  C   C15       1.0  0.09480759401193949  0.4463354379179806  0.4309598457173107  1.0000
  C   C16       1.0  0.8966516516333696  0.5604816130133657  0.5626634701789328  1.0000
  C   C17       1.0  0.0823787646903042  0.5450389925672214  0.4326718436595839  1.0000
  C   C18       1.0  0.9083952411713058  0.46279625458588947  0.5594160906493427  1.0000
  C   C19       1.0  0.41371268954415524  0.9959470071459012  0.10495636124787937  1.0000
  C   C20       1.0  0.5960050248068426  0.9923759455687389  0.9052831389292493  1.0000
  C   C21       1.0  0.4810075479754302  0.05984775842166823  0.062292361343949706  1.0000
  C   C22       1.0  0.5290466071822163  0.9280465469124908  0.9481699004323402  1.0000
  C   C23       1.0  0.5700360674938879  0.056973084041345774  0.9643959632623477  1.0000
  C   C24       1.0  0.4404475403302682  0.9304133459378506  0.046425970028977304  1.0000
  C   C25       1.0  0.9851756286326536  0.9997890851083542  0.9111041359689621  1.0000
  C   C26       1.0  0.0030077905405434314  0.9910278209939065  0.09776157338550458  1.0000
  C   C27       1.0  0.9075428545002492  0.07889499096358348  0.9644180426529871  1.0000
  C   C28       1.0  0.08063049156660168  0.9118782331532104  0.04450743301045898  1.0000
  C   C29       1.0  0.9175482730606531  0.07293831424520662  0.05573205281193342  1.0000
  C   C30       1.0  0.07025887679544959  0.9175063162172351  0.953554138414894  1.0000
  C   C31       1.0  0.4068723213836733  0.5994465694664585  0.4888785200840857  1.0000
  C   C32       1.0  0.6029904616513234  0.4130223192348483  0.4975090702594115  1.0000
  C   C33       1.0  0.4616686610023705  0.5459891581627688  0.4099012949666159  1.0000
  C   C34       1.0  0.5485125004239249  0.46686285054490656  0.5760800946716883  1.0000
  C   C35       1.0  0.55744134886271  0.45503634453542235  0.41559905833540256  1.0000
  C   C36       1.0  0.45281674496037994  0.5578950857705041  0.5703453436718461  1.0000
  C   C37       1.0  0.9901489564250523  0.6024745513238163  0.9064954699393012  1.0000
  C   C38       1.0  0.00469630849597986  0.4079314202003276  0.0998935451303851  1.0000
  C   C39       1.0  0.9136687792916617  0.5471409472971804  0.961180563155203  1.0000
  C   C40       1.0  0.08424860044122076  0.46316212806965507  0.044432227417743816  1.0000
  C   C41       1.0  0.921538900986327  0.45324413873324  0.05463658522339191  1.0000
  C   C42       1.0  0.07390845327124403  0.557711777792747  0.9509813563563012  1.0000
  C   C43       1.0  0.8123284962930343  0.5443122729119099  0.9618524347166683  1.0000
  C   C44       1.0  0.8207092594901934  0.4379736186249519  0.06786090158989573  1.0000
  C   C45       1.0  0.4082032705045645  0.9851201131545652  0.5058900937210423  1.0000
  C   C46       1.0  0.5993019820160725  0.007348631056800229  0.48367026529760426  1.0000
  C   C47       1.0  0.465043313602855  0.9093242253099095  0.5818154628104325  1.0000
  C   C48       1.0  0.5421921527929711  0.08338591578578314  0.4080075823643127  1.0000
  C   C49       1.0  0.5583839958148429  0.9216516545185698  0.5693145237181836  1.0000
  C   C50       1.0  0.4490400834182606  0.07088165008425323  0.4203589589196993  1.0000
  C   C51       1.0  0.18194577330483228  0.42832582754010673  0.07640171091772875  1.0000
  Br  Br1       1.0  0.2375809021941889  0.3760867430603271  0.344205445813877  1.0000
  Br  Br2       1.0  0.756631774780672  0.6262640071479738  0.6559730593796329  1.0000
  Br  Br3       1.0  0.4633572705749245  0.15101395286019684  0.1295174909032255  1.0000
  Br  Br4       1.0  0.5452843593756423  0.838844876234319  0.8794485070847172  1.0000
  Br  Br5       1.0  0.7857364899289223  0.1983268698537802  0.9221261789804271  1.0000
  Br  Br6       1.0  0.20394180357373373  0.7939878349716595  0.08527656738674952  1.0000
  Br  Br7       1.0  0.4157028362090497  0.5866489313240494  0.2919582431665404  1.0000
  Br  Br8       1.0  0.5945269461515679  0.42607251460898266  0.6940057820102864  1.0000
  Br  Br9       1.0  0.42440158283164925  0.7878065130764683  0.7047683149134228  1.0000
  Br  Br10      1.0  0.5813182264933088  0.20647770299320467  0.28659350467881234  1.0000
  O   O1        1.0  0.9109585402456231  0.7456724391137046  0.5717516744258546  1.0000
  O   O2        1.0  0.26997513892165864  0.07219016548555866  0.24473322137469464  1.0000
  O   O3        1.0  0.08254060537631602  0.2591994117805427  0.4235966120588157  1.0000
  O   O4        1.0  0.7338138781122581  0.9236241528839957  0.7588079046103359  1.0000
  O   O5        1.0  0.06729474819459834  0.7406070956062365  0.763937240873318  1.0000
  O   O6        1.0  0.7402330455987423  0.08562165253049892  0.4094220470737182  1.0000
  O   O7        1.0  0.9274357996653035  0.2674636112990856  0.23587475564632845  1.0000
  O   O8        1.0  0.2634085919924091  0.9107155030912039  0.5840827025458423  1.0000
  O   O9        1.0  0.25988960952349766  0.7370361361357355  0.4207560198629138  1.0000
  O   O10       1.0  0.9131607023868965  0.07319502488724808  0.7678914166006549  1.0000
  O   O11       1.0  0.7438208652949356  0.269025849869742  0.5719445523092688  1.0000
  O   O12       1.0  0.07952899863462887  0.9217906362597077  0.23634431508195067  1.0000
  O   O13       1.0  0.06441988814325575  0.9193429072098028  0.7729486400105187  1.0000
  O   O14       1.0  0.7427114633726006  0.27495860086661855  0.4170602252668019  1.0000
  O   O15       1.0  0.9279496852083042  0.07538730402536967  0.23180218867187105  1.0000
  O   O16       1.0  0.2633960960097284  0.7334707749980539  0.5733032022005061  1.0000
  O   O17       1.0  0.9129506719649992  0.7401176711033346  0.7656629716481829  1.0000
  O   O18       1.0  0.26804664399588773  0.062493031631845615  0.43049850982013976  1.0000
  O   O19       1.0  0.07827194503055075  0.2635733971195151  0.24344466613433716  1.0000
  O   O20       1.0  0.7372291090401004  0.9320258557421753  0.5612989659255303  1.0000
  O   O21       1.0  0.732215480259967  0.07519910342200842  0.7634503608311289  1.0000
  O   O22       1.0  0.0644310265222642  0.7429335630887267  0.4189534326233613  1.0000
  O   O23       1.0  0.2716077373994636  0.9194612385522731  0.24231710999259798  1.0000
  O   O24       1.0  0.9273813110929364  0.2638159475089664  0.5747369005999231  1.0000
  O   O25       1.0  0.7972846379891294  0.07262857544150604  0.5618650304842844  1.0000
  O   O26       1.0  0.06637794318937301  0.0627901078065491  0.5713331207323336  1.0000
  O   O27       1.0  0.07102963464192416  0.06702964761045395  0.29808347041815597  1.0000
  O   O28       1.0  0.06152208594448183  0.7991325776870684  0.5661739539454372  1.0000
  O   O29       1.0  0.14789376546322328  0.947258616254004  0.4531415617104456  1.0000
  O   O30       1.0  0.9492989449616687  0.9546480380904329  0.44649978691395376  1.0000
  O   O31       1.0  0.9526622957920521  0.1488272110771974  0.4502472074782985  1.0000
  O   O32       1.0  0.9461538380029992  0.9510821126792312  0.6479878883593101  1.0000
