data_image0
_chemical_formula_structural       Cd4H32C52N8Cl4O8
_chemical_formula_sum              "Cd4 H32 C52 N8 Cl4 O8"
_cell_length_a       8.597373134585226
_cell_length_b       8.650491181078213
_cell_length_c       18.206
_cell_angle_alpha    99.85324005006511
_cell_angle_beta     99.0955730480426
_cell_angle_gamma    108.04647746756203

_space_group_name_H-M_alt    "P 1"
_space_group_IT_number       1

loop_
  _space_group_symop_operation_xyz
  'x, y, z'

loop_
  _atom_site_type_symbol
  _atom_site_label
  _atom_site_symmetry_multiplicity
  _atom_site_fract_x
  _atom_site_fract_y
  _atom_site_fract_z
  _atom_site_occupancy
  Cd  Cd1       1.0  0.21612446015382147  0.5795171288304104  0.5548110863662145  1.0000
  Cd  Cd2       1.0  0.024325012423986388  0.1619727900573125  0.9454032047221687  1.0000
  Cd  Cd3       1.0  0.7838738357776265  0.4204821584137761  0.4451883989088115  1.0000
  Cd  Cd4       1.0  0.9756756394226471  0.838026497186867  0.054596456423226414  1.0000
  H   H1        1.0  0.524484847087926  0.9021957820416731  0.531916725977581  1.0000
  H   H2        1.0  0.3705604390646045  0.492706997251382  0.9680960286361965  1.0000
  H   H3        1.0  0.475514500532121  0.0977997531978616  0.46808418054234824  1.0000
  H   H4        1.0  0.6294430034394052  0.5072935406610171  0.03190284398525729  1.0000
  H   H5        1.0  0.7345956952886041  0.17836404770343256  0.6082349416653087  1.0000
  H   H6        1.0  0.5705398258288669  0.6264472029882742  0.8918226765102091  1.0000
  H   H7        1.0  0.2654052650312266  0.8216327382043147  0.39176508839549473  1.0000
  H   H8        1.0  0.4294620039753525  0.3735520842559126  0.1081759740314325  1.0000
  H   H9        1.0  0.7438043252140716  0.2611020035693699  0.749674228620364  1.0000
  H   H10       1.0  0.5113362749360775  0.4938063346137299  0.750347710274653  1.0000
  H   H11       1.0  0.25619589189037123  0.738896033006597  0.25032584764987575  1.0000
  H   H12       1.0  0.4886631989529704  0.5061929526304496  0.24965076439661257  1.0000
  H   H13       1.0  0.6323882790393398  0.1922727289396988  0.861835972668139  1.0000
  H   H14       1.0  0.3294678285396201  0.2701756014804459  0.6381578071973733  1.0000
  H   H15       1.0  0.3676123728072938  0.8077265583044877  0.1381642377467287  1.0000
  H   H16       1.0  0.6705328233070132  0.7298236857637335  0.3618413046785491  1.0000
  H   H17       1.0  0.41721387514979813  0.005557969554352802  0.9149949424589893  1.0000
  H   H18       1.0  0.08969144040818827  0.0015570819296045005  0.5850551210400496  1.0000
  H   H19       1.0  0.5827864682236381  0.9944438190262659  0.08500599757941527  1.0000
  H   H20       1.0  0.9103080334808595  0.998442205314575  0.41494445217015397  1.0000
  H   H21       1.0  0.980009786763972  0.4220142269790514  0.6679107960836106  1.0000
  H   H22       1.0  0.7537384695965487  0.8120738810252206  0.8321900949374239  1.0000
  H   H23       1.0  0.019987331209890206  0.5779850602651351  0.3320907983341144  1.0000
  H   H24       1.0  0.2462626169922828  0.1879266568871856  0.1678107988915443  1.0000
  H   H25       1.0  0.9600139336805992  0.487152779701681  0.8069440553298363  1.0000
  H   H26       1.0  0.6795597504431398  0.6525574033452131  0.6931831630891238  1.0000
  H   H27       1.0  0.03998405377765834  0.5128490088789379  0.1930572581076646  1.0000
  H   H28       1.0  0.3204398497149015  0.3474456359036254  0.3068178231587169  1.0000
  H   H29       1.0  0.16638087698875376  0.749698054392951  0.8947158232687897  1.0000
  H   H30       1.0  0.8542409370799361  0.7709318993735508  0.6053856658380283  1.0000
  H   H31       1.0  0.8336151892965161  0.2503049848558874  0.10528544844296311  1.0000
  H   H32       1.0  0.14575351650555038  0.2290698892070608  0.394614285254967  1.0000
  C   C1        1.0  0.529966808806634  0.9456727612536397  0.5925412528559448  1.0000
  C   C2        1.0  0.3533157536277685  0.4374449714348572  0.9074867621279238  1.0000
  C   C3        1.0  0.470032230340216  0.0543252753223271  0.4074587354791106  1.0000
  C   C4        1.0  0.6466872541340436  0.5625543158093294  0.0925119763489022  1.0000
  C   C5        1.0  0.6490991789443965  0.0990966961384245  0.6359665676015638  1.0000
  C   C6        1.0  0.46332952117147386  0.5131078971997667  0.864062804691919  1.0000
  C   C7        1.0  0.3509022161176318  0.9009013404375423  0.3640341458733403  1.0000
  C   C8        1.0  0.5366711306751597  0.4868913900444198  0.1359363071840107  1.0000
  C   C9        1.0  0.6533283126705386  0.1443508748861078  0.7130674271953551  1.0000
  C   C10       1.0  0.43124168548045816  0.4400150946198664  0.7869799398354118  1.0000
  C   C11       1.0  0.34667029173411373  0.8556459110216394  0.2869324269950723  1.0000
  C   C12       1.0  0.568759401108373  0.5599854432925326  0.21301930618513856  1.0000
  C   C13       1.0  0.538667115416281  0.0379677857180596  0.7461699622783654  1.0000
  C   C14       1.0  0.2914375492224792  0.2922061221149974  0.7538611816852947  1.0000
  C   C15       1.0  0.46133161525737176  0.9620327521943397  0.253830206410754  1.0000
  C   C16       1.0  0.7085631026241543  0.7077931651291891  0.24613793019063473  1.0000
  C   C17       1.0  0.4204257446999051  0.8872527981903175  0.697123481144601  1.0000
  C   C18       1.0  0.1898285000880691  0.2230766871133483  0.8029230817141907  1.0000
  C   C19       1.0  0.5795718080161549  0.11274773972208153  0.3028765996093341  1.0000
  C   C20       1.0  0.8101714085431764  0.7769238507990508  0.1970760763711752  1.0000
  C   C21       1.0  0.5368178075428459  0.0780129313438067  0.8255331446167701  1.0000
  C   C22       1.0  0.2517326433960463  0.2108876746748436  0.6744851814715958  1.0000
  C   C23       1.0  0.46318210108839236  0.9219876065685924  0.1744665627380684  1.0000
  C   C24       1.0  0.7482684431927851  0.7891128632375557  0.3255140645489618  1.0000
  C   C25       1.0  0.4201871319409349  0.9747620533023991  0.8547405884033665  1.0000
  C   C26       1.0  0.11923188680497529  0.06488841907931693  0.6453175871444471  1.0000
  C   C27       1.0  0.5798112902595206  0.0252409859464322  0.14526030990928968  1.0000
  C   C28       1.0  0.8807675870840656  0.9351108681648628  0.3546825353352361  1.0000
  C   C29       1.0  0.2968819216786969  0.8236062926500338  0.806995838178679  1.0000
  C   C30       1.0  0.015944865539090386  0.9893636047306344  0.6930726820452691  1.0000
  C   C31       1.0  0.703116065779561  0.1763954959305849  0.19300547525882908  1.0000
  C   C32       1.0  0.9840557863075431  0.0106356825135521  0.30692642983065344  1.0000
  C   C33       1.0  0.297211707034826  0.777390350043824  0.7282571810340528  1.0000
  C   C34       1.0  0.0486405667355001  0.0687079598126701  0.7717992037131437  1.0000
  C   C35       1.0  0.7027842329814432  0.2226089372003628  0.27174322690953545  1.0000
  C   C36       1.0  0.9513605198533311  0.9312925780997361  0.22820059157687916  1.0000
  C   C37       1.0  0.06748291724500177  0.5344405449694776  0.709094590398756  1.0000
  C   C38       1.0  0.8248930262287076  0.8582660609353143  0.791005558359366  1.0000
  C   C39       1.0  0.9325169913862367  0.4655599929429215  0.2909067647645002  1.0000
  C   C40       1.0  0.17510806036012377  0.14173447697708505  0.20899533546960208  1.0000
  C   C41       1.0  0.0566831276895314  0.5712314518957555  0.7859200492469396  1.0000
  C   C42       1.0  0.784715290470231  0.7703415839753376  0.7142016976226842  1.0000
  C   C43       1.0  0.9433152945109241  0.4287715873530757  0.214081398335189  1.0000
  C   C44       1.0  0.21528269698801947  0.229660204605274  0.2857990665453443  1.0000
  C   C45       1.0  0.17179259431481594  0.7158212044112275  0.8348776686505204  1.0000
  C   C46       1.0  0.8802398863349907  0.8363118310619768  0.6652196666565757  1.0000
  C   C47       1.0  0.8282042151858491  0.2841805841693841  0.1651230075823236  1.0000
  C   C48       1.0  0.1197588443386621  0.1636887068504222  0.3347805020325438  1.0000
  C   C49       1.0  0.47269899283703143  0.5244602126013973  0.46136198906152964  1.0000
  C   C50       1.0  0.063122330288806  0.5114620178267799  0.03872317972145819  1.0000
  C   C51       1.0  0.5272978166636335  0.4755415759792214  0.5386370393629036  1.0000
  C   C52       1.0  0.9368786300310317  0.4885347680809673  0.9612784981477629  1.0000
  N   N1        1.0  0.41894068943300067  0.844548731936186  0.621910154036307  1.0000
  N   N2        1.0  0.22265332850163586  0.2969273946324762  0.8781463166010894  1.0000
  N   N3        1.0  0.5810559937986709  0.1554493046397809  0.378090207697845  1.0000
  N   N4        1.0  0.7773485013025833  0.7030718926117103  0.12185288321002467  1.0000
  N   N5        1.0  0.18372553073486841  0.6342376153091678  0.6814111421432186  1.0000
  N   N6        1.0  0.9523766866796919  0.0022849708316386  0.818680995563426  1.0000
  N   N7        1.0  0.8162731999387843  0.3657629226032313  0.31859012508484597  1.0000
  N   N8        1.0  0.04762675582432517  0.9977155670807605  0.1813195248664456  1.0000
  Cl  Cl1       1.0  0.9793380187427232  0.287327265402233  0.5172372677923889  1.0000
  Cl  Cl2       1.0  0.7697597751274542  0.9614024154132041  0.9827211167325699  1.0000
  Cl  Cl3       1.0  0.0206623246307133  0.712674523178386  0.48276257370707754  1.0000
  Cl  Cl4       1.0  0.23024000723478363  0.03859437049455041  0.0172782761235695  1.0000
  O   O1        1.0  0.3438387796712661  0.5672943483500532  0.4525284005249901  1.0000
  O   O2        1.0  0.11434171103690008  0.3918306002408016  0.047757527968570884  1.0000
  O   O3        1.0  0.6561706788896942  0.4327099415669906  0.5474717755405649  1.0000
  O   O4        1.0  0.8856608619827214  0.6081674363351652  0.9522432734415174  1.0000
  O   O5        1.0  0.560247299917819  0.5175340120181391  0.41191690985858287  1.0000
  O   O6        1.0  0.10610851306303458  0.6482088299562605  0.08808275893262159  1.0000
  O   O7        1.0  0.4397561425861908  0.4824665258942603  0.5880797656849878  1.0000
  O   O8        1.0  0.8938936252143818  0.3517879559514867  0.9119195561412496  1.0000
