data_image0
_chemical_formula_structural       Zn2H28C36N8Cl4O4
_chemical_formula_sum              "Zn2 H28 C36 N8 Cl4 O4"
_cell_length_a       7.8473254796825636
_cell_length_b       11.591575601417212
_cell_length_c       11.669239446742822
_cell_angle_alpha    75.92120473619144
_cell_angle_beta     87.57681499108297
_cell_angle_gamma    77.87577242398467

_space_group_name_H-M_alt    "P 1"
_space_group_IT_number       1

loop_
  _space_group_symop_operation_xyz
  'x, y, z'

loop_
  _atom_site_type_symbol
  _atom_site_label
  _atom_site_symmetry_multiplicity
  _atom_site_fract_x
  _atom_site_fract_y
  _atom_site_fract_z
  _atom_site_occupancy
  Zn  Zn1       1.0  0.3881071960138912  0.5305882171113154  0.2551134463409639  1.0000
  Zn  Zn2       1.0  0.6118888582961546  0.4694135320633564  0.7448893263225427  1.0000
  H   H1        1.0  0.8133666614237709  0.6318386491800254  0.5235176290912661  1.0000
  H   H2        1.0  0.18663207060431122  0.36816763247453826  0.4764771589046218  1.0000
  H   H3        1.0  0.8276246599599375  0.952203887845265  0.4345778656324411  1.0000
  H   H4        1.0  0.1723759427974727  0.04780422877526999  0.5654207399994959  1.0000
  H   H5        1.0  0.6454262212556685  0.5620040737713623  0.07524192416711628  1.0000
  H   H6        1.0  0.3545769799262501  0.437982231091496  0.9247653089421203  1.0000
  H   H7        1.0  0.9100333980255614  0.6542233510560536  0.03023974043012598  1.0000
  H   H8        1.0  0.08996846590770256  0.34576838050409714  0.9697567808416279  1.0000
  H   H9        1.0  0.009485514851029251  0.7506897336104216  0.17964995601337821  1.0000
  H   H10       1.0  0.9905048347374218  0.24931925271970806  0.8203417342346383  1.0000
  H   H11       1.0  0.5759096070180976  0.6567039515453956  0.3963467355305708  1.0000
  H   H12       1.0  0.4240807679279471  0.3433086875724386  0.6036492201166723  1.0000
  H   H13       1.0  0.9955428646344233  0.5672758280967329  0.6886536985797773  1.0000
  H   H14       1.0  0.004454540754999053  0.4327268007476945  0.31133770026296037  1.0000
  H   H15       1.0  0.08662423347252006  0.6154542210944456  0.8706899073901865  1.0000
  H   H16       1.0  0.913365344177926  0.38454021507397584  0.1293061448718902  1.0000
  H   H17       1.0  0.03492304889049799  0.8304676089926346  0.885774120091426  1.0000
  H   H18       1.0  0.9650723354577625  0.16952412001577952  0.11422592546622205  1.0000
  H   H19       1.0  0.8902502812959131  0.9965878914107761  0.7190651933442067  1.0000
  H   H20       1.0  0.10975367177140781  0.0034047710723897  0.28093707369391296  1.0000
  H   H21       1.0  0.6190247576760299  0.999589442013246  0.31480002680043373  1.0000
  H   H22       1.0  0.3809839339603656  0.00041234153965059953  0.6852059806245308  1.0000
  H   H23       1.0  0.4900849479266186  0.1337242613884868  0.12464526175113377  1.0000
  H   H24       1.0  0.5099279195983043  0.8662766133096299  0.8753583311770752  1.0000
  H   H25       1.0  0.40262965050649063  0.35874757576931426  0.10767204934129636  1.0000
  H   H26       1.0  0.5973800703656452  0.6412551167280964  0.8923328675961598  1.0000
  H   H27       1.0  0.580235720151265  0.32098677266450437  0.4470900300142375  1.0000
  H   H28       1.0  0.4197620186086797  0.6790131733258207  0.5529174365527182  1.0000
  C   C1        1.0  0.6936486670322353  0.6057383594342414  0.13643981056851825  1.0000
  C   C2        1.0  0.30634560231438707  0.39425700770206623  0.8635602349677922  1.0000
  C   C3        1.0  0.8395015818263972  0.6572595004364602  0.11198276808602255  1.0000
  C   C4        1.0  0.1604940677994976  0.3427395146308497  0.8880189527145672  1.0000
  C   C5        1.0  0.89493540747845  0.7100373982541582  0.1949186291423786  1.0000
  C   C6        1.0  0.10505334726829567  0.2899679596614746  0.805078241396863  1.0000
  C   C7        1.0  0.804028142018069  0.7079682398110309  0.3009161371753564  1.0000
  C   C8        1.0  0.19596435034503662  0.29204167256299485  0.6990795849501551  1.0000
  C   C9        1.0  0.6568098520273936  0.656040005847082  0.318380165464731  1.0000
  C   C10       1.0  0.34318017187511163  0.3439698942842568  0.6816130244307173  1.0000
  C   C11       1.0  0.863291074626503  0.7675471641400194  0.38718822335931674  1.0000
  C   C12       1.0  0.13670394130052452  0.23245910037030626  0.6128031947637138  1.0000
  C   C13       1.0  0.894062798802658  0.7539767721090485  0.6015257452607797  1.0000
  C   C14       1.0  0.10594445507157967  0.24602225291841504  0.39847151710295486  1.0000
  C   C15       1.0  0.9731255306734712  0.6611830415619339  0.6964839913795443  1.0000
  C   C16       1.0  0.02688080124625003  0.3388150647627696  0.30351093369395693  1.0000
  C   C17       1.0  0.02260933420129878  0.688183540251039  0.7984258564598432  1.0000
  C   C18       1.0  0.977385826437242  0.3118136325540418  0.20156859962532536  1.0000
  C   C19       1.0  0.9929661389757527  0.8089669004998896  0.8069341920300771  1.0000
  C   C20       1.0  0.007034497369666332  0.19103301870010367  0.19306209565592516  1.0000
  C   C21       1.0  0.9128889212427896  0.9021711287108332  0.714246831546127  1.0000
  C   C22       1.0  0.08711203932586638  0.0978315319152259  0.28575307883610174  1.0000
  C   C23       1.0  0.862323609418702  0.8762974853088679  0.610928364944513  1.0000
  C   C24       1.0  0.13768719432976445  0.12370611125393079  0.38907374761655683  1.0000
  C   C25       1.0  0.6757213086123813  0.07683041215693721  0.5169888970991607  1.0000
  C   C26       1.0  0.3242784564937226  0.9231758939156904  0.4830135840950404  1.0000
  C   C27       1.0  0.6110294961558012  0.1501755074058906  0.3962538676313371  1.0000
  C   C28       1.0  0.38897336726747533  0.8498244459928584  0.6037526647846646  1.0000
  C   C29       1.0  0.5864964880983409  0.09764169258507138  0.3036532403393579  1.0000
  C   C30       1.0  0.41351477927987906  0.9023600934522523  0.6963518715379137  1.0000
  C   C31       1.0  0.5126802206151098  0.17181741715794632  0.19778233337441964  1.0000
  C   C32       1.0  0.4873333236392983  0.8281852827254568  0.8022225256581519  1.0000
  C   C33       1.0  0.4637469072831025  0.29607105942697837  0.18723342672598872  1.0000
  C   C34       1.0  0.5362612402626328  0.7039325419700759  0.8127721522160911  1.0000
  C   C35       1.0  0.5605673049906484  0.27621278213389644  0.3779380625139196  1.0000
  C   C36       1.0  0.4394381073541425  0.7237871761888499  0.6220684312988283  1.0000
  N   N1        1.0  0.6036837692100365  0.6061799745109296  0.23736695718506698  1.0000
  N   N2        1.0  0.3963121524611922  0.39381813163429763  0.7626349778569688  1.0000
  N   N3        1.0  0.8407899277114839  0.7177368772004372  0.5033476965899125  1.0000
  N   N4        1.0  0.15920901887903943  0.2822693849376208  0.49664023585047784  1.0000
  N   N5        1.0  0.7842640316418543  0.9687772068896481  0.5152782202752633  1.0000
  N   N6        1.0  0.21573961048712684  0.031229101689845603  0.48472248912518257  1.0000
  N   N7        1.0  0.48713453266816503  0.3472243987727238  0.2759600724201619  1.0000
  N   N8        1.0  0.512869551575264  0.6527755619671539  0.7240481545830871  1.0000
  Cl  Cl1       1.0  0.27413203183252216  0.596384030230425  0.07174990555026987  1.0000
  Cl  Cl2       1.0  0.7258631326483072  0.4036122580482127  0.9282533342207201  1.0000
  Cl  Cl3       1.0  0.24529661662784735  0.5568999407571056  0.4198186895515902  1.0000
  Cl  Cl4       1.0  0.7546930600734144  0.4431063358612946  0.580180518277892  1.0000
  O   O1        1.0  0.927719023976536  0.8593787556353832  0.34957394436521116  1.0000
  O   O2        1.0  0.07227452444261225  0.1406320632435865  0.6504198303283457  1.0000
  O   O3        1.0  0.6247247135229516  0.11326875832311598  0.606541878159497  1.0000
  O   O4        1.0  0.3752789660363264  0.8867284683093928  0.3934652969808425  1.0000
