data_image0
_chemical_formula_structural       Ag4H20C10S4N8
_chemical_formula_sum              "Ag4 H20 C10 S4 N8"
_cell_length_a       5.9479301821217145
_cell_length_b       6.233851197741902
_cell_length_c       14.111640483866287
_cell_angle_alpha    90.00565350788233
_cell_angle_beta     92.94329268790116
_cell_angle_gamma    90.00536033268432

_space_group_name_H-M_alt    "P 1"
_space_group_IT_number       1

loop_
  _space_group_symop_operation_xyz
  'x, y, z'

loop_
  _atom_site_type_symbol
  _atom_site_label
  _atom_site_symmetry_multiplicity
  _atom_site_fract_x
  _atom_site_fract_y
  _atom_site_fract_z
  _atom_site_occupancy
  Ag  Ag1       1.0  0.39358281363755043  0.21527455176570232  0.042653806319464097  1.0000
  Ag  Ag2       1.0  0.3935983730119403  0.7847493428436603  0.5426639670857938  1.0000
  Ag  Ag3       1.0  0.6064051156739936  0.7848556665574693  0.957346746819077  1.0000
  Ag  Ag4       1.0  0.6063894579818411  0.21513383935891278  0.45734438155950846  1.0000
  H   H1        1.0  0.6004520507873465  0.46341135389258165  0.17851647392998868  1.0000
  H   H2        1.0  0.6003942735025447  0.536599018555755  0.6784773123464731  1.0000
  H   H3        1.0  0.3995779259560024  0.5366514906722982  0.8214885984356286  1.0000
  H   H4        1.0  0.39962382946664116  0.4633403094235147  0.32153598966159797  1.0000
  H   H5        1.0  0.7655367239888734  0.4397655608816606  0.0916286162037068  1.0000
  H   H6        1.0  0.7655148758532846  0.5602578552092224  0.5916039339961543  1.0000
  H   H7        1.0  0.2344798146963498  0.5602860538923692  0.90837260139665  1.0000
  H   H8        1.0  0.23449147427938746  0.43968468025576607  0.40840555217413776  1.0000
  H   H9        1.0  0.7208692190963999  0.11369383627243926  0.2415506165487287  1.0000
  H   H10       1.0  0.7209076654874309  0.8862966756798867  0.7415732189345263  1.0000
  H   H11       1.0  0.2791086836482748  0.8863321100245327  0.7584397842323584  1.0000
  H   H12       1.0  0.2790735158841001  0.11366671149206549  0.2584264709055901  1.0000
  H   H13       1.0  0.8984689294492652  0.09511266797355938  0.145397688111693  1.0000
  H   H14       1.0  0.8985320174666567  0.9049011903827591  0.6454296602693717  1.0000
  H   H15       1.0  0.1015106639446586  0.9049212988226145  0.854592043154561  1.0000
  H   H16       1.0  0.10143404433048178  0.0950670084730874  0.35456613562455175  1.0000
  H   H17       1.0  0.08555510825437551  0.4446364560102437  0.2005558973262893  1.0000
  H   H18       1.0  0.0854999676704935  0.5553514920173157  0.7005440159425406  1.0000
  H   H19       1.0  0.9144680897711625  0.5553638282027719  0.7994532703434559  1.0000
  H   H20       1.0  0.9145165205400403  0.444642374930666  0.2994621616077424  1.0000
  C   C1        1.0  0.1054206739039643  0.7717932512410143  0.0682649808481486  1.0000
  C   C2        1.0  0.10540036004557858  0.22821612193974516  0.5682732403249773  1.0000
  C   C3        1.0  0.8945791164397575  0.22825354859152466  0.9317259273775065  1.0000
  C   C4        1.0  0.8946026749611349  0.7717440575863818  0.4317304996381495  1.0000
  C   C5        1.0  0.8220318517758897  0.20861310904788868  0.1937370665764675  1.0000
  C   C6        1.0  0.8220506932839555  0.7913910735691232  0.6937492812459567  1.0000
  C   C7        1.0  0.1779594882468345  0.7914176504607014  0.8062571890232421  1.0000
  C   C8        1.0  0.17793553887695165  0.20857552181239206  0.3062505257100909  1.0000
  C   C9        1.0  9.316239520300133e-06  0.33876579416062913  0.2500023884444644  1.0000
  C   C10       1.0  0.999997096393237  0.6612312804445252  0.7500007208112436  1.0000
  S   S1        1.0  0.35259481070296067  0.8129375475536945  0.12097692422794641  1.0000
  S   S2        1.0  0.35256274800995163  0.1870774165852964  0.6209929138929624  1.0000
  S   S3        1.0  0.6474050122394955  0.18712208444659945  0.879010441412639  1.0000
  S   S4        1.0  0.647440335098338  0.8128699281972869  0.37900515821154096  1.0000
  N   N1        1.0  0.9267879019287193  0.7405523493373066  0.029933200319575796  1.0000
  N   N2        1.0  0.9267853102646766  0.25946147170864003  0.529938340452965  1.0000
  N   N3        1.0  0.0732051130453968  0.25951049343699134  0.9700625110521984  1.0000
  N   N4        1.0  0.0732109706929549  0.7404858753601927  0.4700673689137389  1.0000
  N   N5        1.0  0.6704594265949025  0.35096341589073876  0.1360620152672141  1.0000
  N   N6        1.0  0.6704607603093111  0.64905860535184  0.6360465225672414  1.0000
  N   N7        1.0  0.3295486955381577  0.649094615595942  0.8639390070420916  1.0000
  N   N8        1.0  0.32953887438570467  0.3508823254806686  0.3639606819392327  1.0000
