data_image0
_chemical_formula_structural       Zn2P4H40C14Cl4O18
_chemical_formula_sum              "Zn2 P4 H40 C14 Cl4 O18"
_cell_length_a       7.054910726818973
_cell_length_b       8.92823253286386
_cell_length_c       14.026668494838663
_cell_angle_alpha    77.17396856702761
_cell_angle_beta     87.79723876764182
_cell_angle_gamma    71.33364686171831

_space_group_name_H-M_alt    "P 1"
_space_group_IT_number       1

loop_
  _space_group_symop_operation_xyz
  'x, y, z'

loop_
  _atom_site_type_symbol
  _atom_site_label
  _atom_site_symmetry_multiplicity
  _atom_site_fract_x
  _atom_site_fract_y
  _atom_site_fract_z
  _atom_site_occupancy
  Zn  Zn1       1.0  0.7804308727505359  0.2076623582954014  0.07519243015232749  1.0000
  Zn  Zn2       1.0  0.2195634740985425  0.7923359187114442  0.9248057251429884  1.0000
  P   P1        1.0  0.3677321531657611  0.29520092873841  0.1973494625744365  1.0000
  P   P2        1.0  0.6322674127744959  0.7047985954422413  0.8026490245061737  1.0000
  P   P3        1.0  0.23538940193250843  0.9927270150271919  0.18544922193746777  1.0000
  P   P4        1.0  0.7646302008658027  0.007265340037079698  0.8145517630190255  1.0000
  H   H1        1.0  0.6326680931909082  0.9594517338571578  0.09226198388328301  1.0000
  H   H2        1.0  0.3673287335576275  0.04054779494842359  0.907738029726488  1.0000
  H   H3        1.0  0.7940891650798104  0.9456055655681934  0.00588079936800063  1.0000
  H   H4        1.0  0.20591283529426357  0.0543952015850806  0.9941188356690133  1.0000
  H   H5        1.0  0.9670438981020197  0.41463587464488677  0.09428988582571658  1.0000
  H   H6        1.0  0.03295942573661382  0.5853612291507702  0.9057081189771238  1.0000
  H   H7        1.0  0.7901344982178813  0.5076990932148605  0.014015319264508686  1.0000
  H   H8        1.0  0.2098719611673373  0.4923004282295763  0.985980061851258  1.0000
  H   H9        1.0  0.6097728061480862  0.2423259786895642  0.9009208079197748  1.0000
  H   H10       1.0  0.39021527027347236  0.7576711152387574  0.09908275136122315  1.0000
  H   H11       1.0  0.692549964629478  0.3945929151890368  0.8971996447360411  1.0000
  H   H12       1.0  0.30743572348957565  0.605406596811811  0.10280363355815332  1.0000
  H   H13       1.0  0.6203243816083982  0.258896724411251  0.3464695501473187  1.0000
  H   H14       1.0  0.3796738602016488  0.7411028109079821  0.6535304105559376  1.0000
  H   H15       1.0  0.6605459766868265  0.5149721282675727  0.2489714763731357  1.0000
  H   H16       1.0  0.3394536801847252  0.48502741356531226  0.7510284314235918  1.0000
  H   H17       1.0  0.7142470114792727  0.4949921361250489  0.3747993388707016  1.0000
  H   H18       1.0  0.2857508801072087  0.5050086379656236  0.6252025859600607  1.0000
  H   H19       1.0  0.4800016206317892  0.6293535287932527  0.3199584358550068  1.0000
  H   H20       1.0  0.5200008656971278  0.37064237384789317  0.6800412095171352  1.0000
  H   H21       1.0  0.2943390617390875  0.4812891143187911  0.4498985901097825  1.0000
  H   H22       1.0  0.705659089805323  0.518714055567244  0.5501001064888982  1.0000
  H   H23       1.0  0.522138885974286  0.3377948141236046  0.5057389630204837  1.0000
  H   H24       1.0  0.4778573184224655  0.6622095527157511  0.4942589091799974  1.0000
  H   H25       1.0  0.3388810658252197  0.2701794962578035  0.4608998803157576  1.0000
  H   H26       1.0  0.6611152743028156  0.7298212448408632  0.5390999663473579  1.0000
  H   H27       1.0  0.8643279064746352  0.9819115933151534  0.261387448570602  1.0000
  H   H28       1.0  0.1356654677991003  0.018092760496905693  0.7386105294429299  1.0000
  H   H29       1.0  0.09018294878033123  0.7287734754556181  0.44066694275251456  1.0000
  H   H30       1.0  0.9098214412275638  0.27123217806319383  0.5593332864943932  1.0000
  H   H31       1.0  0.8333478385470697  0.8471819797627873  0.43571621587596354  1.0000
  H   H32       1.0  0.16665513573366295  0.15282001502334447  0.5642839096659245  1.0000
  H   H33       1.0  0.020452829604572315  0.9434382698388715  0.4259915426557441  1.0000
  H   H34       1.0  0.9795467376670002  0.0565685587798512  0.5740072576479491  1.0000
  H   H35       1.0  0.9323377576745386  0.7373179945281124  0.18760895254360574  1.0000
  H   H36       1.0  0.06766535167181331  0.26267672229830197  0.8123929908493678  1.0000
  H   H37       1.0  0.7600606255571306  0.7423671104365752  0.2823644770110647  1.0000
  H   H38       1.0  0.23994438613688374  0.257630052829434  0.7176377370335985  1.0000
  H   H39       1.0  0.0129958947840336  0.6092615333837655  0.3055626163368784  1.0000
  H   H40       1.0  0.987004476701905  0.3907404925056496  0.6944411668083461  1.0000
  C   C1        1.0  0.26672660255427866  0.13106188413597408  0.2616710565666907  1.0000
  C   C2        1.0  0.7332755342167375  0.8689389094956466  0.7383307095444991  1.0000
  C   C3        1.0  0.5064903536252673  0.37557433253464007  0.3488777060722795  1.0000
  C   C4        1.0  0.49350793365042034  0.6244252116107133  0.6511229649890283  1.0000
  C   C5        1.0  0.5953104726976193  0.5120639859764322  0.3213667576073362  1.0000
  C   C6        1.0  0.404692987537956  0.4879331442975782  0.678633378269673  1.0000
  C   C7        1.0  0.4093305264868974  0.3655725245570025  0.4471887639032346  1.0000
  C   C8        1.0  0.5906667868821386  0.6344257919554863  0.5528114166532063  1.0000
  C   C9        1.0  0.9703707820318713  0.8636196219315834  0.29614355011547394  1.0000
  C   C10       1.0  0.029627505909473877  0.1363835744328057  0.7038572775573754  1.0000
  C   C11       1.0  0.9801265452392655  0.8452572442306235  0.4061868604819948  1.0000
  C   C12       1.0  0.019875943086617588  0.15474961506763657  0.5938132547247646  1.0000
  C   C13       1.0  0.9171976996954783  0.7287886084176378  0.26644592815724627  1.0000
  C   C14       1.0  0.08280576120574779  0.2712121740754013  0.7335543643313045  1.0000
  Cl  Cl1       1.0  0.025719606852320005  0.2290129722293343  0.3039043910339103  1.0000
  Cl  Cl2       1.0  0.9742785446920903  0.7709901976566937  0.6960943055647704  1.0000
  Cl  Cl3       1.0  0.4300359082422176  0.008412562654442  0.3640961998415051  1.0000
  Cl  Cl4       1.0  0.5699601264622485  0.9915857738227557  0.6359061646956335  1.0000
  O   O1        1.0  0.7559614094305045  0.9836111652842943  0.06682877529539163  1.0000
  O   O2        1.0  0.24403572340725788  0.0163944203617987  0.9331688770518981  1.0000
  O   O3        1.0  0.8260519033206462  0.4284156919499579  0.07756718946275498  1.0000
  O   O4        1.0  0.17394938310469135  0.5715862433658215  0.9224287268373103  1.0000
  O   O5        1.0  0.6461466615086096  0.31114544879040545  0.9397179708535859  1.0000
  O   O6        1.0  0.3538290302485906  0.6888539999626457  0.06028425707015832  1.0000
  O   O7        1.0  0.5845851016966607  0.2118183336268942  0.17999287617951149  1.0000
  O   O8        1.0  0.4154254331808004  0.788175176996333  0.8200068385533397  1.0000
  O   O9        1.0  0.2258075715624983  0.3989746904305277  0.11265637707039393  1.0000
  O   O10       1.0  0.7742015930534478  0.601015170286125  0.8873439443154965  1.0000
  O   O11       1.0  0.3495454180966533  0.4056228491546179  0.2742028622280799  1.0000
  O   O12       1.0  0.6504588796486389  0.5943754822738965  0.7257956330796274  1.0000
  O   O13       1.0  0.07699642481301788  0.09590307793060761  0.1060406389764523  1.0000
  O   O14       1.0  0.9229927952074845  0.9041012739927297  0.8939589184727552  1.0000
  O   O15       1.0  0.43512697055518856  0.9070772581687763  0.1482699340551719  1.0000
  O   O16       1.0  0.5648584467669481  0.09293315753247809  0.8517295519253025  1.0000
  O   O17       1.0  0.17157061371062818  0.8574727475019086  0.25985811992386226  1.0000
  O   O18       1.0  0.8284264729958294  0.1425291770990355  0.7401386654538342  1.0000
