data_image0
_chemical_formula_structural       Mn2H32C28N28O4
_chemical_formula_sum              "Mn2 H32 C28 N28 O4"
_cell_length_a       9.58962714099614
_cell_length_b       9.491892623253435
_cell_length_c       12.234143918536228
_cell_angle_alpha    96.3128877902192
_cell_angle_beta     95.53019495058452
_cell_angle_gamma    117.62693396999806

_space_group_name_H-M_alt    "P 1"
_space_group_IT_number       1

loop_
  _space_group_symop_operation_xyz
  'x, y, z'

loop_
  _atom_site_type_symbol
  _atom_site_label
  _atom_site_symmetry_multiplicity
  _atom_site_fract_x
  _atom_site_fract_y
  _atom_site_fract_z
  _atom_site_occupancy
  Mn  Mn1       1.0  6.563103916269994e-06  0.5000105037899302  2.1526515397011034e-06  1.0000
  Mn  Mn2       1.0  0.9999943537268337  0.4999967713293144  0.49999954993468526  1.0000
  H   H1        1.0  0.4759383159704598  0.1107557351153616  0.3209301194198559  1.0000
  H   H2        1.0  0.5240573038865649  0.8892396352750253  0.679068862018788  1.0000
  H   H3        1.0  0.4185387468713344  0.050394217697430604  0.1829849566405528  1.0000
  H   H4        1.0  0.581465435728191  0.9496080658137346  0.8170093798661213  1.0000
  H   H5        1.0  0.5723658237871376  0.5660019995939792  0.3407062532621481  1.0000
  H   H6        1.0  0.42763092430678995  0.43399571383705643  0.6592913308789364  1.0000
  H   H7        1.0  0.6207134228262774  0.4083299828375289  0.3487323555546098  1.0000
  H   H8        1.0  0.3792813771198382  0.5916701931705433  0.6512652534985861  1.0000
  H   H9        1.0  0.9211718385396566  0.9325044101562697  0.16791500107741095  1.0000
  H   H10       1.0  0.07882579600912719  0.0674908210959586  0.8320816627141809  1.0000
  H   H11       1.0  0.07102369903216038  0.8760683496899944  0.15211657743394372  1.0000
  H   H12       1.0  0.9289714820658759  0.12391965803199412  0.8478802434615531  1.0000
  H   H13       1.0  0.7914818397710165  0.38105247420939753  0.21801455109999074  1.0000
  H   H14       1.0  0.208517338707388  0.618950210649686  0.7819868120808664  1.0000
  H   H15       1.0  0.7638187339107035  0.6705828860491679  0.9870888208804729  1.0000
  H   H16       1.0  0.2361815945434387  0.3294221775189072  0.012911966707179104  1.0000
  H   H17       1.0  0.5457895193377736  0.6371701542413462  0.1304817663908295  1.0000
  H   H18       1.0  0.4542024396046855  0.3628263449306033  0.8695137563538823  1.0000
  H   H19       1.0  0.11687649178233528  0.7160691711384715  0.2843611773329258  1.0000
  H   H20       1.0  0.8831290568538603  0.2839336313312657  0.7156455584721969  1.0000
  H   H21       1.0  0.8252253240235702  0.7306152291286168  0.5183800936906948  1.0000
  H   H22       1.0  0.1747760443847  0.2693898183728933  0.48162076762996975  1.0000
  H   H23       1.0  0.8490258979477474  0.9483111645636554  0.3761296896414308  1.0000
  H   H24       1.0  0.15096868195514898  0.05168422189330361  0.6238692180642005  1.0000
  H   H25       1.0  0.2246621795120589  0.5333865406047736  0.1968697687963115  1.0000
  H   H26       1.0  0.7753400970899023  0.46661606038627207  0.803130993879229  1.0000
  H   H27       1.0  0.2894884498021355  0.6918692653603955  0.1416023491324694  1.0000
  H   H28       1.0  0.710526202628749  0.3081393696482592  0.8584029792355636  1.0000
  H   H29       1.0  0.816123386459516  0.2128419586992436  0.35512073171859276  1.0000
  H   H30       1.0  0.18386880520914423  0.7871463112325046  0.6448807982040208  1.0000
  H   H31       1.0  0.9750050565785742  0.28184694509900504  0.29945019988994664  1.0000
  H   H32       1.0  0.024989545063163945  0.7181484770262896  0.7005495295200461  1.0000
  C   C1        1.0  0.3844785535657209  0.33761224336568324  0.2661058581148836  1.0000
  C   C2        1.0  0.6155183045498089  0.662387864840916  0.733891076699976  1.0000
  C   C3        1.0  0.15375789861815287  0.11560679292779953  0.2373356918956659  1.0000
  C   C4        1.0  0.8462408411012631  0.8843885292628855  0.7626635107420299  1.0000
  C   C5        1.0  0.5587369380236424  0.45347393579594103  0.2940789934133718  1.0000
  C   C6        1.0  0.4412627162904528  0.5465275614762461  0.7059231421492811  1.0000
  C   C7        1.0  0.03193163201607511  0.941580085198204  0.21023050667071894  1.0000
  C   C8        1.0  0.9680704693477721  0.0584200140122491  0.7897684402179549  1.0000
  C   C9        1.0  0.7526615756717021  0.450834705581336  0.1704874020400524  1.0000
  C   C10       1.0  0.2473408326907034  0.5491703258536091  0.829513533013632  1.0000
  C   C11       1.0  0.7357330467015969  0.6037238717174347  0.0553858275007215  1.0000
  C   C12       1.0  0.2642657595617521  0.39627377391213503  0.944611082402034  1.0000
  C   C13       1.0  0.6280754887920351  0.5889904457992118  0.12545309529588883  1.0000
  C   C14       1.0  0.3719212593018852  0.411007267631831  0.8745444888451958  1.0000
  C   C15       1.0  0.043771637091993  0.749931838038883  0.33226871538410313  1.0000
  C   C16       1.0  0.9562272996043646  0.2500660216007375  0.6677331247448279  1.0000
  C   C17       1.0  0.8902429796514395  0.7608883545600519  0.4493037164386067  1.0000
  C   C18       1.0  0.109754008897113  0.2391119676566049  0.5506981486024358  1.0000
  C   C19       1.0  0.8998793215806701  0.8678063166364608  0.3797613982518584  1.0000
  C   C20       1.0  0.10011534660500129  0.13219142892771168  0.6202360384231937  1.0000
  C   C21       1.0  0.8200412321682862  0.1266983618229816  0.03758689918078062  1.0000
  C   C22       1.0  0.17997598108009055  0.8733154586237715  0.9624271384531938  1.0000
  C   C23       1.0  0.590069901894644  0.918451874352442  0.07545110191332328  1.0000
  C   C24       1.0  0.40995609281201695  0.0815714323323604  0.9245617499842709  1.0000
  C   C25       1.0  0.3650975933316616  0.6816429217780495  0.4473819361496751  1.0000
  C   C26       1.0  0.6348955309243749  0.31834737017926784  0.5526108011361189  1.0000
  C   C27       1.0  0.5716676478587388  0.9105795388613914  0.4028380574955009  1.0000
  C   C28       1.0  0.4283217924164688  0.08940962977530378  0.5971551572400245  1.0000
  N   N1        1.0  0.26974779346576117  0.3787742017641945  0.2585466664043068  1.0000
  N   N2        1.0  0.7302467212206308  0.6212210776877355  0.741449776188233  1.0000
  N   N3        1.0  0.12502590109099285  0.23944375715145577  0.2405735560998394  1.0000
  N   N4        1.0  0.8749711476005048  0.760550266912105  0.7594229846361742  1.0000
  N   N5        1.0  0.3154653212775642  0.1717242349458132  0.2532324084857507  1.0000
  N   N6        1.0  0.6845297575272793  0.8282722160264412  0.746763335458013  1.0000
  N   N7        1.0  0.3821581682488358  0.06913973827541038  0.2566389579259791  1.0000
  N   N8        1.0  0.6178390787470319  0.9308590396709204  0.7433554624532377  1.0000
  N   N9        1.0  0.6401247647830814  0.49149586129622247  0.1978616275900009  1.0000
  N   N10       1.0  0.3598694927834173  0.5085031788598754  0.8021375018163396  1.0000
  N   N11       1.0  0.8129240561488161  0.5177105437507735  0.08447766738969162  1.0000
  N   N12       1.0  0.1870804986657717  0.4822967789899124  0.9155211223950842  1.0000
  N   N13       1.0  0.9975029915719488  0.8593516504405726  0.3060410687038911  1.0000
  N   N14       1.0  0.00249102421250308  0.14064256449605483  0.6939585376505234  1.0000
  N   N15       1.0  0.9798653475932397  0.687848868372413  0.41872592229962186  1.0000
  N   N16       1.0  0.020137294822795554  0.3121501502561727  0.5812762620839322  1.0000
  N   N17       1.0  0.7288708474375908  0.9775375712976383  0.04416876054006022  1.0000
  N   N18       1.0  0.2711560592088916  0.0224874776009685  0.9558565399785479  1.0000
  N   N19       1.0  0.9155992119295462  0.25710335541168666  0.02722465028880092  1.0000
  N   N20       1.0  0.08441809225644904  0.7429172570099781  0.9727784006185373  1.0000
  N   N21       1.0  0.4636402420144918  0.8495077245998033  0.1022793670494195  1.0000
  N   N22       1.0  0.5363678931603174  0.15050694827791486  0.8977226261819239  1.0000
  N   N23       1.0  0.5029163406826456  0.7628186138897705  0.4193895227139849  1.0000
  N   N24       1.0  0.49706637895855  0.23716543357508613  0.5805946878235346  1.0000
  N   N25       1.0  0.24390231288408873  0.5928296362561696  0.4742207793382889  1.0000
  N   N26       1.0  0.7560895065695094  0.4071535944460578  0.5257762973062299  1.0000
  N   N27       1.0  0.6489040944810326  0.0427092263916862  0.38535342357482705  1.0000
  N   N28       1.0  0.3510877313735606  0.9572826259025151  0.6146466846397729  1.0000
  O   O1        1.0  0.19112928409388985  0.6029765693754854  0.1594650267822573  1.0000
  O   O2        1.0  0.8088808209675662  0.3970356765935392  0.8405377632413292  1.0000
  O   O3        1.0  0.9045026203063741  0.31316896873548217  0.33859366046137757  1.0000
  O   O4        1.0  0.0954891607431207  0.686820595788184  0.6614095621925246  1.0000
