data_image0
_chemical_formula_structural       Zn2H20C34I2N6O8
_chemical_formula_sum              "Zn2 H20 C34 I2 N6 O8"
_cell_length_a       10.89771051679253
_cell_length_b       15.890684133781395
_cell_length_c       17.255494836777757
_cell_angle_alpha    87.3425969001908
_cell_angle_beta     90.3706023663041
_cell_angle_gamma    88.48302384992729

_space_group_name_H-M_alt    "P 1"
_space_group_IT_number       1

loop_
  _space_group_symop_operation_xyz
  'x, y, z'

loop_
  _atom_site_type_symbol
  _atom_site_label
  _atom_site_symmetry_multiplicity
  _atom_site_fract_x
  _atom_site_fract_y
  _atom_site_fract_z
  _atom_site_occupancy
  Zn  Zn1       1.0  0.4967145213823869  0.5874944250013668  0.5026581237342567  1.0000
  Zn  Zn2       1.0  0.5097372384972373  0.4126396455356911  0.49860117090209133  1.0000
  H   H1        1.0  0.0881407726731851  0.5796352576465011  0.3887841223261218  1.0000
  H   H2        1.0  0.9281913118718136  0.4413055614830768  0.3800088771418828  1.0000
  H   H3        1.0  0.5169094342288645  0.6128640173812486  0.7494214597402191  1.0000
  H   H4        1.0  0.4426059300372813  0.38830154539962786  0.25524388916734597  1.0000
  H   H5        1.0  0.4963593509263902  0.6067550282687008  0.8952000478617562  1.0000
  H   H6        1.0  0.4267358762274823  0.3946265342263829  0.10899098743241348  1.0000
  H   H7        1.0  0.490830601778917  0.6554600238982786  0.251487000221978  1.0000
  H   H8        1.0  0.46984328155843247  0.3458246228718451  0.7477187395446592  1.0000
  H   H9        1.0  0.6216984392455273  0.7288836100721878  0.4259377881399756  1.0000
  H   H10       1.0  0.3839620618869474  0.2718435248404063  0.5744963531638588  1.0000
  H   H11       1.0  0.6176097863235054  0.8883175277077484  0.42560558066718096  1.0000
  H   H12       1.0  0.9182487056258067  0.4200585823240174  0.6110645992680117  1.0000
  H   H13       1.0  0.3847869089245961  0.1124694577037673  0.5735096225937255  1.0000
  H   H14       1.0  0.6667562772668417  0.1280697453750435  0.39953937038836057  1.0000
  H   H15       1.0  0.3345942846564042  0.8717747104398443  0.5988585263138402  1.0000
  H   H16       1.0  0.6552089488953711  0.2873468630552978  0.40849512547198685  1.0000
  H   H17       1.0  0.3500239933096764  0.7123669968574049  0.5915737481159409  1.0000
  H   H18       1.0  0.9325372384360477  0.647993733664386  0.5037035297841965  1.0000
  H   H19       1.0  0.07387194243961662  0.3517437608154593  0.4960935880837596  1.0000
  H   H20       1.0  0.07822296770108036  0.5583861401679826  0.6196950827581204  1.0000
  C   C1        1.0  0.4853139726745042  0.5166430354748996  0.34793128467534723  1.0000
  C   C2        1.0  0.5599265944548648  0.7638325774368296  0.46297330285622706  1.0000
  C   C3        1.0  0.4451201033439458  0.14948550300288588  0.536197658946193  1.0000
  C   C4        1.0  0.5577185241854395  0.8510612003951861  0.46302420159918967  1.0000
  C   C5        1.0  0.5262218206558059  0.10958539397598341  0.48581415071807726  1.0000
  C   C6        1.0  0.4755138220277998  0.8907587253955427  0.5128784579401111  1.0000
  C   C7        1.0  0.6034547562478351  0.15856265302056022  0.4387364363308705  1.0000
  C   C8        1.0  0.39886370298557233  0.8414967603353743  0.5601094667095268  1.0000
  C   C9        1.0  0.5971617059874176  0.2457925243117316  0.4434110506920418  1.0000
  C   C10       1.0  0.40724927990116555  0.7541936984879457  0.5563418622761773  1.0000
  C   C11       1.0  0.7420154364453848  0.506134886084986  0.49586087189001654  1.0000
  C   C12       1.0  0.5046373133387902  0.48413432985042704  0.6536072795107655  1.0000
  C   C13       1.0  0.26391285431495953  0.49333261423423386  0.5045650299720206  1.0000
  C   C14       1.0  0.9647880929669268  0.5823277803740226  0.5020096839221677  1.0000
  C   C15       1.0  0.04138980942395417  0.41734791147232647  0.4977774854754101  1.0000
  C   C16       1.0  0.048366025782328785  0.5444406095283298  0.4380814751474205  1.0000
  C   C17       1.0  0.9578777287151465  0.45522263152075476  0.5617259982898373  1.0000
  C   C18       1.0  0.12755691966758317  0.4940227668621944  0.5024035707308485  1.0000
  C   C19       1.0  0.8784902884792769  0.5056222635614063  0.49739279272686326  1.0000
  C   C20       1.0  0.043183832915247  0.5326463412961074  0.5663920016777837  1.0000
  C   C21       1.0  0.962989115092682  0.46701797955984853  0.433400843222408  1.0000
  C   C22       1.0  0.4701059758817434  0.5212859865761315  0.2611647988152797  1.0000
  C   C23       1.0  0.45286641043691833  0.5280709295527544  0.09854547309550549  1.0000
  C   C24       1.0  0.49385587861104335  0.4797857356311254  0.7405437998139845  1.0000
  C   C25       1.0  0.4502973161335503  0.44752688933996865  0.2214682022498451  1.0000
  C   C26       1.0  0.5010381042912114  0.5537337970578095  0.7817883863303335  1.0000
  C   C27       1.0  0.4415009725066382  0.4508911326496658  0.14132779465014514  1.0000
  C   C28       1.0  0.48943894266673726  0.5505555425427958  0.8616559206761493  1.0000
  C   C29       1.0  0.46972832779756146  0.47330774117644114  0.9027502400736863  1.0000
  C   C30       1.0  0.4680803226498397  0.6022387314940757  0.13903679878508507  1.0000
  C   C31       1.0  0.46283331244426745  0.39937250619379944  0.8609172915720578  1.0000
  C   C32       1.0  0.4771226723808723  0.59882750591445  0.21968481883871488  1.0000
  C   C33       1.0  0.4749022536002626  0.4025520475684487  0.780513694318486  1.0000
  C   C34       1.0  0.4447804568086511  0.23665304781140858  0.5370718940338293  1.0000
  I   I1        1.0  0.48444502874010437  0.7194981094321308  0.07827442054549039  1.0000
  I   I2        1.0  0.4301689579060976  0.28268382956510857  0.9190419272105141  1.0000
  N   N1        1.0  0.4503615149600221  0.5351001316212629  0.01709144345893781  1.0000
  N   N2        1.0  0.4643570149675255  0.4658789602629696  0.9840975585362199  1.0000
  N   N3        1.0  0.5193862492235795  0.2837055081709678  0.4916708203440478  1.0000
  N   N4        1.0  0.4862481992883686  0.7164966230116006  0.5087384582572412  1.0000
  N   N5        1.0  0.537925650055513  0.021098563935716193  0.47881365289264005  1.0000
  N   N6        1.0  0.4629650627246562  0.9792752010893649  0.5195682837943564  1.0000
  O   O1        1.0  0.48925877797339  0.5859294186049908  0.3819168744125605  1.0000
  O   O2        1.0  0.5109257586181924  0.41483655955720167  0.6195154803122802  1.0000
  O   O3        1.0  0.49369950833430915  0.44301086511288196  0.38024730387841277  1.0000
  O   O4        1.0  0.5055049980771144  0.557746627488548  0.6211295949571749  1.0000
  O   O5        1.0  0.6845280987068917  0.5769190441651733  0.4972589998383228  1.0000
  O   O6        1.0  0.3211953122394177  0.4224072494954997  0.5040793842299323  1.0000
  O   O7        1.0  0.6931793997840501  0.4340223135505568  0.49392055094472903  1.0000
  O   O8        1.0  0.3127850703933888  0.5654376581009616  0.5062443398061375  1.0000
