data_image0
_chemical_formula_structural       Zn4H40C36N4O24
_chemical_formula_sum              "Zn4 H40 C36 N4 O24"
_cell_length_a       9.684704627398341
_cell_length_b       16.22146855615058
_cell_length_c       15.536757756948372
_cell_angle_alpha    90.02199067485901
_cell_angle_beta     91.28865776569707
_cell_angle_gamma    94.3390416848945

_space_group_name_H-M_alt    "P 1"
_space_group_IT_number       1

loop_
  _space_group_symop_operation_xyz
  'x, y, z'

loop_
  _atom_site_type_symbol
  _atom_site_label
  _atom_site_symmetry_multiplicity
  _atom_site_fract_x
  _atom_site_fract_y
  _atom_site_fract_z
  _atom_site_occupancy
  Zn  Zn1       1.0  0.3645084010050965  0.487793247487744  0.9889568667924633  1.0000
  Zn  Zn2       1.0  0.37223300271696774  0.9913259629755873  0.5005729490079815  1.0000
  Zn  Zn3       1.0  0.646581369490015  0.5086941838255968  0.003526239609520601  1.0000
  Zn  Zn4       1.0  0.6524700405181818  0.006755959885680301  0.4940213779621843  1.0000
  H   H1        1.0  0.42988697947426163  0.297640671099238  0.7841297229072095  1.0000
  H   H2        1.0  0.3808533106923805  0.29040262762369917  0.19818349604448568  1.0000
  H   H3        1.0  0.3794746739460849  0.785431450207071  0.301637179856371  1.0000
  H   H4        1.0  0.426563403033022  0.7953037196697823  0.698196590796094  1.0000
  H   H5        1.0  0.6541279094959409  0.7369624432700378  0.1537351372457962  1.0000
  H   H6        1.0  0.6896224126634538  0.7363470677668573  0.8555989464527085  1.0000
  H   H7        1.0  0.6981298687172386  0.24575493792819714  0.6425878417893783  1.0000
  H   H8        1.0  0.6512348221287213  0.15167565293825905  0.24857196238510673  1.0000
  H   H9        1.0  0.10388058502881851  0.3692290004539488  0.0015288779165558999  1.0000
  H   H10       1.0  0.11315983429186365  0.8706220441778572  0.5005207646812976  1.0000
  H   H11       1.0  0.11176593984241381  0.5458960340731239  0.9625517431985526  1.0000
  H   H12       1.0  0.12130250232130634  0.049433558687042016  0.5271150965366258  1.0000
  H   H13       1.0  0.8449198787898528  0.38948865490390017  0.9519639655959222  1.0000
  H   H14       1.0  0.8604848492640048  0.8914623976222986  0.5535756518079751  1.0000
  H   H15       1.0  0.9237913814898566  0.5419363471993393  0.04758134730968779  1.0000
  H   H16       1.0  0.923646927625761  0.03968352610137771  0.4500798750613199  1.0000
  H   H17       1.0  0.8969453368987603  0.3254859047373061  0.6769628095890212  1.0000
  H   H18       1.0  0.8859517614031491  0.23872104095955393  0.7490470900207171  1.0000
  H   H19       1.0  0.980534478595985  0.333907995167678  0.7806627688582068  1.0000
  H   H20       1.0  0.8372504717573577  0.18436968778788554  0.16680573634506146  1.0000
  H   H21       1.0  0.8442611984460201  0.2545047386590086  0.2565987362669659  1.0000
  H   H22       1.0  0.9230620369747488  0.2854165394359996  0.15713224268476714  1.0000
  H   H23       1.0  0.8347110496948319  0.8251439720259486  0.17329602414560694  1.0000
  H   H24       1.0  0.8432067496705005  0.7435023061168593  0.2510081173901426  1.0000
  H   H25       1.0  0.9244742895697161  0.8445715379702962  0.2738556715059629  1.0000
  H   H26       1.0  0.8880199735461431  0.7531255549751993  0.7757101888437177  1.0000
  H   H27       1.0  0.8616743065925123  0.8310737383842055  0.8547334653318754  1.0000
  H   H28       1.0  0.9666389783852412  0.8561947591915315  0.7639024457423245  1.0000
  H   H29       1.0  0.43712628056033515  0.5188382912655102  0.2666369324105275  1.0000
  H   H30       1.0  0.26953689501419126  0.5359875701656237  0.2224925147531849  1.0000
  H   H31       1.0  0.30755873457376043  0.5542607989330506  0.3355119281116714  1.0000
  H   H32       1.0  0.28685755110581124  0.5576744362894888  0.7673918342880979  1.0000
  H   H33       1.0  0.4434393974393558  0.5391536684404061  0.7138044855228073  1.0000
  H   H34       1.0  0.30826435035175603  0.5869473472871721  0.6560706508269547  1.0000
  H   H35       1.0  0.5108447785461082  0.0302057490319001  0.7754246098890788  1.0000
  H   H36       1.0  0.3371966205080881  0.03946322480476991  0.7365902211589983  1.0000
  H   H37       1.0  0.3845363561671179  0.06514453752848232  0.8470062531673861  1.0000
  H   H38       1.0  0.4930149027013827  0.2716701744951564  0.4740341666149418  1.0000
  H   H39       1.0  0.3229770921948258  0.22008819946464095  0.46501184748510127  1.0000
  H   H40       1.0  0.350193421129653  0.32854228939267943  0.4396065334630279  1.0000
  C   C1        1.0  0.5169539037616674  0.6134368691343755  0.8764564429538098  1.0000
  C   C2        1.0  0.5017837542506954  0.6075165391915435  0.12104155864794555  1.0000
  C   C3        1.0  0.5119053522610812  0.11936243298952581  0.38389580018598213  1.0000
  C   C4        1.0  0.5333657248022095  0.11513308041038071  0.6173191803552809  1.0000
  C   C5        1.0  0.47723474179250774  0.3800847746203431  0.11016588013626458  1.0000
  C   C6        1.0  0.5235458316494289  0.3889509408647669  0.8731317758642091  1.0000
  C   C7        1.0  0.5273082214505536  0.8927519162669598  0.6233190405857769  1.0000
  C   C8        1.0  0.48166735295478  0.88152482392578  0.3831672108997992  1.0000
  C   C9        1.0  0.6429458150659572  0.3021162239811376  0.7647988572846103  1.0000
  C   C10       1.0  0.5909048309467836  0.26825820579907866  0.19354844339736837  1.0000
  C   C11       1.0  0.5901376361478442  0.7951736896584479  0.27120982301555324  1.0000
  C   C12       1.0  0.6334348006005684  0.80472488104337  0.740121602976316  1.0000
  C   C13       1.0  0.5294108170810574  0.32697454771192  0.8053848796437535  1.0000
  C   C14       1.0  0.4796224392337295  0.3112057100508921  0.17072555712375956  1.0000
  C   C15       1.0  0.4798326279013667  0.8168834899874329  0.3175608185914598  1.0000
  C   C16       1.0  0.5266457467028617  0.8284613220656283  0.6889588382681138  1.0000
  C   C17       1.0  0.5802785141220285  0.7313801524672389  0.20552792669754888  1.0000
  C   C18       1.0  0.6160604696939417  0.7378604172602012  0.8017906084287317  1.0000
  C   C19       1.0  0.6307603128694554  0.2390503299398858  0.6977885564526857  1.0000
  C   C20       1.0  0.5841607475554724  0.2019528081328801  0.25649719121832953  1.0000
  C   C21       1.0  0.4923024127709541  0.6622323208119313  0.19921038057886153  1.0000
  C   C22       1.0  0.5181037509002453  0.6731111500511491  0.8016718918078494  1.0000
  C   C23       1.0  0.542170738188027  0.17000155738443118  0.696323957715009  1.0000
  C   C24       1.0  0.5056900251419165  0.19536758467851462  0.3278471557001409  1.0000
  C   C25       1.0  0.06467176454515311  0.4298441054019336  0.9887077895193241  1.0000
  C   C26       1.0  0.07427759522854421  0.9316374521362718  0.5101685530331608  1.0000
  C   C27       1.0  0.913408987722278  0.4375205318799404  0.9844808953111082  1.0000
  C   C28       1.0  0.9234817492859977  0.9385389376195691  0.5179646709005965  1.0000
  C   C29       1.0  0.8894145611511137  0.30654409984256864  0.7448887323687501  1.0000
  C   C30       1.0  0.8352380774452828  0.24966722011378548  0.1860324995397491  1.0000
  C   C31       1.0  0.8350701848412928  0.8103374970074882  0.24254107453181453  1.0000
  C   C32       1.0  0.8745421054873008  0.8192150873771384  0.7856348469947037  1.0000
  C   C33       1.0  0.3489638178628029  0.5575090531338776  0.2704241006760242  1.0000
  C   C34       1.0  0.36018360875471706  0.5812624070401924  0.7189309956687352  1.0000
  C   C35       1.0  0.4191887195065221  0.06589747693321611  0.7803605708687298  1.0000
  C   C36       1.0  0.3941519128488908  0.26829847306818533  0.4374448672025935  1.0000
  N   N1        1.0  0.15349298438864886  0.4909562476773672  0.9768080514309786  1.0000
  N   N2        1.0  0.16268741972895384  0.9942160392308993  0.514821789949778  1.0000
  N   N3        1.0  0.8569238891384074  0.49944755093923743  0.0157546487240481  1.0000
  N   N4        1.0  0.8618225803806825  0.9985474749246919  0.4852310673939684  1.0000
  O   O1        1.0  0.3983331218814215  0.5861439264115165  0.9021076860250259  1.0000
  O   O2        1.0  0.3881503755302236  0.5745065592551201  0.09009497937930179  1.0000
  O   O3        1.0  0.39819020576109665  0.09173122413449163  0.41637828591281323  1.0000
  O   O4        1.0  0.41360480280367556  0.08182427656272753  0.5982926030486694  1.0000
  O   O5        1.0  0.6339611864621448  0.5967256130742342  0.9075384235005683  1.0000
  O   O6        1.0  0.6224433086110893  0.6000770573534596  0.09268719290945879  1.0000
  O   O7        1.0  0.6290657527564323  0.08982688684021409  0.3935962486233392  1.0000
  O   O8        1.0  0.6440726861924164  0.10801471489529041  0.5763961243760889  1.0000
  O   O9        1.0  0.3576009570662607  0.3958855672226207  0.0788529178354196  1.0000
  O   O10       1.0  0.4014114564723742  0.4084337387626322  0.8924297041032218  1.0000
  O   O11       1.0  0.4070239856042833  0.9049772983750799  0.5905843025004032  1.0000
  O   O12       1.0  0.3636150977808797  0.9068505850329631  0.40366177960329  1.0000
  O   O13       1.0  0.5904523233908991  0.4220113860454121  0.09302274783843958  1.0000
  O   O14       1.0  0.6355323585044063  0.4202681119937139  0.9092305645475915  1.0000
  O   O15       1.0  0.6403197318307222  0.9328127750651307  0.6014563628660239  1.0000
  O   O16       1.0  0.5976508314565978  0.9091516132800167  0.417248933727869  1.0000
  O   O17       1.0  0.7721285533457165  0.3385105327323004  0.7844037078714975  1.0000
  O   O18       1.0  0.7139663542635973  0.28508525693394665  0.15307378749324835  1.0000
  O   O19       1.0  0.7162954450877381  0.8380172898658034  0.28368181261181036  1.0000
  O   O20       1.0  0.7615342478007892  0.8463516126768555  0.7348084051934547  1.0000
  O   O21       1.0  0.3925603773711472  0.6437755576484534  0.2573592474876776  1.0000
  O   O22       1.0  0.41661710558184956  0.663988607644612  0.7402326480689823  1.0000
  O   O23       1.0  0.4536088130526182  0.1522090132462921  0.7611530106015321  1.0000
  O   O24       1.0  0.4159276822297785  0.2526431371470253  0.34739481064294603  1.0000
