data_image0
_chemical_formula_structural       Zn2H16C42N2O12F4
_chemical_formula_sum              "Zn2 H16 C42 N2 O12 F4"
_cell_length_a       10.978543317264924
_cell_length_b       14.844535501057148
_cell_length_c       16.180920082355208
_cell_angle_alpha    89.2333550413946
_cell_angle_beta     89.16518799921191
_cell_angle_gamma    89.56430715734953

_space_group_name_H-M_alt    "P 1"
_space_group_IT_number       1

loop_
  _space_group_symop_operation_xyz
  'x, y, z'

loop_
  _atom_site_type_symbol
  _atom_site_label
  _atom_site_symmetry_multiplicity
  _atom_site_fract_x
  _atom_site_fract_y
  _atom_site_fract_z
  _atom_site_occupancy
  Zn  Zn1       1.0  0.49744272669789785  0.5952717693479741  0.4982123287944588  1.0000
  Zn  Zn2       1.0  0.5025179585421923  0.4047330718127142  0.5017859676670042  1.0000
  H   H1        1.0  0.3246257866493067  0.9136985331478588  0.560890102144299  1.0000
  H   H2        1.0  0.6753702822899754  0.08631093300027713  0.439120304866556  1.0000
  H   H3        1.0  0.3237345093371147  0.34223886725003183  0.2403379314105862  1.0000
  H   H4        1.0  0.6762461061825036  0.657771308760694  0.7596682328924587  1.0000
  H   H5        1.0  0.20568442869340237  0.45699395803668363  0.3178948673467517  1.0000
  H   H6        1.0  0.7942762378493169  0.5430162811946674  0.6821009063050596  1.0000
  H   H7        1.0  0.19303724169684244  0.13657979275498633  0.4104188148464161  1.0000
  H   H8        1.0  0.8069505831879838  0.863435748355265  0.5895915830724334  1.0000
  H   H9        1.0  0.8883131518655887  0.37658256042385574  0.4338877963187784  1.0000
  H   H10       1.0  0.11165118056355543  0.6234283577977495  0.5661048594256712  1.0000
  H   H11       1.0  0.5732381556506141  0.6364654167181244  0.9232873991444279  1.0000
  H   H12       1.0  0.4272422520529062  0.36348753121470895  0.0766978473326034  1.0000
  H   H13       1.0  0.5710441487400787  0.6330912903975587  0.0774326744036387  1.0000
  H   H14       1.0  0.4294701289329552  0.36684545766338783  0.9225475827706404  1.0000
  H   H15       1.0  0.43760326619379697  0.13536705310946226  0.1858992243769109  1.0000
  H   H16       1.0  0.5624199225755149  0.864656483674857  0.8141226344506335  1.0000
  C   C1        1.0  0.496313642611227  0.49937286281480203  0.6610394839017104  1.0000
  C   C2        1.0  0.5037564616558824  0.5006237575068369  0.33895330739311186  1.0000
  C   C3        1.0  0.8726034703182819  0.49653227294653157  0.5052625048118529  1.0000
  C   C4        1.0  0.1273608729493176  0.5034786494184689  0.4947289147788254  1.0000
  C   C5        1.0  0.934324636221767  0.5675022599230247  0.5434598141959839  1.0000
  C   C6        1.0  0.06563421531143382  0.4325106871043687  0.4565328544254185  1.0000
  C   C7        1.0  0.5402461548265762  0.5751947584511612  0.0429113585133152  1.0000
  C   C8        1.0  0.4602726058704291  0.42474938798348216  0.9570706569385479  1.0000
  C   C9        1.0  0.49904372630271615  0.49828058827887406  0.087038697085184  1.0000
  C   C10       1.0  0.5014094137241899  0.5016751238055763  0.9129374120636555  1.0000
  C   C11       1.0  0.4590224992242042  0.4229973875545598  0.04277228631620741  1.0000
  C   C12       1.0  0.5414834433847773  0.5769474276336767  0.9572165959042067  1.0000
  C   C13       1.0  0.499111414647089  0.4974036124761698  0.1744675389436523  1.0000
  C   C14       1.0  0.5012430253590523  0.5025777908957496  0.8255231187628597  1.0000
  C   C15       1.0  0.4989932117537137  0.5009262301352353  0.750275016569134  1.0000
  C   C16       1.0  0.5012518796754151  0.4990634210078186  0.24971311130448018  1.0000
  C   C17       1.0  0.400970017545859  0.9510474441157942  0.5343591458845864  1.0000
  C   C18       1.0  0.5990260409274056  0.0489626936836203  0.4656518728903976  1.0000
  C   C19       1.0  0.5032108461472404  0.906105466897927  0.5012585665646085  1.0000
  C   C20       1.0  0.49678612328528965  0.09390466962868521  0.49875244690782955  1.0000
  C   C21       1.0  0.6007632152561087  0.955852333030805  0.4674120131280617  1.0000
  C   C22       1.0  0.39923464383120694  0.0441584697308883  0.5326008429597451  1.0000
  C   C23       1.0  0.2638179278161417  0.507362765258705  0.4968578423499751  1.0000
  C   C24       1.0  0.7361454949760856  0.4926407225658951  0.503141068906281  1.0000
  C   C25       1.0  0.5077387095922815  0.810741233434314  0.5013746509261026  1.0000
  C   C26       1.0  0.4922500774645613  0.1892689207626574  0.4986345560385245  1.0000
  C   C27       1.0  0.2674907920311469  0.3219823762849074  0.2932134153173322  1.0000
  C   C28       1.0  0.7324916768050541  0.6780257822263496  0.7067909030882547  1.0000
  C   C29       1.0  0.20145345586208657  0.3863382624754835  0.3370846634964124  1.0000
  C   C30       1.0  0.7985145077034302  0.6136692675380785  0.6629123291399139  1.0000
  C   C31       1.0  0.131496180651979  0.3632983288316609  0.4074718142299716  1.0000
  C   C32       1.0  0.8684699411803082  0.6367125744141404  0.5925245393707286  1.0000
  C   C33       1.0  0.1281035585480907  0.2718415684310998  0.429934010283759  1.0000
  C   C34       1.0  0.8718653062555647  0.7281679835503072  0.5700623400348519  1.0000
  C   C35       1.0  0.19500772777432474  0.2064189295105977  0.3889891548863886  1.0000
  C   C36       1.0  0.8049765218612138  0.7935932646495448  0.6110163511913242  1.0000
  C   C37       1.0  0.26635697332948644  0.23175882702106074  0.3200270649850481  1.0000
  C   C38       1.0  0.7336281663332898  0.7682547091688509  0.6799796593183771  1.0000
  C   C39       1.0  0.93869937553319  0.43008491422147443  0.4632652987073698  1.0000
  C   C40       1.0  0.0612604090086322  0.5699287156145874  0.5367242679142947  1.0000
  C   C41       1.0  0.34403203463988763  0.16176631627410393  0.281214357377813  1.0000
  C   C42       1.0  0.6559712653415274  0.8382485232603546  0.7187978109412896  1.0000
  N   N1        1.0  0.49108156224772875  0.26736267448908546  0.4990007480243648  1.0000
  N   N2        1.0  0.5088926754397036  0.7326454830472433  0.5010073265654  1.0000
  O   O1        1.0  0.49056865737734506  0.575871035255318  0.6245654713449511  1.0000
  O   O2        1.0  0.5094394005566159  0.42412901122833097  0.3754363020351406  1.0000
  O   O3        1.0  0.5006957580785922  0.42206492825437203  0.6279943728629859  1.0000
  O   O4        1.0  0.49929877917852394  0.577930462694461  0.3719951627067672  1.0000
  O   O5        1.0  0.3116822865071356  0.5851525123319663  0.4960496460414917  1.0000
  O   O6        1.0  0.6882902060809002  0.4148475692892647  0.5039566606758399  1.0000
  O   O7        1.0  0.3199968636275585  0.4322200319847555  0.5010890008121436  1.0000
  O   O8        1.0  0.6799583915569016  0.5677807765465701  0.4989087472642383  1.0000
  O   O9        1.0  0.371304526362394  0.08926218861765281  0.31371505134138294  1.0000
  O   O10       1.0  0.38587629654541894  0.18556854240751622  0.2041412601931114  1.0000
  O   O11       1.0  0.6287050817460909  0.9107559940484866  0.6863019929112396  1.0000
  O   O12       1.0  0.6141333371694414  0.8144469474383841  0.7958751912336766  1.0000
  F   F1        1.0  0.059834346397764214  0.24598075806351016  0.4972421766049989  1.0000
  F   F2        1.0  0.9401317367550206  0.7540287790910303  0.5027597523132172  1.0000
  F   F3        1.0  0.3020736162568483  0.08870587092885533  0.5639005312040979  1.0000
  F   F4        1.0  0.6979269601954528  0.9113062733886893  0.4361129144274543  1.0000
