data_image0
_chemical_formula_structural       AlH33C48O6
_chemical_formula_sum              "Al1 H33 C48 O6"
_cell_length_a       3.99236959096075
_cell_length_b       23.564400560067575
_cell_length_c       23.498098000015403
_cell_angle_alpha    60.10107765952503
_cell_angle_beta     87.98967459875287
_cell_angle_gamma    87.90858179679832

_space_group_name_H-M_alt    "P 1"
_space_group_IT_number       1

loop_
  _space_group_symop_operation_xyz
  'x, y, z'

loop_
  _atom_site_type_symbol
  _atom_site_label
  _atom_site_symmetry_multiplicity
  _atom_site_fract_x
  _atom_site_fract_y
  _atom_site_fract_z
  _atom_site_occupancy
  Al  Al1       1.0  0.9969703552943019  0.500142900443528  0.4992638109408177  1.0000
  H   H1        1.0  0.5061141481073224  0.32112401831332  0.6776489260792998  1.0000
  H   H2        1.0  0.5055069365948557  0.2575419613897695  0.7981577386991318  1.0000
  H   H3        1.0  0.8240518180581587  0.1651599438965619  0.016534415252458197  1.0000
  H   H4        1.0  0.4396422939534189  0.6847716270207017  0.3149057755861619  1.0000
  H   H5        1.0  0.49765290237973375  0.8047275400080384  0.2569008652597515  1.0000
  H   H6        1.0  0.2454588012925001  0.8932942990240851  0.22956079057011872  1.0000
  H   H7        1.0  0.23360324316870867  0.012782680911144002  0.16648554100120797  1.0000
  H   H8        1.0  0.5023775305892502  0.10617450068292564  0.10456833879266007  1.0000
  H   H9        1.0  0.532409046051079  0.6779573387634344  0.49989370674727923  1.0000
  H   H10       1.0  0.5270425686047704  0.7979354344991452  0.44350541799767024  1.0000
  H   H11       1.0  0.8117335129686722  0.01631522523101841  0.3155168191947695  1.0000
  H   H12       1.0  0.514210720668153  0.3157965307671232  0.4997083128016938  1.0000
  H   H13       1.0  0.5726512052476382  0.25721546507575976  0.4370072131242819  1.0000
  H   H14       1.0  0.27634588158004897  0.2320249388047557  0.3786203782830739  1.0000
  H   H15       1.0  0.2487868874917822  0.16861374364126652  0.3221869537969724  1.0000
  H   H16       1.0  0.5267493721157237  0.10457237173399392  0.288264214187258  1.0000
  H   H17       1.0  0.5576633346072697  0.500019408269722  0.31948425361765215  1.0000
  H   H18       1.0  0.5592802831668422  0.44238234918795877  0.2564328461964109  1.0000
  H   H19       1.0  0.857145079140821  0.311427649981333  0.16459327791480394  1.0000
  H   H20       1.0  0.4679653009060658  0.500101608895264  0.6847395706328284  1.0000
  H   H21       1.0  0.5169743581307457  0.4366208952201945  0.80546930077805  1.0000
  H   H22       1.0  0.2189387196163324  0.3767341913766985  0.8935522427511201  1.0000
  H   H23       1.0  0.20845106225963408  0.3198441977536817  0.013968616886735683  1.0000
  H   H24       1.0  0.525837342118841  0.2874925840266869  0.1063752283988535  1.0000
  H   H25       1.0  0.13488475229064528  0.3882531544587097  0.17622574465524815  1.0000
  H   H26       1.0  0.054813271808960486  0.4057087231931364  0.2409154689212442  1.0000
  H   H27       1.0  0.7767770961874875  0.4358888916344767  0.17434293795579245  1.0000
  H   H28       1.0  0.0962133214970535  0.17903517177448694  0.9233209997032643  1.0000
  H   H29       1.0  6.493122256049092e-05  0.24281121368929354  0.8427355140856676  1.0000
  H   H30       1.0  0.7352652970442648  0.17463066340512515  0.8839548962096798  1.0000
  H   H31       1.0  0.06563269316708888  0.926066658863917  0.3940407121919164  1.0000
  H   H32       1.0  0.0004848561061620297  0.8451814285412456  0.4099461360946392  1.0000
  H   H33       1.0  0.7058373063416425  0.8832057027554329  0.4392607929241663  1.0000
  C   C1        1.0  0.4868586909203431  0.4514611886226519  0.6001727348403917  1.0000
  C   C2        1.0  0.5184718607229115  0.4482139912534749  0.4502798003213328  1.0000
  C   C3        1.0  0.4862252802542741  0.6006297945953065  0.44742132310997806  1.0000
  C   C4        1.0  0.5039987279254846  0.34626110172112595  0.7060271163552015  1.0000
  C   C5        1.0  0.5096039690339539  0.31060954354287423  0.7741641916596292  1.0000
  C   C6        1.0  0.6932946528707689  0.24250381949429578  0.9209867574134307  1.0000
  C   C7        1.0  0.6824073003344681  0.2111471638449061  0.9895260796805656  1.0000
  C   C8        1.0  0.46644341310259585  0.70997335925982  0.3427724908362178  1.0000
  C   C9        1.0  0.4942751017910609  0.7777539411284239  0.3104372175612938  1.0000
  C   C10       1.0  0.3786182156166333  0.9200181296241966  0.24824247751166678  1.0000
  C   C11       1.0  0.3709483493166914  0.9879373707153576  0.2122147661856174  1.0000
  C   C12       1.0  0.48711323724857186  0.4146824641255905  0.673289507324803  1.0000
  C   C13       1.0  0.516901108285708  0.3416311840158741  0.8120952687586463  1.0000
  C   C14       1.0  0.5266981762514009  0.3041614731521563  0.8847528667738516  1.0000
  C   C15       1.0  0.5139472226239263  0.2373236353751907  0.024784051873126565  1.0000
  C   C16       1.0  0.5117737711220868  0.20101997585877746  0.097286185874232  1.0000
  C   C17       1.0  0.5081202580846027  0.13236327015965801  0.1318620970006563  1.0000
  C   C18       1.0  0.5186611307918412  0.7062274227570882  0.4465302363546541  1.0000
  C   C19       1.0  0.5237126756430115  0.7741590555694913  0.41412681856546396  1.0000
  C   C20       1.0  0.6894446753701543  0.9210532708415757  0.33424436767457877  1.0000
  C   C21       1.0  0.6781308182602644  0.9893797622992581  0.29706617494604615  1.0000
  C   C22       1.0  0.5308582177739892  0.34327757874562087  0.44621008446129906  1.0000
  C   C23       1.0  0.5594814870639838  0.31061603043883684  0.41057802699761936  1.0000
  C   C24       1.0  0.4126461095338598  0.24896528632396558  0.3321031658407135  1.0000
  C   C25       1.0  0.39666904013334664  0.2128529290108432  0.3003280069270744  1.0000
  C   C26       1.0  0.48723640507767396  0.6734183916849547  0.4112550846013646  1.0000
  C   C27       1.0  0.521139239990532  0.8119829820049915  0.3450737669725043  1.0000
  C   C28       1.0  0.5340400175537212  0.8844710747123798  0.30974021338074914  1.0000
  C   C29       1.0  0.5196649782921272  0.0244655033523742  0.2365278327237021  1.0000
  C   C30       1.0  0.5142259652836573  0.09678718120493811  0.20061125974518748  1.0000
  C   C31       1.0  0.5224192107228377  0.13144524443298877  0.2347605375323383  1.0000
  C   C32       1.0  0.5562898160733524  0.4466688705938112  0.345018960323415  1.0000
  C   C33       1.0  0.5641791576122588  0.413731583855217  0.309688821542828  1.0000
  C   C34       1.0  0.7403874394239907  0.331777571049436  0.2422398360662256  1.0000
  C   C35       1.0  0.7213412031574506  0.2945488719071677  0.21120735440205607  1.0000
  C   C36       1.0  0.4805688740334944  0.44672523912088746  0.7099681564821123  1.0000
  C   C37       1.0  0.5043879911113436  0.4106499652435005  0.7780448349338085  1.0000
  C   C38       1.0  0.35981067408751954  0.3306879611058164  0.9204354166105515  1.0000
  C   C39       1.0  0.3528281223598029  0.29864564736691795  0.9885871701251999  1.0000
  C   C40       1.0  0.5351207864752469  0.41177260959636197  0.4135934448384688  1.0000
  C   C41       1.0  0.5726477977602116  0.3448536209186345  0.3413533537888966  1.0000
  C   C42       1.0  0.5800869788926806  0.3089501744478654  0.30447952350096585  1.0000
  C   C43       1.0  0.5489906690173072  0.23568703259100235  0.23817540095015483  1.0000
  C   C44       1.0  0.5290541771262128  0.19996170675887728  0.20167671786229852  1.0000
  C   C45       1.0  0.5214072267757572  0.23412218902527124  0.1328528047383131  1.0000
  C   C46       1.0  0.9374977573757236  0.39371671596363456  0.206930768179248  1.0000
  C   C47       1.0  0.891861722788576  0.20831290518812307  0.8907148355392634  1.0000
  C   C48       1.0  0.8754118071027008  0.8918629695679599  0.39778483078416826  1.0000
  O   O1        1.0  0.2589099371524383  0.5719169727302218  0.4349306902992395  1.0000
  O   O2        1.0  0.24798681590493024  0.4925158842800528  0.5714641100563326  1.0000
  O   O3        1.0  0.2778811068538617  0.4360435604648104  0.49173219785770067  1.0000
  O   O4        1.0  0.7157693665238368  0.5717067705878947  0.4896299095008202  1.0000
  O   O5        1.0  0.7460103677534563  0.4899719233863208  0.43694877210200644  1.0000
  O   O6        1.0  0.7283882280125484  0.4382527464985559  0.5712783235331215  1.0000
