data_image0
_chemical_formula_structural       Zn4H46C90Br2N4O36
_chemical_formula_sum              "Zn4 H46 C90 Br2 N4 O36"
_cell_length_a       16.519610928635302
_cell_length_b       17.90884582477848
_cell_length_c       33.208215110213125
_cell_angle_alpha    90.27187529065442
_cell_angle_beta     89.78056831611738
_cell_angle_gamma    89.97570117255036

_space_group_name_H-M_alt    "P 1"
_space_group_IT_number       1

loop_
  _space_group_symop_operation_xyz
  'x, y, z'

loop_
  _atom_site_type_symbol
  _atom_site_label
  _atom_site_symmetry_multiplicity
  _atom_site_fract_x
  _atom_site_fract_y
  _atom_site_fract_z
  _atom_site_occupancy
  Zn  Zn1       1.0  0.5842322256248947  0.49995710614692973  0.5004043522806967  1.0000
  Zn  Zn2       1.0  0.4154522185030984  0.4999544216364313  0.5006791240636517  1.0000
  Zn  Zn3       1.0  0.4158256252516495  0.5022217464867039  0.9616787169195998  1.0000
  Zn  Zn4       1.0  0.5844912492403012  0.5021038275164074  0.9614363591764029  1.0000
  H   H1        1.0  0.286702999357999  0.5822549511855469  0.5446927421210785  1.0000
  H   H2        1.0  0.28773435153861027  0.4179440924621076  0.4555484371687796  1.0000
  H   H3        1.0  0.71233649695737  0.5819079344429808  0.5450115396708809  1.0000
  H   H4        1.0  0.7126796927610287  0.41795978539381207  0.4556321638549007  1.0000
  H   H5        1.0  0.6305408490889448  0.7377870099800816  0.5002759942264701  1.0000
  H   H6        1.0  0.3694633470434995  0.7378484072242983  0.5001646552781907  1.0000
  H   H7        1.0  0.6306857469103309  0.2620099710181166  0.49987064656085756  1.0000
  H   H8        1.0  0.3696055986980937  0.2622707605955412  0.4998293434660254  1.0000
  H   H9        1.0  0.3692812250101909  0.5003400331271665  0.6292975768673512  1.0000
  H   H10       1.0  0.29413413557168167  0.5007661875377424  0.6940522643590723  1.0000
  H   H11       1.0  0.6286267822088335  0.5001500444104536  0.6278411927676826  1.0000
  H   H12       1.0  0.6307511641879486  0.5010067908466524  0.8327468298293608  1.0000
  H   H13       1.0  0.7059144581007574  0.5008799139866867  0.7679618072947105  1.0000
  H   H14       1.0  0.37140866699265734  0.5011543390214827  0.8341982909411809  1.0000
  H   H15       1.0  0.36929721739446114  0.5023568053239418  0.09002021405089519  1.0000
  H   H16       1.0  0.6304190793838345  0.5025038273891552  0.08951225007410805  1.0000
  H   H17       1.0  0.36953522527727506  0.5002556058768164  0.3726164382492029  1.0000
  H   H18       1.0  0.630642471370578  0.5004668634544486  0.372141471676933  1.0000
  H   H19       1.0  0.712872512823168  0.5844180915750742  0.9176706340640874  1.0000
  H   H20       1.0  0.712592916238485  0.4208432744113253  0.006363378342882698  1.0000
  H   H21       1.0  0.2877836868270265  0.5840733102301954  0.9173231641910033  1.0000
  H   H22       1.0  0.2872070566523277  0.420751529198064  0.006193727952314999  1.0000
  H   H23       1.0  0.36947828956798656  0.7402251489809688  0.9611870424498787  1.0000
  H   H24       1.0  0.6305656078417528  0.7399353764882193  0.9613050543156016  1.0000
  H   H25       1.0  0.36946853285974873  0.2643762258796655  0.9618420440835604  1.0000
  H   H26       1.0  0.6305340542149623  0.2643571933920512  0.9618490092783314  1.0000
  H   H27       1.0  0.07236970580479611  0.40896631666904426  0.45074269671358974  1.0000
  H   H28       1.0  0.07123507854610271  0.5913099481046871  0.5491349808888657  1.0000
  H   H29       1.0  0.9281130464960228  0.40899775402984767  0.4507785526338494  1.0000
  H   H30       1.0  0.9276466778307579  0.5911349403861692  0.5492861562114084  1.0000
  H   H31       1.0  0.36401132037288875  0.9360771666447506  0.49978816977143453  1.0000
  H   H32       1.0  0.6359631539174941  0.935993097938564  0.49995644034148495  1.0000
  H   H33       1.0  0.36402239600007397  0.0640573385074958  0.5000672210227036  1.0000
  H   H34       1.0  0.6359744921163754  0.06377385948144372  0.5001395621625803  1.0000
  H   H35       1.0  0.6358198868129321  0.5020152627958652  0.19642242033732055  1.0000
  H   H36       1.0  0.3639107804965748  0.5018468612003701  0.19694849683907725  1.0000
  H   H37       1.0  0.6361163454160775  0.501490545857081  0.2652281184917341  1.0000
  H   H38       1.0  0.36415049999423843  0.5011545926548493  0.26571293338609075  1.0000
  H   H39       1.0  0.9279372125009645  0.41262660845077903  0.011204750645703096  1.0000
  H   H40       1.0  0.9283092311161881  0.5938674621066582  0.9131224591685123  1.0000
  H   H41       1.0  0.0718599836686948  0.4122701199398193  0.011126484801422996  1.0000
  H   H42       1.0  0.072476168210116  0.5934037235883808  0.9129438889743466  1.0000
  H   H43       1.0  0.6361167271938086  0.9381928947898143  0.9610486603000719  1.0000
  H   H44       1.0  0.364251930362478  0.9384863715644725  0.9608831586582695  1.0000
  H   H45       1.0  0.6361229014670826  0.06615913782816558  0.9613737591946001  1.0000
  H   H46       1.0  0.3639766250554857  0.0662013759073474  0.9613104835222399  1.0000
  C   C1        1.0  0.5000784839584113  0.6463390680375127  0.500949078288407  1.0000
  C   C2        1.0  0.49853481702402286  0.500536961212326  0.579466740877258  1.0000
  C   C3        1.0  0.5002590789761713  0.35361023591102736  0.4997359865595853  1.0000
  C   C4        1.0  0.5000653042704926  0.499544767473047  0.4216489246266163  1.0000
  C   C5        1.0  0.4999029062742507  0.6485789357357135  0.961087317706436  1.0000
  C   C6        1.0  0.5014575081001382  0.5019500949599092  0.8825882484670939  1.0000
  C   C7        1.0  0.499932050862263  0.35581415596823257  0.9620428150489173  1.0000
  C   C8        1.0  0.4998867523297578  0.5019549387601574  0.04047709485288209  1.0000
  C   C9        1.0  0.25087553849613903  0.5461877375587035  0.5251587167331379  1.0000
  C   C10       1.0  0.1665239617833763  0.5479645166656366  0.5260074451042838  1.0000
  C   C11       1.0  0.12242663450314949  0.5000484835614003  0.5000284855356154  1.0000
  C   C12       1.0  0.1671228981058377  0.45216208760165716  0.4740994855227639  1.0000
  C   C13       1.0  0.2514908001413261  0.4539295437692346  0.4750893683260313  1.0000
  C   C14       1.0  0.03702656289772929  0.5000226199616478  0.5000040100182799  1.0000
  C   C15       1.0  0.9626496497022857  0.5000009876183497  0.5000354233394189  1.0000
  C   C16       1.0  0.8772542632774575  0.49998915410155587  0.5001130569116014  1.0000
  C   C17       1.0  0.8327503633466976  0.5477924607112284  0.5261701464426378  1.0000
  C   C18       1.0  0.7483937248338322  0.5459865996890372  0.5253596293184016  1.0000
  C   C19       1.0  0.7486101190112321  0.45390696569158706  0.47517779213772104  1.0000
  C   C20       1.0  0.8329728151354276  0.45216915927521484  0.47415960216821407  1.0000
  C   C21       1.0  0.5000039480693347  0.7302327409881216  0.5004901485261115  1.0000
  C   C22       1.0  0.5737714491866941  0.7685826463459194  0.5003170978546476  1.0000
  C   C23       1.0  0.5738408649754874  0.8461415965946628  0.5001215390237446  1.0000
  C   C24       1.0  0.49998214817546227  0.8868040737665124  0.5000488072291631  1.0000
  C   C25       1.0  0.4261394087350112  0.8461808454368551  0.5000558045182115  1.0000
  C   C26       1.0  0.42622676337049376  0.76861689629105  0.5002628535554619  1.0000
  C   C27       1.0  0.4999846467456879  0.9655815070399145  0.4999802935509692  1.0000
  C   C28       1.0  0.4999853798836185  0.0343772771472572  0.49993416624172216  1.0000
  C   C29       1.0  0.5000381556065321  0.11315525891787806  0.49984238918044327  1.0000
  C   C30       1.0  0.5739275678219969  0.15371650082718702  0.49981951472751956  1.0000
  C   C31       1.0  0.5739048220404754  0.23127216063159045  0.4997276793028148  1.0000
  C   C32       1.0  0.5001612474340789  0.2697156275880488  0.49967362241471835  1.0000
  C   C33       1.0  0.4263533364515908  0.2314320770783951  0.4997171049039578  1.0000
  C   C34       1.0  0.42621690684330105  0.15387191832184755  0.49979020428762055  1.0000
  C   C35       1.0  0.4259532634264218  0.5005106764960702  0.6460120394271482  1.0000
  C   C36       1.0  0.42540492027080035  0.5006148551570178  0.6882304105209085  1.0000
  C   C37       1.0  0.3510250945341085  0.5007530167712203  0.710575941709095  1.0000
  C   C38       1.0  0.5726746963474199  0.5004255133486877  0.6452474566969923  1.0000
  C   C39       1.0  0.5750871409341443  0.50057970481528  0.6874104828427148  1.0000
  C   C40       1.0  0.6487759970896009  0.5006890954403289  0.7103819110262177  1.0000
  C   C41       1.0  0.5740868204829256  0.5011237176006061  0.8160309262520825  1.0000
  C   C42       1.0  0.5746503651166961  0.5009162368097789  0.7738095776778094  1.0000
  C   C43       1.0  0.6490180872026841  0.5008104494480179  0.7514481816839973  1.0000
  C   C44       1.0  0.42735328529607847  0.5012233910618704  0.8167862268775746  1.0000
  C   C45       1.0  0.42494873798608523  0.5010150394148026  0.7746269753933175  1.0000
  C   C46       1.0  0.35127197601656235  0.5009553384586029  0.7516432994746151  1.0000
  C   C47       1.0  0.49896949977973293  0.5004886384063029  0.624690623418118  1.0000
  C   C48       1.0  0.5003661279473591  0.5006886915347905  0.7096128328139952  1.0000
  C   C49       1.0  0.5010662020726644  0.501385302669078  0.8373505054085084  1.0000
  C   C50       1.0  0.49967703194366214  0.500885949473478  0.7524215554234955  1.0000
  C   C51       1.0  0.4998546501333507  0.502005955010354  0.08570343831979697  1.0000
  C   C52       1.0  0.4260618998675553  0.5020169435499541  0.10651681579969358  1.0000
  C   C53       1.0  0.42598890820413976  0.5018322183523339  0.14833477315610105  1.0000
  C   C54       1.0  0.49987769153573675  0.5016398205470834  0.17007626709150964  1.0000
  C   C55       1.0  0.5737549830563253  0.5018938046246858  0.1480480221837084  1.0000
  C   C56       1.0  0.5736627046345789  0.5020874469382337  0.10623395464511276  1.0000
  C   C57       1.0  0.4999321621737423  0.501361178010157  0.21253069675259434  1.0000
  C   C58       1.0  0.500067688195692  0.5011179624481557  0.24961683311681776  1.0000
  C   C59       1.0  0.5001088692086668  0.500794088777269  0.2920711765362752  1.0000
  C   C60       1.0  0.42620978807374144  0.5005646628198264  0.31408716671099046  1.0000
  C   C61       1.0  0.42628825911872076  0.500180609040271  0.3559023117774557  1.0000
  C   C62       1.0  0.5000898228823091  0.49997899995767636  0.3764369879836094  1.0000
  C   C63       1.0  0.5738950646039029  0.5002980289840195  0.3556358131400045  1.0000
  C   C64       1.0  0.5739891077276126  0.5007027619792908  0.3138180414501121  1.0000
  C   C65       1.0  0.7488641511988164  0.5486507850548535  0.937109227745587  1.0000
  C   C66       1.0  0.8332158488230236  0.5506475873371245  0.9362465203962029  1.0000
  C   C67       1.0  0.8775391346581999  0.5031003159168607  0.9621082074752676  1.0000
  C   C68       1.0  0.8330271456174287  0.45535142849732324  0.9879343488186192  1.0000
  C   C69       1.0  0.748662734935678  0.45680251463492266  0.9869288705941126  1.0000
  C   C70       1.0  0.9629434716678986  0.503161893489249  0.9620984318386189  1.0000
  C   C71       1.0  0.03732224502557101  0.5030411572873348  0.9620967926405934  1.0000
  C   C72       1.0  0.12273708856076843  0.5028960907748754  0.9620262869384175  1.0000
  C   C73       1.0  0.1673172077570584  0.5503824638932429  0.9360834855482449  1.0000
  C   C74       1.0  0.2516749818726538  0.5484024411936091  0.9368817523268046  1.0000
  C   C75       1.0  0.2513492847393408  0.45668151869450924  0.9867747612350541  1.0000
  C   C76       1.0  0.1669782447125314  0.4551739918807555  0.9878265587063448  1.0000
  C   C77       1.0  0.5000104454017277  0.732489723480157  0.9611277225311949  1.0000
  C   C78       1.0  0.42626983537857654  0.7709477338273132  0.9611101321725143  1.0000
  C   C79       1.0  0.4262475694977894  0.8485151752474493  0.961099327895276  1.0000
  C   C80       1.0  0.5001519917323806  0.8890468907796532  0.9611736256918701  1.0000
  C   C81       1.0  0.573984799863922  0.8483447195846737  0.9611800551111072  1.0000
  C   C82       1.0  0.5738327418107759  0.770783390731033  0.9611778932642491  1.0000
  C   C83       1.0  0.5001881258312083  0.9678155199993053  0.9612896322328478  1.0000
  C   C84       1.0  0.5001159030588271  0.0365991477851537  0.9614643175072144  1.0000
  C   C85       1.0  0.500053214902465  0.1153767676663477  0.9616801720325154  1.0000
  C   C86       1.0  0.4261785640754283  0.15601867990669396  0.9617498509837644  1.0000
  C   C87       1.0  0.426238939833283  0.2335795685798701  0.9619409621294747  1.0000
  C   C88       1.0  0.499993950716913  0.2719363507917407  0.9620278225178251  1.0000
  C   C89       1.0  0.5737855157470123  0.23356761327094228  0.9619350300527568  1.0000
  C   C90       1.0  0.5738994488560252  0.15601290010068417  0.9617620332759383  1.0000
  Br  Br1       1.0  0.2495258810442138  0.5013238471059084  0.779201138224735  1.0000
  Br  Br2       1.0  0.7505157843943026  0.5007600304382009  0.6828130740578187  1.0000
  N   N1        1.0  0.29072115917141167  0.5000190148167719  0.5001798847900644  1.0000
  N   N2        1.0  0.708955631401743  0.499931761437459  0.5003240199819883  1.0000
  N   N3        1.0  0.7092128876046858  0.5025490548782726  0.9619542819358455  1.0000
  N   N4        1.0  0.2910827286212694  0.5024280108269464  0.9617649267034805  1.0000
  O   O1        1.0  0.5688077740013  0.6141266287056695  0.5010165518191128  1.0000
  O   O2        1.0  0.43139745516635497  0.6140388638564929  0.5012216035255646  1.0000
  O   O3        1.0  0.42967823459901683  0.5006778272433009  0.5623285646474583  1.0000
  O   O4        1.0  0.5670898415255081  0.500402424280928  0.5618085747208497  1.0000
  O   O5        1.0  0.4315714954805329  0.3859469195652777  0.5000737622884157  1.0000
  O   O6        1.0  0.5689812607363011  0.3857854068682088  0.4995233287295162  1.0000
  O   O7        1.0  0.5687405769050642  0.4995709360263946  0.43893051090871876  1.0000
  O   O8        1.0  0.43132129726036084  0.4992631724294866  0.4391465001250409  1.0000
  O   O9        1.0  0.43117908228137486  0.6164103818850891  0.9611780358767417  1.0000
  O   O10       1.0  0.5685665503642882  0.6162027701239124  0.960993100250121  1.0000
  O   O11       1.0  0.5702962003764329  0.5022978331616272  0.8997501903987766  1.0000
  O   O12       1.0  0.43289102252938955  0.5020511178921936  0.9002328023469841  1.0000
  O   O13       1.0  0.5686337017958465  0.388080291768965  0.9617569278151732  1.0000
  O   O14       1.0  0.43122169176627523  0.3880563898211236  0.9622644678024198  1.0000
  O   O15       1.0  0.43122164218586795  0.5021604961023343  0.023185801407556994  1.0000
  O   O16       1.0  0.5686286451301755  0.5017384504279789  0.022978949209530693  1.0000
  O   O17       1.0  0.1310041141774292  0.4041213560908403  0.4480985763490465  1.0000
  O   O18       1.0  0.12980174746181214  0.5959842351839695  0.551981661301326  1.0000
  O   O19       1.0  0.8695250184004025  0.4042409273339372  0.4480846846244545  1.0000
  O   O20       1.0  0.8690362923192013  0.5957567021562653  0.5521552593190008  1.0000
  O   O21       1.0  0.3533465034134764  0.8824561294349209  0.49989458432473527  1.0000
  O   O22       1.0  0.6466246465114979  0.8823611946468971  0.5000410396284279  1.0000
  O   O23       1.0  0.35340289380751244  0.11769249232982297  0.4998292891911048  1.0000
  O   O24       1.0  0.6466812598102579  0.11738700124632119  0.4999117086401128  1.0000
  O   O25       1.0  0.6465155810781767  0.5019654878036947  0.16748251247587115  1.0000
  O   O26       1.0  0.3532274448522942  0.5018526301800179  0.16804956232596874  1.0000
  O   O27       1.0  0.6467588136955699  0.5010045573762624  0.2941265848670581  1.0000
  O   O28       1.0  0.3534623792421456  0.5007062843901907  0.2946507504913782  1.0000
  O   O29       1.0  0.8693258138430268  0.4076696014779557  0.013827204676658794  1.0000
  O   O30       1.0  0.8697234172922779  0.5984725327641273  0.9103582384230646  1.0000
  O   O31       1.0  0.1304454688968448  0.40750024237373594  0.013770467144141195  1.0000
  O   O32       1.0  0.1310884310803146  0.5981680207821682  0.910225219269648  1.0000
  O   O33       1.0  0.6467738971943789  0.8845587979822085  0.9611925837743409  1.0000
  O   O34       1.0  0.3535210660099253  0.8848748467355207  0.9610300491273376  1.0000
  O   O35       1.0  0.6467157629608593  0.11978766931545688  0.9616240118433548  1.0000
  O   O36       1.0  0.353381804288631  0.11983632258417028  0.9615820257370228  1.0000
