data_image0
_chemical_formula_structural       Cd2H48C40S4N16
_chemical_formula_sum              "Cd2 H48 C40 S4 N16"
_cell_length_a       9.102442119242916
_cell_length_b       10.82228849376642
_cell_length_c       12.33050194700705
_cell_angle_alpha    89.99987808370304
_cell_angle_beta     90.00002645926104
_cell_angle_gamma    108.61164981271699

_space_group_name_H-M_alt    "P 1"
_space_group_IT_number       1

loop_
  _space_group_symop_operation_xyz
  'x, y, z'

loop_
  _atom_site_type_symbol
  _atom_site_label
  _atom_site_symmetry_multiplicity
  _atom_site_fract_x
  _atom_site_fract_y
  _atom_site_fract_z
  _atom_site_occupancy
  Cd  Cd1       1.0  0.8166835053867487  0.7496415820399918  0.6778209937632129  1.0000
  Cd  Cd2       1.0  0.1833179751665099  0.25035959629747134  0.17782062004444307  1.0000
  H   H1        1.0  0.6296265830713564  0.5567111722404477  0.8756241196451102  1.0000
  H   H2        1.0  0.3703730214191268  0.44329050143348064  0.3756242602907634  1.0000
  H   H3        1.0  0.13585971812749162  0.4395843121235147  0.8224381509575952  1.0000
  H   H4        1.0  0.8641384289373804  0.5604165286706505  0.3224382413956804  1.0000
  H   H5        1.0  0.18851491406319099  0.5875895865184972  0.6611647816475358  1.0000
  H   H6        1.0  0.8114847174888027  0.41240969223592583  0.16116594167508685  1.0000
  H   H7        1.0  0.46362155550998096  0.7193242965090789  0.6187203669277965  1.0000
  H   H8        1.0  0.5363770380578003  0.2806780308121475  0.11872167915066713  1.0000
  H   H9        1.0  0.3166210815851827  0.2955719890477796  0.9302449576523418  1.0000
  H   H10       1.0  0.6833799798597155  0.7044305139043486  0.43024390623003245  1.0000
  H   H11       1.0  0.4667526223326845  0.4112791569207559  0.9999962935518458  1.0000
  H   H12       1.0  0.5332473208705792  0.5887231794115025  0.4999970290616675  1.0000
  H   H13       1.0  0.13825249253589791  0.4035847740002297  0.0040108376505827  1.0000
  H   H14       1.0  0.8617475702215316  0.5964158743585699  0.5040098911014043  1.0000
  H   H15       1.0  0.2804561397721343  0.5020805573585039  0.07689506966107022  1.0000
  H   H16       1.0  0.7195420879631484  0.4979209000211143  0.5768950695911956  1.0000
  H   H17       1.0  0.9753145950550818  0.8972073782110214  0.4533304273672628  1.0000
  H   H18       1.0  0.024686035834633895  0.10279115834902089  0.9533309283156872  1.0000
  H   H19       1.0  0.4733040072582568  0.0297904703051444  0.48371191044768136  1.0000
  H   H20       1.0  0.5266940434256071  0.970207032065517  0.9837109619380587  1.0000
  H   H21       1.0  0.4405757917668822  0.9176997266410469  0.6636388680855776  1.0000
  H   H22       1.0  0.5594245981204863  0.08230149584530007  0.16363812589507634  1.0000
  H   H23       1.0  0.17056028890822006  0.8015790214235778  0.7310295365876132  1.0000
  H   H24       1.0  0.8294393630877436  0.19842301534735898  0.23102623664568978  1.0000
  H   H25       1.0  0.3543327790324327  0.12150574857269451  0.3462056422930715  1.0000
  H   H26       1.0  0.6456693619512565  0.8784940234254112  0.8462057168068998  1.0000
  H   H27       1.0  0.25450373978134166  0.9752246658367696  0.2793843523344678  1.0000
  H   H28       1.0  0.7454984231553256  0.024775273953785898  0.7793868672898514  1.0000
  H   H29       1.0  0.0829974365809036  0.1342414309580064  0.38041505920514157  1.0000
  H   H30       1.0  0.9170035544418127  0.8657553302230455  0.8804152502067101  1.0000
  H   H31       1.0  0.0215979553416901  0.014345750352220002  0.290879470732378  1.0000
  H   H32       1.0  0.978402349345316  0.9856522191673065  0.790881080651282  1.0000
  H   H33       1.0  0.6894403993700992  0.9011036267586267  0.3210202704935058  1.0000
  H   H34       1.0  0.3105654588336435  0.09890009129026818  0.8210249313561778  1.0000
  H   H35       1.0  0.5367158184162905  0.635735097236335  0.05385861896571242  1.0000
  H   H36       1.0  0.4632794236925406  0.3642615516721293  0.5538571591297414  1.0000
  H   H37       1.0  0.8188016825915059  0.6635124110767734  0.0162040508106358  1.0000
  H   H38       1.0  0.18119171741430054  0.33648239097366434  0.5162074125072211  1.0000
  H   H39       1.0  0.020068567270698258  0.8105055302336127  0.13523056170765815  1.0000
  H   H40       1.0  0.9799247936291378  0.18948897291950573  0.6352409589071828  1.0000
  H   H41       1.0  0.4017640444123812  0.7055045166386122  0.30496509664899923  1.0000
  H   H42       1.0  0.5982370147954512  0.2944953674572588  0.8049630022905067  1.0000
  H   H43       1.0  0.41983921220330717  0.8507524580840529  0.23505215725361958  1.0000
  H   H44       1.0  0.5801633014760768  0.14924563455508633  0.7350519501414257  1.0000
  H   H45       1.0  0.2050607918378375  0.6390606877412067  0.19061130514737104  1.0000
  H   H46       1.0  0.7949373985374918  0.3609404840862779  0.6906099648128791  1.0000
  H   H47       1.0  0.2896262856409564  0.7296895416586366  0.08730238297084725  1.0000
  H   H48       1.0  0.7103737497521576  0.2703108975473825  0.5873003721115497  1.0000
  C   C1        1.0  0.8973386727087841  0.5308534994325242  0.8523858816947227  1.0000
  C   C2        1.0  0.10265685089667187  0.46914337481594254  0.35238182759069775  1.0000
  C   C3        1.0  0.7461907620649199  0.9921199880256637  0.524467711781739  1.0000
  C   C4        1.0  0.2538184795454582  0.0078844491050845  0.024462138281272406  1.0000
  C   C5        1.0  0.5281435262445129  0.5627789609348142  0.8315310011356376  1.0000
  C   C6        1.0  0.4718553335841024  0.437220873517397  0.3315328097815425  1.0000
  C   C7        1.0  0.3791457731506753  0.48782388969387824  0.863448643374355  1.0000
  C   C8        1.0  0.6208542149136207  0.5121787895231195  0.3634503628457325  1.0000
  C   C9        1.0  0.2544268970183765  0.49725984170520837  0.8013968003384168  1.0000
  C   C10       1.0  0.7455723522844411  0.5027410433884044  0.3013985800472626  1.0000
  C   C11       1.0  0.28279949396902276  0.5801217484061354  0.7122267973956867  1.0000
  C   C12       1.0  0.7171994050554887  0.41987838563071717  0.21222953325430188  1.0000
  C   C13       1.0  0.43536811921320867  0.6520946605968946  0.6872204749267612  1.0000
  C   C14       1.0  0.5646289769505302  0.34790652827872043  0.18722086017262285  1.0000
  C   C15       1.0  0.35520352390535953  0.39696319626350623  0.9592420669884734  1.0000
  C   C16       1.0  0.6447975280129724  0.6030392338745257  0.45924038085946267  1.0000
  C   C17       1.0  0.0818018537286775  0.9033800445539839  0.49682484871783583  1.0000
  C   C18       1.0  0.9181991424456015  0.09661935775960022  0.9968240444231288  1.0000
  C   C19       1.0  0.2266095673434308  0.9711565339469602  0.4529636597563  1.0000
  C   C20       1.0  0.7733939700688809  0.0288410029568169  0.9529637436494982  1.0000
  C   C21       1.0  0.35773845690484757  0.9757019574643592  0.5140074215613739  1.0000
  C   C22       1.0  0.6422630340710286  0.024296698778165596  0.014006816058746105  1.0000
  C   C23       1.0  0.3399870271982552  0.9139216089835502  0.614348890197846  1.0000
  C   C24       1.0  0.6600122401611941  0.08607681236394168  0.11434655331593292  1.0000
  C   C25       1.0  0.1911003856891967  0.8494392844556774  0.6520627181786055  1.0000
  C   C26       1.0  0.8089000080016504  0.15056196710172287  0.15206031165464406  1.0000
  C   C27       1.0  0.24413838428291257  0.040743572750422195  0.34525845444471076  1.0000
  C   C28       1.0  0.7558640931894162  0.9592542431485357  0.845258415681727  1.0000
  C   C29       1.0  0.7129273090421717  0.8439416498347965  0.25382760505825536  1.0000
  C   C30       1.0  0.28707705294132774  0.15605833705888023  0.7538313400856896  1.0000
  C   C31       1.0  0.5901339460719299  0.7625990472439809  0.19253737334643267  1.0000
  C   C32       1.0  0.4098627253744027  0.23739821985930118  0.6925385653244762  1.0000
  C   C33       1.0  0.628650543237292  0.6977420021888037  0.10472674111750993  1.0000
  C   C34       1.0  0.371344682159247  0.30225451898315464  0.6047261767467449  1.0000
  C   C35       1.0  0.7843537364379999  0.7139641755388056  0.08329291302838021  1.0000
  C   C36       1.0  0.21564149599998927  0.286032399452793  0.5832947587759494  1.0000
  C   C37       1.0  0.897376729982149  0.7951315806005038  0.15050828726530344  1.0000
  C   C38       1.0  0.10262100720039057  0.2048628500518745  0.6505143010699967  1.0000
  C   C39       1.0  0.426039793861456  0.750907473416305  0.2241037921985908  1.0000
  C   C40       1.0  0.5739612485157863  0.24908968028106668  0.7241025853917055  1.0000
  S   S1        1.0  0.8668476100891523  0.4057684243385395  0.9324905993401631  1.0000
  S   S2        1.0  0.13315121657079487  0.5942311565967273  0.4324895658912526  1.0000
  S   S3        1.0  0.783010411729812  0.12627306025258633  0.4547633355341463  1.0000
  S   S4        1.0  0.21699616168389482  0.8737322719092548  0.9547567845434488  1.0000
  N   N1        1.0  0.9187413101978308  0.6214190446375482  0.7928286145625167  1.0000
  N   N2        1.0  0.08125903724516091  0.3785818534351222  0.2928312103602978  1.0000
  N   N3        1.0  0.7178921566818915  0.8930073077176814  0.574175427243354  1.0000
  N   N4        1.0  0.2821079264209273  0.1069960979041227  0.07417048919405292  1.0000
  N   N5        1.0  0.5564528633421091  0.6435368531686905  0.7456795998429444  1.0000
  N   N6        1.0  0.44354678384002  0.35646514680878033  0.24568073873194157  1.0000
  N   N7        1.0  0.24245430251813357  0.4108103125306997  0.040139953733479714  1.0000
  N   N8        1.0  0.7575476028425782  0.5891921865096491  0.5401397960877434  1.0000
  N   N9        1.0  0.06443279673873561  0.8444669418859762  0.5941072340833743  1.0000
  N   N10       1.0  0.9355687113179201  0.1555344466673247  0.09410567253328143  1.0000
  N   N11       1.0  0.11757870737295659  0.09097542506017932  0.3156180677981056  1.0000
  N   N12       1.0  0.8824219687605249  0.9090234573100348  0.8156189771307968  1.0000
  N   N13       1.0  0.8627777452892361  0.8602788622645363  0.23456724780298546  1.0000
  N   N14       1.0  0.13722590727012826  0.1397221564966102  0.7345742061589393  1.0000
  N   N15       1.0  0.3075611007762689  0.6726782403401048  0.14937290515134555  1.0000
  N   N16       1.0  0.6924371031474621  0.3273230350414522  0.6493715926245756  1.0000
