data_image0
_chemical_formula_structural       K2H10C12N12O12
_chemical_formula_sum              "K2 H10 C12 N12 O12"
_cell_length_a       4.569510820000667
_cell_length_b       10.064602015434833
_cell_length_c       12.307127454737884
_cell_angle_alpha    106.42843993289803
_cell_angle_beta     90.00003014283682
_cell_angle_gamma    90.00004321215447

_space_group_name_H-M_alt    "P 1"
_space_group_IT_number       1

loop_
  _space_group_symop_operation_xyz
  'x, y, z'

loop_
  _atom_site_type_symbol
  _atom_site_label
  _atom_site_symmetry_multiplicity
  _atom_site_fract_x
  _atom_site_fract_y
  _atom_site_fract_z
  _atom_site_occupancy
  K   K1        1.0  0.8210975882967446  0.499999614659508  0.7499997985214717  1.0000
  K   K2        1.0  0.17890157923056899  0.5000014846165397  0.25000110123140457  1.0000
  H   H1        1.0  0.9999983998288329  0.500000148067663  0.4999999960303965  1.0000
  H   H2        1.0  1.1204698466999999e-06  0.4999999737917945  0.9999997519679124  1.0000
  H   H3        1.0  0.1597358577928034  0.9214943785122997  0.38344277326343235  1.0000
  H   H4        1.0  0.15973496993991176  0.07850549381733168  0.11655706165755214  1.0000
  H   H5        1.0  0.8402654981509767  0.0785056945028444  0.6165570691249227  1.0000
  H   H6        1.0  0.8402663860028312  0.9214935433699052  0.8834425336559941  1.0000
  H   H7        1.0  0.4461361915828448  0.7985324564533656  0.34944055133556856  1.0000
  H   H8        1.0  0.4461355557882315  0.2014665174189005  0.15055831195346764  1.0000
  H   H9        1.0  0.5538629759418399  0.20146658073338128  0.6505590439776581  1.0000
  H   H10       1.0  0.5538636117358919  0.7985325293343593  0.8494404730697053  1.0000
  C   C1        1.0  0.6730619859604373  0.6431702202746052  0.4927032942505034  1.0000
  C   C2        1.0  0.673061405865795  0.3568309169508765  0.0072969414075742785  1.0000
  C   C3        1.0  0.32693718156528456  0.35682985274004136  0.5072965481375176  1.0000
  C   C4        1.0  0.3269377616599201  0.6431691560637774  0.9927029009804469  1.0000
  C   C5        1.0  0.2715115116012967  0.832328825516477  0.5067697830359135  1.0000
  C   C6        1.0  0.27151130325638917  0.16767119438178213  0.9932298965652674  1.0000
  C   C7        1.0  0.7284898443424837  0.1676712474986601  0.49323005935243447  1.0000
  C   C8        1.0  0.7284878642693329  0.8323288786328645  0.0067699458227535895  1.0000
  C   C9        1.0  0.44920882860932204  0.743220011003821  0.5534986123858088  1.0000
  C   C10       1.0  0.4492108906353919  0.2567780165352218  0.9465006262591441  1.0000
  C   C11       1.0  0.5507925273338969  0.25678007157783617  0.4465004197124855  1.0000
  C   C12       1.0  0.5507904653063206  0.7432199848241154  0.053498721979614944  1.0000
  N   N1        1.0  0.3743300055937056  0.7604431472232704  0.6598048052399645  1.0000
  N   N2        1.0  0.3743318890288164  0.2395569185574331  0.840194905139853  1.0000
  N   N3        1.0  0.6256691619330467  0.23955796161929035  0.340195284222851  1.0000
  N   N4        1.0  0.6256694669139334  0.7604421186298042  0.1598046901737006  1.0000
  N   N5        1.0  0.2760283398206766  0.8426189750001852  0.40019418977767146  1.0000
  N   N6        1.0  0.2760275592392816  0.1573809492241125  0.09980567995504684  1.0000
  N   N7        1.0  0.7239730161220663  0.15738006218705183  0.5998054055358819  1.0000
  N   N8        1.0  0.7239694198689435  0.8426191142235456  0.9001949727227013  1.0000
  N   N9        1.0  0.08909166192128029  0.9018101156977848  0.5873005925359249  1.0000
  N   N10       1.0  0.0890912246236439  0.09819084905834792  0.9127000898233742  1.0000
  N   N11       1.0  0.9109096940225001  0.0981899573173521  0.4126992498524229  1.0000
  N   N12       1.0  0.9109079429032005  0.9018092048232802  0.08730137314475421  1.0000
  O   O1        1.0  0.8163552130915122  0.5786279109479011  0.5536687436814842  1.0000
  O   O2        1.0  0.8163531712155317  0.4213713162544081  0.946330851941539  1.0000
  O   O3        1.0  0.18364395443420986  0.4213721620667527  0.4463310987065368  1.0000
  O   O4        1.0  0.1836438078910945  0.5786277209318484  0.05366874337135383  1.0000
  O   O5        1.0  0.15479894321357077  0.855923927020804  0.6824675658684496  1.0000
  O   O6        1.0  0.15479844778215576  0.14407604079529793  0.817532078795217  1.0000
  O   O7        1.0  0.8452046011487439  0.1440771913892362  0.317531713304973  1.0000
  O   O8        1.0  0.8452029081611556  0.8559229868254263  0.1824683268083901  1.0000
  O   O9        1.0  0.7063915058643601  0.6264781980004059  0.38883311282912547  1.0000
  O   O10       1.0  0.7063889116263126  0.37352294453116747  0.11116794309576504  1.0000
  O   O11       1.0  0.2936120384985159  0.3735229108431284  0.6111669766343437  1.0000
  O   O12       1.0  0.2936124443174677  0.6264771284839766  0.888831899292583  1.0000
