data_image0
_chemical_formula_structural       Ho4H32C24N4O28
_chemical_formula_sum              "Ho4 H32 C24 N4 O28"
_cell_length_a       6.575676615039563
_cell_length_b       6.766899512054955
_cell_length_c       19.442433768551545
_cell_angle_alpha    93.2143457392238
_cell_angle_beta     89.99962263593491
_cell_angle_gamma    90.00011822702987

_space_group_name_H-M_alt    "P 1"
_space_group_IT_number       1

loop_
  _space_group_symop_operation_xyz
  'x, y, z'

loop_
  _atom_site_type_symbol
  _atom_site_label
  _atom_site_symmetry_multiplicity
  _atom_site_fract_x
  _atom_site_fract_y
  _atom_site_fract_z
  _atom_site_occupancy
  Ho  Ho1       1.0  0.2581324401239442  0.267775795284777  0.8979728225786513  1.0000
  Ho  Ho2       1.0  0.7581370067217605  0.23222575875610119  0.6020327254975084  1.0000
  Ho  Ho3       1.0  0.7418671656933071  0.7322277721213624  0.10202785502032438  1.0000
  Ho  Ho4       1.0  0.24186564060875065  0.7677733689106887  0.39796735050168036  1.0000
  H   H1        1.0  0.8223046844608176  0.998227218862553  0.7503295052893078  1.0000
  H   H2        1.0  0.3223023993116243  0.5017696850312987  0.7496761205759268  1.0000
  H   H3        1.0  0.17769187984549006  0.0017719087990713002  0.249670570716681  1.0000
  H   H4        1.0  0.6776972065252664  0.49823388472854907  0.2503224997135404  1.0000
  H   H5        1.0  0.08838186793563099  0.9933709354804848  0.7354959980551781  1.0000
  H   H6        1.0  0.5883752621196479  0.5066285321754194  0.7645096951772314  1.0000
  H   H7        1.0  0.9116192586351702  0.0066296717067047  0.2645046213627538  1.0000
  H   H8        1.0  0.4116228229476206  0.4933705960759271  0.23548986649968373  1.0000
  H   H9        1.0  0.8376351871261677  0.9179031594312619  0.925974018412944  1.0000
  H   H10       1.0  0.33765010846445886  0.5820952511965771  0.5740310878862471  1.0000
  H   H11       1.0  0.16235681491814796  0.08209744892503323  0.07402557236044768  1.0000
  H   H12       1.0  0.6623571011489274  0.41790387823936465  0.4259674451257069  1.0000
  H   H13       1.0  0.6896207489813617  0.9628354864360275  0.8524581461088442  1.0000
  H   H14       1.0  0.1896265700026092  0.537174514424919  0.6475470098412045  1.0000
  H   H15       1.0  0.3103758153373661  0.037172522474740795  0.14754159010778517  1.0000
  H   H16       1.0  0.810377598104843  0.462826095706987  0.3524510379364471  1.0000
  H   H17       1.0  0.18597864928083402  0.7769755066369015  0.7937381793443448  1.0000
  H   H18       1.0  0.6859796859431597  0.72303004711938  0.7062674118203061  1.0000
  H   H19       1.0  0.8140179150218073  0.22302510054641542  0.20626244007868877  1.0000
  H   H20       1.0  0.3140260028920281  0.27696611974133123  0.29373312032350896  1.0000
  H   H21       1.0  0.9860478443961044  0.6897671731922587  0.8432874647787754  1.0000
  H   H22       1.0  0.48604493037779417  0.8102314893248987  0.6567173093984806  1.0000
  H   H23       1.0  0.013950240647858402  0.31023343222707206  0.15671469762468596  1.0000
  H   H24       1.0  0.5139607584648119  0.18976763834447047  0.3432827665972979  1.0000
  H   H25       1.0  0.20810193191595516  0.455618309857293  0.03329442013815508  1.0000
  H   H26       1.0  0.7081021888314752  0.04438752410163  0.46670835446134606  1.0000
  H   H27       1.0  0.7919022361632884  0.5443837768541756  0.9667067426934178  1.0000
  H   H28       1.0  0.2918989377429781  0.9556116035638665  0.5332917215395411  1.0000
  H   H29       1.0  0.4222804963324123  0.3509726029183041  0.0382510252564501  1.0000
  H   H30       1.0  0.9222810642486863  0.14902915365264138  0.46175169707758096  1.0000
  H   H31       1.0  0.577723671760303  0.649028005448322  0.9617485655033274  1.0000
  H   H32       1.0  0.0777200623196066  0.8509684933143118  0.5382488641610123  1.0000
  C   C1        1.0  0.9690504042314599  0.057113937393886316  0.7695165183638293  1.0000
  C   C2        1.0  0.46904787673307163  0.44288501500540894  0.7304879851871602  1.0000
  C   C3        1.0  0.030949201586942397  0.9428851902703241  0.23048355763875603  1.0000
  C   C4        1.0  0.5309502083341897  0.5571141132459376  0.26951157648975504  1.0000
  C   C5        1.0  0.9764917759226888  0.2789159821712772  0.7608187368895825  1.0000
  C   C6        1.0  0.47648710295194974  0.22108593719257644  0.7391909514633921  1.0000
  C   C7        1.0  0.023512392171184598  0.7210801864534203  0.2391802522738046  1.0000
  C   C8        1.0  0.5235048991021855  0.7789146723405765  0.26080761065524166  1.0000
  C   C9        1.0  0.8223191326147088  0.015368564165207502  0.8827411207894398  1.0000
  C   C10       1.0  0.3223249362560665  0.4846330988223713  0.6172642836379508  1.0000
  C   C11       1.0  0.17767743169535066  0.9846350038267743  0.11725904248555707  1.0000
  C   C12       1.0  0.6776807526012689  0.5153660306122845  0.3827342493757015  1.0000
  C   C13       1.0  0.7792147226638307  0.22001720546673204  0.9154248143496986  1.0000
  C   C14       1.0  0.2792176856941637  0.2799843849446901  0.5845801722195317  1.0000
  C   C15       1.0  0.22078488315833056  0.7799863625278292  0.08457534892190208  1.0000
  C   C16       1.0  0.720786482402211  0.7200147439002437  0.4154188751232012  1.0000
  C   C17       1.0  0.1006531626076281  0.8072486575320282  0.8417378190963017  1.0000
  C   C18       1.0  0.6006550531422191  0.6927523122464337  0.6582668470988294  1.0000
  C   C19       1.0  0.899346443202205  0.19275194906544607  0.15826331465071058  1.0000
  C   C20       1.0  0.39935063570038654  0.30724681542294263  0.3417332288969489  1.0000
  C   C21       1.0  0.2542915348538557  0.7894342798837926  0.8995211989398513  1.0000
  C   C22       1.0  0.7542869617231461  0.7105610325766065  0.6004809497574896  1.0000
  C   C23       1.0  0.7457080709657973  0.21056632789053256  0.10047890615241067  1.0000
  C   C24       1.0  0.24571568560244827  0.2894380945017616  0.3995196405690748  1.0000
  N   N1        1.0  0.010617501882904902  0.005976975155690001  0.840809085461714  1.0000
  N   N2        1.0  0.5106199975881509  0.49402563888035894  0.6591970456354587  1.0000
  N   N3        1.0  0.9893821039281858  0.994025111551899  0.15919207737496063  1.0000
  N   N4        1.0  0.4893826497460125  0.5059720092647383  0.34080248694667853  1.0000
  O   O1        1.0  0.0561313888767003  0.38724086949405023  0.8087815121431202  1.0000
  O   O2        1.0  0.5561400885452629  0.11275738146874661  0.6912244298197476  1.0000
  O   O3        1.0  0.9438621339224085  0.6127582587534233  0.19121804953889665  1.0000
  O   O4        1.0  0.4438534342489433  0.8872417461902985  0.3087756461896447  1.0000
  O   O5        1.0  0.9109325826328954  0.34376420057627405  0.7049852388118081  1.0000
  O   O6        1.0  0.41092062658948686  0.1562316958921102  0.7950167649989835  1.0000
  O   O7        1.0  0.0890685439415648  0.6562349270892298  0.29501483718907195  1.0000
  O   O8        1.0  0.5890668131939875  0.843765953416934  0.20498173894542043  1.0000
  O   O9        1.0  0.930169388241623  0.3189622516317669  0.9410443026116511  1.0000
  O   O10       1.0  0.43017567732883316  0.18103515114061963  0.558963344818288  1.0000
  O   O11       1.0  0.0698317383119402  0.681035393569907  0.05895780160906128  1.0000
  O   O12       1.0  0.569826970006588  0.818963977114592  0.44103621685351857  1.0000
  O   O13       1.0  0.5998796030548447  0.2845448658893517  0.9184661529250772  1.0000
  O   O14       1.0  0.09988553227383788  0.21546382362740252  0.5815368087974875  1.0000
  O   O15       1.0  0.40011848202975386  0.7154631441995534  0.08153255463510328  1.0000
  O   O16       1.0  0.9001171150566664  0.7845353040393873  0.41846326720169447  1.0000
  O   O17       1.0  0.3110247100886596  0.9472570530066733  0.9323239556067119  1.0000
  O   O18       1.0  0.8110204369552179  0.5527413165572596  0.5676776099755613  1.0000
  O   O19       1.0  0.6889824995321517  0.052745037237933404  0.0676741212571983  1.0000
  O   O20       1.0  0.18898829338841952  0.4472563298277237  0.4323234655819022  1.0000
  O   O21       1.0  0.3258899760489982  0.61807240235796  0.909710679374818  1.0000
  O   O22       1.0  0.8258859517872778  0.8819259924373598  0.5902908529392689  1.0000
  O   O23       1.0  0.6741111505205452  0.3819267247191149  0.09028991095343737  1.0000
  O   O24       1.0  0.17411517479700223  0.1180731364049947  0.4097081944068605  1.0000
  O   O25       1.0  0.2842918274395672  0.3337945864092263  0.018281252665936196  1.0000
  O   O26       1.0  0.7842935703391947  0.1662098955829663  0.4817223509868923  1.0000
  O   O27       1.0  0.7157092991312339  0.6662060207779633  0.9817193667519957  1.0000
  O   O28       1.0  0.21570755623651647  0.833790712192652  0.5182777541036642  1.0000
