data_image0
_chemical_formula_structural       Zr12H32C32O64
_chemical_formula_sum              "Zr12 H32 C32 O64"
_cell_length_a       11.801495297277627
_cell_length_b       13.442788850523804
_cell_length_c       19.303170339942273
_cell_angle_alpha    90.64059768631549
_cell_angle_beta     89.99647441266353
_cell_angle_gamma    90.01114620210018

_space_group_name_H-M_alt    "P 1"
_space_group_IT_number       1

loop_
  _space_group_symop_operation_xyz
  'x, y, z'

loop_
  _atom_site_type_symbol
  _atom_site_label
  _atom_site_symmetry_multiplicity
  _atom_site_fract_x
  _atom_site_fract_y
  _atom_site_fract_z
  _atom_site_occupancy
  Zr  Zr1       1.0  0.8604470307580172  0.13552605799303313  0.008555302412290203  1.0000
  Zr  Zr2       1.0  0.15969894657222738  0.12437332099354141  0.0034281989418332003  1.0000
  Zr  Zr3       1.0  0.8370356016618601  0.8724796218067611  0.006928836459671599  1.0000
  Zr  Zr4       1.0  0.14051793107218907  0.8624930839085823  0.9971609958115196  1.0000
  Zr  Zr5       1.0  0.9912262784942243  0.9979459812299185  0.8749096886863513  1.0000
  Zr  Zr6       1.0  0.006581529640548899  0.9933991809975782  0.1345865064867411  1.0000
  Zr  Zr7       1.0  0.3606183276697337  0.35425138357217634  0.501451223896126  1.0000
  Zr  Zr8       1.0  0.6597825683680866  0.36549373242181826  0.5064457908602904  1.0000
  Zr  Zr9       1.0  0.33732889199272614  0.6173691336463777  0.5033789192913432  1.0000
  Zr  Zr10      1.0  0.6407878927727066  0.6273646977089554  0.513111856128198  1.0000
  Zr  Zr11      1.0  0.49145421904459136  0.4916326295999341  0.6352650161271785  1.0000
  Zr  Zr12      1.0  0.5065252617192256  0.49668394879663685  0.3755064951723028  1.0000
  H   H1        1.0  0.006498747638538299  0.20755270223852318  0.10740655201113473  1.0000
  H   H2        1.0  0.23431840196978723  0.9921549076737862  0.8964173788670209  1.0000
  H   H3        1.0  0.013731168200408197  0.7818250139145138  0.09871078842112982  1.0000
  H   H4        1.0  0.744436305513531  0.0045103791357022005  0.9147746819993118  1.0000
  H   H5        1.0  0.37237759446821167  0.11741174018732892  0.9570421936859503  1.0000
  H   H6        1.0  0.34014051684952307  0.9738629830753567  0.0115362285294367  1.0000
  H   H7        1.0  0.23725536445819265  0.6856869607627446  0.0280025976616116  1.0000
  H   H8        1.0  0.7907324373164994  0.6746797440401197  0.042610822774634  1.0000
  H   H9        1.0  0.6134627071637552  0.8723711712143827  0.03368069278266721  1.0000
  H   H10       1.0  0.6437853038289986  0.20671486307487197  0.9700350832171766  1.0000
  H   H11       1.0  0.8702685752885981  0.3270415246062442  0.975165124379302  1.0000
  H   H12       1.0  0.028479952405241694  0.2979557055913631  0.0068492327881486004  1.0000
  H   H13       1.0  0.8026386346237119  0.6819787430578544  0.9606918006913289  1.0000
  H   H14       1.0  0.640787964562797  0.18483564335611655  0.05120841688012941  1.0000
  H   H15       1.0  0.15169781392724957  0.3281968674603064  0.0415910760959193  1.0000
  H   H16       1.0  0.3283272890925275  0.8953004209798722  0.07153492217643281  1.0000
  H   H17       1.0  0.5064877086783142  0.28239899045537703  0.4025081537244475  1.0000
  H   H18       1.0  0.7345433065954764  0.4973760584759929  0.6136790634641187  1.0000
  H   H19       1.0  0.513765302131766  0.708305623665659  0.411727825020705  1.0000
  H   H20       1.0  0.24480161513601925  0.485168208291995  0.5955205057984045  1.0000
  H   H21       1.0  0.8724347491358271  0.3721499842965131  0.5527825889473732  1.0000
  H   H22       1.0  0.8402994971574245  0.5159425231829431  0.49848326550380767  1.0000
  H   H23       1.0  0.7374403484912833  0.8044672227805024  0.48277273275073185  1.0000
  H   H24       1.0  0.290610770460276  0.815146416860266  0.4679592406062056  1.0000
  H   H25       1.0  0.11374065350881317  0.6177590777962011  0.4768593424408962  1.0000
  H   H26       1.0  0.1444839958412842  0.2826255809413993  0.5401697885594032  1.0000
  H   H27       1.0  0.3706205432495366  0.16270197874595033  0.5347495154942834  1.0000
  H   H28       1.0  0.5286975138207026  0.1918339376744882  0.5029183706203924  1.0000
  H   H29       1.0  0.3029641938811594  0.807647175149903  0.549858727882274  1.0000
  H   H30       1.0  0.1409652201808171  0.30453479043725923  0.4589628445271289  1.0000
  H   H31       1.0  0.652003509169262  0.1617233674496178  0.46817860828453217  1.0000
  H   H32       1.0  0.8284292878860171  0.5946925133816097  0.43863108494311825  1.0000
  C   C1        1.0  0.8191235340645872  0.17844650734472375  0.8401914795477198  1.0000
  C   C2        1.0  0.1958586256708087  0.15955049812843217  0.17120360828275247  1.0000
  C   C3        1.0  0.17700928626474166  0.161495087540935  0.8328200519816704  1.0000
  C   C4        1.0  0.8196831888027205  0.15840844356964115  0.178245675174999  1.0000
  C   C5        1.0  0.8135100267813227  0.8310691856916249  0.1723168233629693  1.0000
  C   C6        1.0  0.16282276527464748  0.8188436318083419  0.8336380152785808  1.0000
  C   C7        1.0  0.21863710735339478  0.8637432347230033  0.19282252793508556  1.0000
  C   C8        1.0  0.8134654579888191  0.828024293276272  0.8352499753286509  1.0000
  C   C9        1.0  0.31926752387821006  0.31100442538099327  0.6698466767443776  1.0000
  C   C10       1.0  0.6956138244673367  0.33074239772273734  0.3383393879310717  1.0000
  C   C11       1.0  0.6770423810037443  0.3279477309177922  0.6771593193414917  1.0000
  C   C12       1.0  0.3197298430795071  0.331644261030995  0.3315212072770066  1.0000
  C   C13       1.0  0.3137850523878  0.6592733066753736  0.3378850036859049  1.0000
  C   C14       1.0  0.6629570662852655  0.670832167811241  0.6766912497608146  1.0000
  C   C15       1.0  0.7184524138284302  0.6266208499234764  0.3173773487226725  1.0000
  C   C16       1.0  0.313954945543827  0.6616265430747035  0.675317047124814  1.0000
  C   C17       1.0  0.2444785135974783  0.788708839528404  0.24416567940568973  1.0000
  C   C18       1.0  0.27270773350988964  0.7261802623689206  0.2858783409321859  1.0000
  C   C19       1.0  0.7440485650075174  0.7018964893133912  0.2661720059211845  1.0000
  C   C20       1.0  0.7721588204026728  0.7644753100205082  0.2244559634973413  1.0000
  C   C21       1.0  0.27297977467207346  0.2725603028950871  0.2751539307860043  1.0000
  C   C22       1.0  0.2415285350009455  0.22076608776460918  0.22687683392867092  1.0000
  C   C23       1.0  0.21634739216861476  0.762560821088215  0.7785129134090953  1.0000
  C   C24       1.0  0.2618122361986011  0.7173857080314646  0.7313715348616584  1.0000
  C   C25       1.0  0.7674944281951637  0.23381696037565558  0.784568850777724  1.0000
  C   C26       1.0  0.72773521412671  0.2748877058488547  0.7343773807050766  1.0000
  C   C27       1.0  0.7612366289644967  0.7721358543161757  0.7792999789832677  1.0000
  C   C28       1.0  0.7160909563669833  0.7272038232413112  0.7319287473799676  1.0000
  C   C29       1.0  0.741056120349313  0.2696519401538923  0.28250995966036646  1.0000
  C   C30       1.0  0.7726468601986625  0.21760438530097304  0.2344069556565813  1.0000
  C   C31       1.0  0.2676071706226182  0.25550498189656423  0.7254059383584703  1.0000
  C   C32       1.0  0.22783239038216146  0.21432891196073464  0.7755525862290682  1.0000
  O   O1        1.0  0.7961167987168947  0.20439893177653806  0.9025176224730272  1.0000
  O   O2        1.0  0.8829802884774265  0.10750245734889319  0.8208252764323376  1.0000
  O   O3        1.0  0.22236853652812977  0.18278160808614527  0.109516345097191  1.0000
  O   O4        1.0  0.1300696254589369  0.08984284166196939  0.19012005253359382  1.0000
  O   O5        1.0  0.2084870866483044  0.18482612715729377  0.8937241887513919  1.0000
  O   O6        1.0  0.10562827406995717  0.09454161180158852  0.8149544706110348  1.0000
  O   O7        1.0  0.7830047926504021  0.17493127983909323  0.11721470522505231  1.0000
  O   O8        1.0  0.8968209302901966  0.09739333432559502  0.19539866130058675  1.0000
  O   O9        1.0  0.9039789272490991  0.28886162091276196  0.0123963215760483  1.0000
  O   O10       1.0  0.6655406970834786  0.15983075563868002  0.005866892451486202  1.0000
  O   O11       1.0  0.11773688908486687  0.28968373369491474  0.0040027363419952  1.0000
  O   O12       1.0  0.33201203683911723  0.09943064995445644  0.9989170133250697  1.0000
  O   O13       1.0  0.0031242540458151988  0.10855672581816121  0.9501522343107568  1.0000
  O   O14       1.0  0.0065184326585736975  0.14713448348985744  0.0793951842699627  1.0000
  O   O15       1.0  0.7802413946138242  0.8128075048987358  0.11026400240322691  1.0000
  O   O16       1.0  0.8811212267584168  0.8997053421903164  0.1911733968501608  1.0000
  O   O17       1.0  0.1881968686620112  0.7945924291741947  0.895497987933723  1.0000
  O   O18       1.0  0.09656659216771857  0.8882390576636683  0.8149457599793735  1.0000
  O   O19       1.0  0.29882276409502134  0.8959874532563251  0.1573711997792913  1.0000
  O   O20       1.0  0.11297548121088138  0.8889175528004217  0.18989021377043971  1.0000
  O   O21       1.0  0.797617248309386  0.7973923998549355  0.8963556458167404  1.0000
  O   O22       1.0  0.8695129276078073  0.9047866089104561  0.8172520394236216  1.0000
  O   O23       1.0  0.839656223071195  0.6970294203419201  0.005084160397444699  1.0000
  O   O24       1.0  0.6693102055356944  0.8855945911783679  0.9980902521157802  1.0000
  O   O25       1.0  0.17583352950765627  0.7312269263220942  0.0385225154320423  1.0000
  O   O26       1.0  0.326084511391052  0.9007398156953457  0.0197988748674902  1.0000
  O   O27       1.0  0.9990272366287696  0.8417427239618008  0.0722485562896935  1.0000
  O   O28       1.0  0.9883323425812875  0.8865710539627402  0.9460499812718268  1.0000
  O   O29       1.0  0.876191008062726  0.00034146922071439994  0.061894118639138206  1.0000
  O   O30       1.0  0.16988940014310566  0.9919154722843546  0.9275641402420688  1.0000
  O   O31       1.0  0.8180881477367945  0.0071813178404838  0.9372885221725157  1.0000
  O   O32       1.0  0.12623353532584497  0.9948496572960867  0.0562454088252409  1.0000
  O   O33       1.0  0.2962843360619871  0.2851736924021537  0.6074815090303929  1.0000
  O   O34       1.0  0.38313017060786336  0.381921202032551  0.6892971834361461  1.0000
  O   O35       1.0  0.7222539451459368  0.3072713562813405  0.3999682718937692  1.0000
  O   O36       1.0  0.6298525353505936  0.4005799164331664  0.3196670080366389  1.0000
  O   O37       1.0  0.7085032356457005  0.30483696163152985  0.6162099378667207  1.0000
  O   O38       1.0  0.6057253616430813  0.39488384847157937  0.6951555398257697  1.0000
  O   O39       1.0  0.2828472154172417  0.31498544940615153  0.3924968227657999  1.0000
  O   O40       1.0  0.39692677610900506  0.3927751328821928  0.3145678763071729  1.0000
  O   O41       1.0  0.40418726995896037  0.20094035912295993  0.49749042010148503  1.0000
  O   O42       1.0  0.16594008599975038  0.3295137540586239  0.5042649963071923  1.0000
  O   O43       1.0  0.617953561026539  0.20021891583932933  0.5057399902446775  1.0000
  O   O44       1.0  0.8320885060647923  0.390230684402681  0.5109254158716396  1.0000
  O   O45       1.0  0.5032850420373478  0.38117578501549343  0.5598591645092839  1.0000
  O   O46       1.0  0.5065332640979604  0.3427825549774326  0.430557720189114  1.0000
  O   O47       1.0  0.2803477003412524  0.67715938983838  0.3999617645702571  1.0000
  O   O48       1.0  0.38131182076149617  0.5906420856690459  0.3189402859157155  1.0000
  O   O49       1.0  0.6884697429518879  0.6952210711780183  0.6148650695946429  1.0000
  O   O50       1.0  0.5969172817603264  0.6011977060250617  0.6952717661420635  1.0000
  O   O51       1.0  0.7987015150286536  0.5942552839179315  0.3526833535993816  1.0000
  O   O52       1.0  0.61280775373136  0.6013620200866682  0.3203623836350928  1.0000
  O   O53       1.0  0.2981995483985144  0.6925223231373537  0.6142624175570646  1.0000
  O   O54       1.0  0.3699043067690866  0.58472354446004  0.6931114479054515  1.0000
  O   O55       1.0  0.33976693851087686  0.7927852842388959  0.5053607036787611  1.0000
  O   O56       1.0  0.1696493247094324  0.6043977394521677  0.5123795113655802  1.0000
  O   O57       1.0  0.6763395810089818  0.7587175325518842  0.4719447664130954  1.0000
  O   O58       1.0  0.8263014210723509  0.5890581925005661  0.49033272455154986  1.0000
  O   O59       1.0  0.4991436949733198  0.6483188234706746  0.43813037875791144  1.0000
  O   O60       1.0  0.4886149864494199  0.6031902187982112  0.5642581162359974  1.0000
  O   O61       1.0  0.3762017347536073  0.4895529485424107  0.4482514474748173  1.0000
  O   O62       1.0  0.6701250901742525  0.49780917853119183  0.5825300007675979  1.0000
  O   O63       1.0  0.31837265407310156  0.48252946698733024  0.5729003960291905  1.0000
  O   O64       1.0  0.6262691837981365  0.4951215543754445  0.4538580998422077  1.0000
