data_image0
_chemical_formula_structural       Hg4H44C44I8N12
_chemical_formula_sum              "Hg4 H44 C44 I8 N12"
_cell_length_a       8.658372603
_cell_length_b       12.438424669419712
_cell_length_c       13.4323
_cell_angle_alpha    90.0
_cell_angle_beta     90.0
_cell_angle_gamma    94.9662300166508

_space_group_name_H-M_alt    "P 1"
_space_group_IT_number       1

loop_
  _space_group_symop_operation_xyz
  'x, y, z'

loop_
  _atom_site_type_symbol
  _atom_site_label
  _atom_site_symmetry_multiplicity
  _atom_site_fract_x
  _atom_site_fract_y
  _atom_site_fract_z
  _atom_site_occupancy
  Hg  Hg1       1.0  0.7676093582373724  0.2153815573400166  0.3522963304869577  1.0000
  Hg  Hg2       1.0  0.7323915831482424  0.2846172519464574  0.8522970749611005  1.0000
  Hg  Hg3       1.0  0.2323919708501379  0.7846160612329243  0.6477036695130423  1.0000
  Hg  Hg4       1.0  0.2676030169490815  0.715381980606189  0.1477029250388995  1.0000
  H   H1        1.0  0.7834057377847543  0.45285042701033257  0.24419347393968135  1.0000
  H   H2        1.0  0.7165939482901535  0.0471475752862816  0.7441919849914027  1.0000
  H   H3        1.0  0.216594335992049  0.5471463845727556  0.7558057815861756  1.0000
  H   H4        1.0  0.28340632620516  0.952850850276505  0.2558050371120331  1.0000
  H   H5        1.0  0.6438091930513181  0.634411846518752  0.45559360645607677  1.0000
  H   H6        1.0  0.8561903146383543  0.8655878093000736  0.955592861981941  1.0000
  H   H7        1.0  0.3561885708225816  0.365584965064329  0.5444108603887656  1.0000
  H   H8        1.0  0.1438020759153247  0.1344122302424253  0.0444049045956376  1.0000
  H   H9        1.0  0.7984798827777622  0.649834229636923  0.6144993783640942  1.0000
  H   H10       1.0  0.7015185703197131  0.8501662331717555  0.11450012283822987  1.0000
  H   H11       1.0  0.2015180818146547  0.3501641959258706  0.38550211058419137  1.0000
  H   H12       1.0  0.2984807499426693  0.1498338063707436  0.8855006216359058  1.0000
  H   H13       1.0  0.9297618505672319  0.4885177646199281  0.6726442977003159  1.0000
  H   H14       1.0  0.5702407475661317  0.0114850796158166  0.1726435532261803  1.0000
  H   H15       1.0  0.070245855433086  0.5114846958921362  0.3273564467738197  1.0000
  H   H16       1.0  0.42976339322057566  0.988516573906395  0.827357935722105  1.0000
  H   H17       1.0  0.9107335853710764  0.3235682312758925  0.5668418662477775  1.0000
  H   H18       1.0  0.5892663014223486  0.1764313850004271  0.0668388883512137  1.0000
  H   H19       1.0  0.0892701539785961  0.676430194286901  0.4331603671746435  1.0000
  H   H20       1.0  0.4107332195585514  0.8235702685217845  0.9331611116487861  1.0000
  H   H21       1.0  0.4987688828590747  0.3911738063753134  0.35788211996456437  1.0000
  H   H22       1.0  0.0012313045682149017  0.1088258099010133  0.8578821199645644  1.0000
  H   H23       1.0  0.5012337015391494  0.6088246191874802  0.642119368983721  1.0000
  H   H24       1.0  0.9987665596649435  0.8911718086719276  0.14212011345785666  1.0000
  H   H25       1.0  0.5335477567088489  0.5307370528619586  0.3285059148470495  1.0000
  H   H26       1.0  0.9664482861264715  0.9692626029568672  0.8285066593211852  1.0000
  H   H27       1.0  0.4664513628350164  0.4692613727008279  0.6714933406788148  1.0000
  H   H28       1.0  0.0335451590193969  0.0307366295957792  0.17149334067881475  1.0000
  H   H29       1.0  0.795959920072157  0.3828254963257365  0.07581947991036489  1.0000
  H   H30       1.0  0.7040434315756201  0.11717411995059018  0.5758172464879435  1.0000
  H   H31       1.0  0.20404150937461196  0.6171729292370571  0.9241797756154924  1.0000
  H   H32       1.0  0.2959614627255007  0.8828243056122035  0.4241820090379136  1.0000
  H   H33       1.0  0.35836648853970837  0.418090952987562  0.22455796847896176  1.0000
  H   H34       1.0  0.1416337992468399  0.0819094702786174  0.7245587129531044  1.0000
  H   H35       1.0  0.6416327313634156  0.5819082795650843  0.7754412870468952  1.0000
  H   H36       1.0  0.8583698891032225  0.9180978321725773  0.2754442649434594  1.0000
  H   H37       1.0  0.22749155411535324  0.37721530285404015  0.06243457933488369  1.0000
  H   H38       1.0  0.27250652412755016  0.122785927401992  0.5624383017055905  1.0000
  H   H39       1.0  0.7725104774869606  0.622787964647884  0.937562442768552  1.0000
  H   H40       1.0  0.7274909880282295  0.8772181470897848  0.4375654206651162  1.0000
  H   H41       1.0  0.3876623389266455  0.3373354782015383  0.913145924376316  1.0000
  H   H42       1.0  0.1123442764130544  0.1626601031255106  0.4131451799021732  1.0000
  H   H43       1.0  0.6123397930349269  0.6626685962902386  0.08685258667539837  1.0000
  H   H44       1.0  0.8876589611403246  0.8373342874880123  0.586854075623684  1.0000
  C   C1        1.0  0.6941278704992583  0.470123237865927  0.4301177013616452  1.0000
  C   C2        1.0  0.8058720162941667  0.029876378410392597  0.9301162124133597  1.0000
  C   C3        1.0  0.3058759692096729  0.5298759946867193  0.5698830431124975  1.0000
  C   C4        1.0  0.1941239394731227  0.9701244681219663  0.06988304311249749  1.0000
  C   C5        1.0  0.7040307528212537  0.5669983350048113  0.4832873000156326  1.0000
  C   C6        1.0  0.7959675999169633  0.9330013208140144  0.9832880444897751  1.0000
  C   C7        1.0  0.2959706766255152  0.4330000905579823  0.5167119555102245  1.0000
  C   C8        1.0  0.2040295108017744  0.0669995257183444  0.0167134444585102  1.0000
  C   C9        1.0  0.7894065449086511  0.575259490150053  0.5713422124282488  1.0000
  C   C10       1.0  0.7105942180917281  0.9247409726586255  0.07134146795411309  1.0000
  C   C11       1.0  0.21059498489737646  0.4247397424025933  0.4286592765200296  1.0000
  C   C12       1.0  0.28940520252991314  0.0752598738737333  0.9286592765200294  1.0000
  C   C13       1.0  0.8634141256405954  0.4866108475926509  0.6035846429874281  1.0000
  C   C14       1.0  0.6365883721335024  0.0133911896532339  0.10358687640984947  1.0000
  C   C15       1.0  0.1365897140683288  0.5133883849599954  0.396414612538436  1.0000
  C   C16       1.0  0.36341114884739767  0.9866104638689777  0.8964153570125715  1.0000
  C   C17       1.0  0.8520261151178872  0.3938417148358155  0.5449610267787364  1.0000
  C   C18       1.0  0.6479738720347965  0.1061587084303639  0.0449595378304508  1.0000
  C   C19       1.0  0.1479777245910441  0.6061575177168308  0.45503897322126347  1.0000
  C   C20       1.0  0.3520243936353893  0.893842138101995  0.9550404621695491  1.0000
  C   C21       1.0  0.5902527043380204  0.4557749582447101  0.3406058530556919  1.0000
  C   C22       1.0  0.9097448725525012  0.0442246580316166  0.8406051085815561  1.0000
  C   C23       1.0  0.40974872510874144  0.5442234673180835  0.6593934024701653  1.0000
  C   C24       1.0  0.09024972754482263  0.9557745745210369  0.1593948914184438  1.0000
  C   C25       1.0  0.6697162700660755  0.3819668591200553  0.0763547568175227  1.0000
  C   C26       1.0  0.8302861273487635  0.1180343711359768  0.5763517789209587  1.0000
  C   C27       1.0  0.33028420514775547  0.6180331804224508  0.9236467321307628  1.0000
  C   C28       1.0  0.1697156031757814  0.8819664753963821  0.42364747660489843  1.0000
  C   C29       1.0  0.589631134780973  0.4035433468721692  0.16484444212830598  1.0000
  C   C30       1.0  0.9103687520124524  0.09645626940415748  0.664843697654163  1.0000
  C   C31       1.0  0.41036798476289243  0.5964550786906244  0.8351563023458366  1.0000
  C   C32       1.0  0.08963307887135132  0.9035453841180541  0.3351563023458368  1.0000
  C   C33       1.0  0.42673527759725977  0.4006801468667618  0.1594283927547764  1.0000
  C   C34       1.0  0.07326480947077131  0.0993186624197051  0.6594291372289189  1.0000
  C   C35       1.0  0.5732651976165782  0.5993198926757373  0.8405708627710806  1.0000
  C   C36       1.0  0.9267350125879048  0.9006854120720718  0.3405723517193664  1.0000
  C   C37       1.0  0.352994536202999  0.3774210852670521  0.0690566768163308  1.0000
  C   C38       1.0  0.1470053501465145  0.1225761100397023  0.5690566768163307  1.0000
  C   C39       1.0  0.647007093962287  0.622578954275447  0.9309418342353906  1.0000
  C   C40       1.0  0.8529963803780305  0.8774247364926566  0.4309448121319476  1.0000
  C   C41       1.0  0.44037573184184703  0.3560600638062184  0.985604103541462  1.0000
  C   C42       1.0  0.0596241545076666  0.1439371315005431  0.485601125644898  1.0000
  C   C43       1.0  0.5596239898575703  0.6439432036957058  0.014393663036116796  1.0000
  C   C44       1.0  0.9403772749391023  0.8560612940622504  0.514395896458538  1.0000
  I   I1        1.0  0.003031661698315707  0.2538773943912531  0.2185254945169461  1.0000
  I   I2        1.0  0.4969695803211636  0.24612141489521377  0.7185269834652317  1.0000
  I   I3        1.0  0.996967357486291  0.7461202241816878  0.7814737610089111  1.0000
  I   I4        1.0  0.5030239651839636  0.7538786246472853  0.2814730165347683  1.0000
  I   I5        1.0  0.4660386460717447  0.1356235220147255  0.3604349217929936  1.0000
  I   I6        1.0  0.03396259594773449  0.3643752872717414  0.8604356662671291  1.0000
  I   I7        1.0  0.5339639383264725  0.8643749035480681  0.6395658226811491  1.0000
  I   I8        1.0  0.9660332594602963  0.6356247522707577  0.1395658226811491  1.0000
  N   N1        1.0  0.7695305909099588  0.3853562165108926  0.46028230459415187  1.0000
  N   N2        1.0  0.7304692958834663  0.11464339976542699  0.9602815601200092  1.0000
  N   N3        1.0  0.2304731484397138  0.614642209051901  0.539717695405848  1.0000
  N   N4        1.0  0.26952655952456434  0.885356639777072  0.039717695405848  1.0000
  N   N5        1.0  0.6705145326593394  0.42356476517376507  0.2520365090118588  1.0000
  N   N6        1.0  0.8294878647555066  0.0764364650822671  0.7520335311152947  1.0000
  N   N7        1.0  0.32948679642817064  0.5764328533991687  0.7479649799364194  1.0000
  N   N8        1.0  0.1705131122546177  0.9235676094095097  0.24796423546228394  1.0000
  N   N9        1.0  0.5957804619154031  0.3584858753102367  0.9907834101382491  1.0000
  N   N10       1.0  0.9042225886545978  0.1415113199965248  0.4907804322416851  1.0000
  N   N11       1.0  0.4042189587062381  0.6415149712221222  0.0092158453876081  1.0000
  N   N12       1.0  0.0957811506950748  0.8584871055662687  0.5092173343358937  1.0000
