data_image0
_chemical_formula_structural       Cd2H20C16N10Cl2O8
_chemical_formula_sum              "Cd2 H20 C16 N10 Cl2 O8"
_cell_length_a       7.524470086002548
_cell_length_b       8.774944949021961
_cell_length_c       10.74742055414122
_cell_angle_alpha    70.27793259886941
_cell_angle_beta     84.36006401129238
_cell_angle_gamma    65.05983605746061

_space_group_name_H-M_alt    "P 1"
_space_group_IT_number       1

loop_
  _space_group_symop_operation_xyz
  'x, y, z'

loop_
  _atom_site_type_symbol
  _atom_site_label
  _atom_site_symmetry_multiplicity
  _atom_site_fract_x
  _atom_site_fract_y
  _atom_site_fract_z
  _atom_site_occupancy
  Cd  Cd1       1.0  0.17313586914806214  0.2655378314664816  0.09492690464525574  1.0000
  Cd  Cd2       1.0  0.8268631604303426  0.7344639789286231  0.9050710771310055  1.0000
  H   H1        1.0  0.2336634591260349  0.3445215708261529  0.8302798774378533  1.0000
  H   H2        1.0  0.7663315836533401  0.6554855875080177  0.1697196197918417  1.0000
  H   H3        1.0  0.29022429185762627  0.135938092495266  0.8861044992285659  1.0000
  H   H4        1.0  0.7097799161268696  0.864061124905632  0.11389488733532002  1.0000
  H   H5        1.0  0.20822755871218854  0.9441169909319242  0.06424848229842443  1.0000
  H   H6        1.0  0.7917720212963035  0.055880811220951905  0.9357505666303969  1.0000
  H   H7        1.0  0.011869248870006364  0.9991260273978568  0.13883715785655693  1.0000
  H   H8        1.0  0.9881338427352799  0.0008731130668167034  0.8611585755746065  1.0000
  H   H9        1.0  0.19672402866231672  0.6725915661539758  0.30122623803301735  1.0000
  H   H10       1.0  0.8032691084370923  0.3273968434270529  0.6987793831840182  1.0000
  H   H11       1.0  0.4624356138569253  0.4816126881051872  0.1916592002134935  1.0000
  H   H12       1.0  0.5375576438437973  0.518383785199127  0.8083460810798332  1.0000
  H   H13       1.0  0.6616409988228681  0.06238154490375081  0.547542800683843  1.0000
  H   H14       1.0  0.33837237669870746  0.9376031789512851  0.4524666396394326  1.0000
  H   H15       1.0  0.40911628664375854  0.23787200749895018  0.6721467725737187  1.0000
  H   H16       1.0  0.5908872156191763  0.7621247100776785  0.32786449938979717  1.0000
  H   H17       1.0  0.83545124376635  0.0509593830945292  0.36688803233173695  1.0000
  H   H18       1.0  0.16455668831146408  0.949034560610791  0.6331144856570321  1.0000
  H   H19       1.0  0.7845043552284138  0.251093678550582  0.2289384792825758  1.0000
  H   H20       1.0  0.21549771307651613  0.7489096037946013  0.7710645513769949  1.0000
  C   C1        1.0  0.12879848155672138  0.5825339670631993  0.5619587408519353  1.0000
  C   C2        1.0  0.8711927165280288  0.41747040124326407  0.4380379648765784  1.0000
  C   C3        1.0  0.27861671164762924  0.47069037409928427  0.49625338566271904  1.0000
  C   C4        1.0  0.721383891661226  0.5293032861730893  0.5037383660376876  1.0000
  C   C5        1.0  0.2953170485643711  0.5382748458815171  0.35910769112297924  1.0000
  C   C6        1.0  0.704685712275044  0.461716290254664  0.6408920997345435  1.0000
  C   C7        1.0  0.4416433005094831  0.43498636270784635  0.29716422883596766  1.0000
  C   C8        1.0  0.558349194264629  0.5650207308460651  0.7028335383822653  1.0000
  C   C9        1.0  0.5540812973382004  0.19799136782430787  0.4989051895095359  1.0000
  C   C10       1.0  0.44592673265420785  0.8020079467469613  0.5010967920715432  1.0000
  C   C11       1.0  0.41181028296520594  0.2972751286506324  0.5656864756977101  1.0000
  C   C12       1.0  0.5881960371764025  0.7027161788994148  0.43432055705532263  1.0000
  C   C13       1.0  0.7209870902140522  0.16373404188090032  0.29592007072321996  1.0000
  C   C14       1.0  0.2790156037488246  0.8362679102306811  0.7040832941972258  1.0000
  C   C15       1.0  0.6438468477505737  0.09278543353877208  0.2108984066275213  1.0000
  C   C16       1.0  0.3561529507738187  0.9072258032033459  0.7890997659698872  1.0000
  N   N1        1.0  0.10342364323420125  0.538985722979092  0.6934426974454129  1.0000
  N   N2        1.0  0.8965749481640871  0.46101466539749936  0.30655103608334866  1.0000
  N   N3        1.0  0.9526604641323926  0.6823540318050548  0.70738529838566  1.0000
  N   N4        1.0  0.04733714098764355  0.3176423901826695  0.2926132841682333  1.0000
  N   N5        1.0  0.8888381391131189  0.8079843124240542  0.5900024161826992  1.0000
  N   N6        1.0  0.11115678306494202  0.1920147821868312  0.40999742097070435  1.0000
  N   N7        1.0  0.9968929845606597  0.7490739109996909  0.4969237926104741  1.0000
  N   N8        1.0  0.0031026385032291233  0.25092653138622717  0.5030756459121266  1.0000
  N   N9        1.0  0.5684007822646678  0.2680231441313765  0.3669649073696634  1.0000
  N   N10       1.0  0.43159998935090027  0.7319774129663513  0.6330370618002025  1.0000
  Cl  Cl1       1.0  0.19048079273458995  0.5794331361541866  0.011540238970880514  1.0000
  Cl  Cl2       1.0  0.8095194881597153  0.42056601377372255  0.9884584113271377  1.0000
  O   O1        1.0  0.4686480604494605  0.11118690494695468  0.21973623568224818  1.0000
  O   O2        1.0  0.5313466946055315  0.8888241873859568  0.780257547516577  1.0000
  O   O3        1.0  0.7718660839054153  0.01525404664212  0.13979546042218527  1.0000
  O   O4        1.0  0.22813261375878818  0.9847652065844487  0.8602005778701245  1.0000
  O   O5        1.0  0.31464765755843865  0.23216647015524217  0.9012912337618817  1.0000
  O   O6        1.0  0.6853486890779905  0.767838012863031  0.09870800261388987  1.0000
  O   O7        1.0  0.15104575922021013  0.9848709282611238  0.1394383107349031  1.0000
  O   O8        1.0  0.8489578004196118  0.015126926516046501  0.8605605450841198  1.0000
