data_image0
_chemical_formula_structural       Cu2P2H28C32N4O8
_chemical_formula_sum              "Cu2 P2 H28 C32 N4 O8"
_cell_length_a       6.658848630893469
_cell_length_b       11.50493391701786
_cell_length_c       11.65187141101565
_cell_angle_alpha    114.09438993324488
_cell_angle_beta     86.9062563624139
_cell_angle_gamma    100.45280535278518

_space_group_name_H-M_alt    "P 1"
_space_group_IT_number       1

loop_
  _space_group_symop_operation_xyz
  'x, y, z'

loop_
  _atom_site_type_symbol
  _atom_site_label
  _atom_site_symmetry_multiplicity
  _atom_site_fract_x
  _atom_site_fract_y
  _atom_site_fract_z
  _atom_site_occupancy
  Cu  Cu1       1.0  0.6935918114095544  0.8251066054190942  0.9962837691320842  1.0000
  Cu  Cu2       1.0  0.3064094447101268  0.17489512830775308  0.0037193985699559844  1.0000
  P   P1        1.0  0.4720739811119401  0.044266929564002994  0.17376171476036006  1.0000
  P   P2        1.0  0.5279286315351682  0.9557321060112256  0.8262351553744761  1.0000
  H   H1        1.0  0.09872287189350705  0.9033471495112761  0.9044545534440187  1.0000
  H   H2        1.0  0.9012778419530462  0.0966557714790994  0.09554223524516198  1.0000
  H   H3        1.0  0.12342402615668382  0.8872429223082957  0.028030775201713556  1.0000
  H   H4        1.0  0.8765841304417562  0.11276006935575111  0.9719669089434857  1.0000
  H   H5        1.0  0.6029089179487244  0.6600367470572264  0.7104550260357241  1.0000
  H   H6        1.0  0.3971007041471637  0.33996714074017115  0.28954561734955314  1.0000
  H   H7        1.0  0.5939586752036377  0.4231623972159896  0.5675183072433112  1.0000
  H   H8        1.0  0.4060434126941175  0.5768413897757015  0.4324822878624132  1.0000
  H   H9        1.0  0.6511687059237303  0.27148634095296137  0.6623565232069452  1.0000
  H   H10       1.0  0.34882839546204986  0.7285154528186267  0.3376432268214983  1.0000
  H   H11       1.0  0.7248662427498896  0.24042922912622086  0.8633724866576385  1.0000
  H   H12       1.0  0.2751244153883476  0.7595714573683807  0.13662851104531626  1.0000
  H   H13       1.0  0.8050793677715048  0.3380572328718329  0.08777103834672317  1.0000
  H   H14       1.0  0.19490630385475066  0.6619414604026728  0.9122291142789505  1.0000
  H   H15       1.0  0.8688424222054109  0.544903847637407  0.2955772497238981  1.0000
  H   H16       1.0  0.1311528065557681  0.45509780544487893  0.7044258793544953  1.0000
  H   H17       1.0  0.8832814681138997  0.7855532830498074  0.40326548914595844  1.0000
  H   H18       1.0  0.11672636404174598  0.21444871211386377  0.5967326341209328  1.0000
  H   H19       1.0  0.8107035231726413  0.9065022206136812  0.27653246187399805  1.0000
  H   H20       1.0  0.18930544127577056  0.0934978921064982  0.7234640077627927  1.0000
  H   H21       1.0  0.640792746227724  0.216825956801884  0.35991353603554893  1.0000
  H   H22       1.0  0.35921012559189336  0.7831700190372145  0.6400872026496598  1.0000
  H   H23       1.0  0.3687042165794309  0.1963556112284337  0.3673981284958714  1.0000
  H   H24       1.0  0.6313028513162705  0.803639428593719  0.6326030782787624  1.0000
  H   H25       1.0  0.8229349674521628  0.12738028091155934  0.4671518817867905  1.0000
  H   H26       1.0  0.17706377580952196  0.872611728867824  0.5328488997204275  1.0000
  H   H27       1.0  0.8216123169874906  0.006760821710429405  0.6028064565418134  1.0000
  H   H28       1.0  0.17839347706513556  0.9932351643189176  0.39719514863168104  1.0000
  C   C1        1.0  0.6350060896380255  0.5904497440978957  0.7452852153138351  1.0000
  C   C2        1.0  0.3649954408203867  0.4095520800250795  0.25471541085880733  1.0000
  C   C3        1.0  0.6286121247325697  0.45864634783833214  0.6677585189121016  1.0000
  C   C4        1.0  0.3713912783504441  0.541355616973952  0.33223872821059774  1.0000
  C   C5        1.0  0.6603358915661489  0.3745249297070997  0.7200288987044061  1.0000
  C   C6        1.0  0.3396546250217795  0.6254748205512113  0.279970843767316  1.0000
  C   C7        1.0  0.7015740718672417  0.4228406003090298  0.8504819370067833  1.0000
  C   C8        1.0  0.29841521221979406  0.5771592201842635  0.14951525427963458  1.0000
  C   C9        1.0  0.7346927170316351  0.34510552415432016  0.9150305956977931  1.0000
  C   C10       1.0  0.26529879906063764  0.6548931895006616  0.08497128990445181  1.0000
  C   C11       1.0  0.7788672288497054  0.3999048736363234  0.04152285652804008  1.0000
  C   C12       1.0  0.2211246617894247  0.6000957426232958  0.9584806923602185  1.0000
  C   C13       1.0  0.7920879775731962  0.5363402189055505  0.11365019381099017  1.0000
  C   C14       1.0  0.20789934244299252  0.46365943076639127  0.8863512237018366  1.0000
  C   C15       1.0  0.8394705954612148  0.6006458571340899  0.24367441377545865  1.0000
  C   C16       1.0  0.1605219353016238  0.3993549700498207  0.756323204877553  1.0000
  C   C17       1.0  0.8489727333033982  0.7332695678433011  0.30291170853733007  1.0000
  C   C18       1.0  0.1510304455449472  0.2667332126771099  0.6970901825224585  1.0000
  C   C19       1.0  0.8091315320310314  0.8026436988112166  0.233841771451324  1.0000
  C   C20       1.0  0.1908746517346813  0.1973573399550119  0.766155086928421  1.0000
  C   C21       1.0  0.7563182659480603  0.6145938909237785  0.05197741168753113  1.0000
  C   C22       1.0  0.2436708440083706  0.3854076513818895  0.9480265259436887  1.0000
  C   C23       1.0  0.7107973002832964  0.5575391642378237  0.9199967438814054  1.0000
  C   C24       1.0  0.28919208401187285  0.44246246846397236  0.08000465222041693  1.0000
  C   C25       1.0  0.499847466791593  0.14518992830005567  0.3449657774319802  1.0000
  C   C26       1.0  0.5001585276773001  0.8548096821463034  0.6550442373723371  1.0000
  C   C27       1.0  0.5000681245238141  0.07118240117264212  0.4247103301563938  1.0000
  C   C28       1.0  0.4999448705222561  0.9288109070855695  0.575286710426475  1.0000
  C   C29       1.0  0.6804754606451623  0.07123126842660099  0.48166625354323844  1.0000
  C   C30       1.0  0.3195318314852074  0.9287629556874177  0.5183303092942991  1.0000
  C   C31       1.0  0.6809042549456024  0.0021587935802216034  0.5560311473736802  1.0000
  C   C32       1.0  0.31910109704203643  0.9978401919211631  0.44396828360236623  1.0000
  N   N1        1.0  0.6758948696791548  0.6381275459263803  0.8679999740410763  1.0000
  N   N2        1.0  0.3241044136077988  0.36187223490264836  0.13200236789549535  1.0000
  N   N3        1.0  0.7628574311204375  0.7441353164034153  0.11153683614747209  1.0000
  N   N4        1.0  0.23714613968883919  0.25586355854070314  0.8884651267020656  1.0000
  O   O1        1.0  0.4681876901058785  0.14607196938461436  0.11967491496940137  1.0000
  O   O2        1.0  0.531820949899739  0.8539271468351755  0.8803219937890743  1.0000
  O   O3        1.0  0.03268661672179729  0.8523621465308582  0.9507928562412786  1.0000
  O   O4        1.0  0.9673140971247561  0.1476407744595249  0.049203932447909396  1.0000
  O   O5        1.0  0.6759636790298484  0.9892406754564008  0.14069688940568892  1.0000
  O   O6        1.0  0.3240407736615722  0.010761158856816203  0.8593046032552392  1.0000
  O   O7        1.0  0.2802562826781667  0.9435126661916581  0.15253299037414775  1.0000
  O   O8        1.0  0.7197493849903722  0.05648553373364249  0.8474609494883437  1.0000
