data_image0
_chemical_formula_structural       Ni2P4H36C36N4O12
_chemical_formula_sum              "Ni2 P4 H36 C36 N4 O12"
_cell_length_a       8.01911804682098
_cell_length_b       10.406729293818989
_cell_length_c       10.728824465508575
_cell_angle_alpha    95.50331855821351
_cell_angle_beta     91.2334757538016
_cell_angle_gamma    93.50934679679258

_space_group_name_H-M_alt    "P 1"
_space_group_IT_number       1

loop_
  _space_group_symop_operation_xyz
  'x, y, z'

loop_
  _atom_site_type_symbol
  _atom_site_label
  _atom_site_symmetry_multiplicity
  _atom_site_fract_x
  _atom_site_fract_y
  _atom_site_fract_z
  _atom_site_occupancy
  Ni  Ni1       1.0  0.25826870438472577  0.33047163593253265  0.02964677112202449  1.0000
  Ni  Ni2       1.0  0.7417339268419951  0.6695367418290559  0.97036567683584  1.0000
  P   P1        1.0  0.8126310617650959  0.37823449287313343  0.8553104299039306  1.0000
  P   P2        1.0  0.18740071191467678  0.6217470558017056  0.1446556501511367  1.0000
  P   P3        1.0  0.6584109955502129  0.45769821378924996  0.1690842057393098  1.0000
  P   P4        1.0  0.34157770780556956  0.5422860548484038  0.8309096026717526  1.0000
  H   H1        1.0  0.5421459020795679  0.34552457361150607  0.8815850676614829  1.0000
  H   H2        1.0  0.45786351575858214  0.6544319555419449  0.1183498837215282  1.0000
  H   H3        1.0  0.8894766579133913  0.3900838868642893  0.0852901299141351  1.0000
  H   H4        1.0  0.11050649705398287  0.6099236015036453  0.9147038685607214  1.0000
  H   H5        1.0  0.3306806868981838  0.23966981848383986  0.7632176182034697  1.0000
  H   H6        1.0  0.6693174546205469  0.760299846444326  0.23679467518492459  1.0000
  H   H7        1.0  0.37256401462369126  0.021129184843687195  0.6538627961506123  1.0000
  H   H8        1.0  0.6273792173755198  0.9788345006433656  0.34617319469385416  1.0000
  H   H9        1.0  0.348429309895053  0.8262833962208449  0.7783955063205497  1.0000
  H   H10       1.0  0.6514603090091099  0.1736861844563791  0.22161409252974099  1.0000
  H   H11       1.0  0.26175088939896085  0.8562209065076231  0.9975955248726791  1.0000
  H   H12       1.0  0.7382211764606409  0.1437709134630012  0.002432020979988194  1.0000
  H   H13       1.0  0.15271222283059413  0.9026556527826061  0.17637814132216786  1.0000
  H   H14       1.0  0.8472837060259478  0.09735264250829088  0.8236489924484404  1.0000
  H   H15       1.0  0.03732530056021938  0.9785812052843497  0.3851669529587767  1.0000
  H   H16       1.0  0.9625936046290774  0.0214368322355938  0.6148343115881545  1.0000
  H   H17       1.0  0.006851601051962998  0.21803162439955065  0.4357374031455166  1.0000
  H   H18       1.0  0.9930749708173822  0.7819895192564419  0.5642261911804027  1.0000
  H   H19       1.0  0.10491786241632889  0.369370008495622  0.2797315750760561  1.0000
  H   H20       1.0  0.8950764679388499  0.6306393886214252  0.720269506464227  1.0000
  H   H21       1.0  0.9589717731547579  0.2405685046051076  0.7115510449362006  1.0000
  H   H22       1.0  0.041063847065501584  0.759448786799915  0.2884279343544307  1.0000
  H   H23       1.0  0.9992094919543674  0.40592634283883916  0.6906090504987858  1.0000
  H   H24       1.0  0.0008234385861669881  0.5940830728250647  0.3093951846304678  1.0000
  H   H25       1.0  0.712003686497617  0.594635995465822  0.36224251243218925  1.0000
  H   H26       1.0  0.2880615981928472  0.4053795722049855  0.6377009289413351  1.0000
  H   H27       1.0  0.49729657855011294  0.5472506101391446  0.3338058843330742  1.0000
  H   H28       1.0  0.5027349750040598  0.45278877969288817  0.6662030607942881  1.0000
  H   H29       1.0  0.42180249375737583  0.29486258974620233  0.3349265004288569  1.0000
  H   H30       1.0  0.5782345640683673  0.7051778440858955  0.6650687440108811  1.0000
  H   H31       1.0  0.8518211794829752  0.49770435844212824  0.5232950362997357  1.0000
  H   H32       1.0  0.14823428797396326  0.5023177013394929  0.47670091434665113  1.0000
  H   H33       1.0  0.43822020815937174  0.1203858371051894  0.47676440549165017  1.0000
  H   H34       1.0  0.5617681778185429  0.8796612349340551  0.5232485028482756  1.0000
  H   H35       1.0  0.6608270550799915  0.1357421184449805  0.6440115837076306  1.0000
  H   H36       1.0  0.3391746774794129  0.8643010846480693  0.356003261146455  1.0000
  C   C1        1.0  0.3144119413390527  0.15258855794672851  0.8110225479146678  1.0000
  C   C2        1.0  0.6855822237036263  0.8473753393318191  0.18898159790781216  1.0000
  C   C3        1.0  0.3390571934752629  0.030608611018941207  0.7519338507252371  1.0000
  C   C4        1.0  0.660900446436919  0.9693532910918776  0.24807541100020097  1.0000
  C   C5        1.0  0.32349986055817226  0.9226893312732258  0.8193074838004932  1.0000
  C   C6        1.0  0.6764365922281569  0.0772870786881015  0.1806996738455169  1.0000
  C   C7        1.0  0.27608433576976665  0.9393992700249  0.9435020283801804  1.0000
  C   C8        1.0  0.7238956935501193  0.060565501750176096  0.05651758002249351  1.0000
  C   C9        1.0  0.24898988186846083  0.0636748421431008  0.9967687073246196  1.0000
  C   C10       1.0  0.7510215667168936  0.9362890386938078  0.003241607213297508  1.0000
  C   C11       1.0  0.18903409989663092  0.09512864852836601  0.122215184948324  1.0000
  C   C12       1.0  0.8109830349604222  0.9048632335055302  0.8778082757657728  1.0000
  C   C13       1.0  0.14138443633175507  0.004822263058422  0.2048565506597484  1.0000
  C   C14       1.0  0.8586006856966435  0.995175389380243  0.7951682638317621  1.0000
  C   C15       1.0  0.07696774378285909  0.047710430617065896  0.3197840504838467  1.0000
  C   C16       1.0  0.9229853590493492  0.9523134451437161  0.6802170528893755  1.0000
  C   C17       1.0  0.06150954310731999  0.17999811245262978  0.3487827808236403  1.0000
  C   C18       1.0  0.9384401184225123  0.8200151064533757  0.651219976842313  1.0000
  C   C19       1.0  0.1131037052609685  0.265483781843173  0.2629997738939664  1.0000
  C   C20       1.0  0.8868748327111929  0.7345235577089823  0.7370220261358469  1.0000
  C   C21       1.0  0.8990180757014983  0.3314347067889898  0.701612120852964  1.0000
  C   C22       1.0  0.10102776852255597  0.668555499291088  0.2983664514159656  1.0000
  C   C23       1.0  0.7726260400230627  0.3176022830720555  0.5948897344517476  1.0000
  C   C24       1.0  0.22741962619601705  0.6824197986258014  0.4051002975084259  1.0000
  C   C25       1.0  0.6237813166132042  0.5118569743156839  0.33266659791007663  1.0000
  C   C26       1.0  0.3762419507608498  0.4881631904211687  0.6673159759408307  1.0000
  C   C27       1.0  0.6362683615989866  0.40709421322740974  0.4187614854358799  1.0000
  C   C28       1.0  0.3637736236227693  0.5929336014297705  0.5812420293748987  1.0000
  C   C29       1.0  0.5193984898499409  0.30059030088819594  0.40759797809334225  1.0000
  C   C30       1.0  0.48062879439780193  0.699440409622369  0.5924043935063779  1.0000
  C   C31       1.0  0.7618863249481789  0.41386598594020546  0.5125187420578783  1.0000
  C   C32       1.0  0.23816710543386674  0.5861502155002968  0.4874868311930598  1.0000
  C   C33       1.0  0.5305279611537088  0.2026562354149704  0.4868830785951915  1.0000
  C   C34       1.0  0.46950170041660033  0.7973744574433255  0.5131230998902084  1.0000
  C   C35       1.0  0.6562405663972014  0.21032400603386492  0.5795654387830423  1.0000
  C   C36       1.0  0.3438027266825542  0.789716432360393  0.42043001401438573  1.0000
  N   N1        1.0  0.2735445180346899  0.16993681315770462  0.9321536818329933  1.0000
  N   N2        1.0  0.7264747443179471  0.8300290369916895  0.06785148924225841  1.0000
  N   N3        1.0  0.17583624388849728  0.22435333399209154  0.1519988867354982  1.0000
  N   N4        1.0  0.8241745413531801  0.7756511370885946  0.8480218472499459  1.0000
  O   O1        1.0  0.6366714787666223  0.5810020385069379  0.09920841584419547  1.0000
  O   O2        1.0  0.3633004917943552  0.41895997589558226  0.9007817556694491  1.0000
  O   O3        1.0  0.7754413178889693  0.5207110419835105  0.8581068867500505  1.0000
  O   O4        1.0  0.2245193045333238  0.4792616475402837  0.1418755450985003  1.0000
  O   O5        1.0  0.5451093543113713  0.3416738471374003  0.12465486866194908  1.0000
  O   O6        1.0  0.4549221632137375  0.6582831806475369  0.8753741006280578  1.0000
  O   O7        1.0  0.9299706206804218  0.33693883796682667  0.9544741533337273  1.0000
  O   O8        1.0  0.07002847989409126  0.6630531423740819  0.04552727193730278  1.0000
  O   O9        1.0  0.6394948319206648  0.2937846401324435  0.8532793542984294  1.0000
  O   O10       1.0  0.3605158529563682  0.7061688233569684  0.1466870428067963  1.0000
  O   O11       1.0  0.8497770583742934  0.427544247912003  0.1722920206534369  1.0000
  O   O12       1.0  0.15023571564220356  0.5724720061960227  0.8276963523806843  1.0000
