data_image0
_chemical_formula_structural       Cd4H52C72N12O16
_chemical_formula_sum              "Cd4 H52 C72 N12 O16"
_cell_length_a       11.805788975000999
_cell_length_b       14.374527264003637
_cell_length_c       17.49071121900305
_cell_angle_alpha    89.99993289564253
_cell_angle_beta     90.00000901122793
_cell_angle_gamma    89.99995374248107

_space_group_name_H-M_alt    "P 1"
_space_group_IT_number       1

loop_
  _space_group_symop_operation_xyz
  'x, y, z'

loop_
  _atom_site_type_symbol
  _atom_site_label
  _atom_site_symmetry_multiplicity
  _atom_site_fract_x
  _atom_site_fract_y
  _atom_site_fract_z
  _atom_site_occupancy
  Cd  Cd1       1.0  0.9999999104559122  0.3628839381265791  0.016679588827216197  1.0000
  Cd  Cd2       1.0  1.4956342298e-06  0.6371152084891352  0.9833193412339297  1.0000
  Cd  Cd3       1.0  1.3264208008e-06  0.8628864674939793  0.4833201249544031  1.0000
  Cd  Cd4       1.0  0.9999999928461989  0.13711509777606068  0.5166776085847573  1.0000
  H   H1        1.0  0.9999990675201718  0.4010227919118918  0.21269847198339417  1.0000
  H   H2        1.0  6.444852686999997e-07  0.5989777460536703  0.7873016015410668  1.0000
  H   H3        1.0  0.9999988305306645  0.9010231817933135  0.28730182985480457  1.0000
  H   H4        1.0  0.9999992742128755  0.0989763288697958  0.7126977249947613  1.0000
  H   H5        1.0  0.20445205903264  0.40028708647383127  0.13554433484317488  1.0000
  H   H6        1.0  0.20445289304014844  0.5997122561653968  0.8644557073203101  1.0000
  H   H7        1.0  0.7955449058770441  0.9002878661257229  0.3644553429146028  1.0000
  H   H8        1.0  0.7955470249358357  0.09971178014185973  0.6355447619717154  1.0000
  H   H9        1.0  0.7955459588889866  0.5997127558172366  0.864455738681535  1.0000
  H   H10       1.0  0.7955468189657608  0.4002875861242998  0.1355455096685674  1.0000
  H   H11       1.0  0.20445226500284966  0.09971128049058109  0.6355447306103982  1.0000
  H   H12       1.0  0.2044526870698746  0.900288062149059  0.364454739821049  1.0000
  H   H13       1.0  0.9999998853709472  0.5148121098645432  0.4419612498856082  1.0000
  H   H14       1.0  0.9999990664142615  0.4851880964737489  0.5580377332316288  1.0000
  H   H15       1.0  0.9999992392658683  0.014812635922375304  0.05803885219543048  1.0000
  H   H16       1.0  4.727401901000002e-07  0.9851865106934881  0.9419606495976678  1.0000
  H   H17       1.0  0.9999997726659445  0.6983897627223713  0.24891069270719862  1.0000
  H   H18       1.0  0.999999939339773  0.30161007956854036  0.7510888090855656  1.0000
  H   H19       1.0  0.9999991715619388  0.1983907095150741  0.25108980429472877  1.0000
  H   H20       1.0  5.404435014999999e-07  0.8016098284504879  0.7489102692297391  1.0000
  H   H21       1.0  0.41733756742618777  0.34224838929217327  0.8995321749661043  1.0000
  H   H22       1.0  0.4173373192647106  0.6577508121496793  0.10046788978741009  1.0000
  H   H23       1.0  0.5826621121993085  0.8422496861086657  0.6004674889968127  1.0000
  H   H24       1.0  0.5826624251217681  0.15775010135503464  0.3995331650316486  1.0000
  H   H25       1.0  0.582661297538543  0.6577493659734586  0.10046789855965697  1.0000
  H   H26       1.0  0.5826623927412058  0.3422490301400173  0.8995333272014674  1.0000
  H   H27       1.0  0.4173367527643919  0.1577501561821251  0.3995325845279396  1.0000
  H   H28       1.0  0.41733643984234453  0.8422490452602959  0.6004674802254826  1.0000
  H   H29       1.0  0.20786490873876326  0.344040514639417  0.9038201532864389  1.0000
  H   H30       1.0  0.2078646613388528  0.655958825736576  0.09617988923913857  1.0000
  H   H31       1.0  0.7921339220831883  0.844042374304003  0.5961795089500936  1.0000
  H   H32       1.0  0.7921342377659144  0.1559593612516892  0.4038205955731654  1.0000
  H   H33       1.0  0.7921331091842277  0.6559565449514437  0.09617992023961358  1.0000
  H   H34       1.0  0.7921333565822197  0.3440424079037853  0.9038213277489787  1.0000
  H   H35       1.0  0.20786494287983712  0.1559588593368915  0.4038205645739906  1.0000
  H   H36       1.0  0.20786378015537116  0.8440411767144342  0.5961794779512104  1.0000
  H   H37       1.0  0.41434485121309444  0.39996630549597983  0.14280820169750535  1.0000
  H   H38       1.0  0.4143448361701659  0.6000328979303262  0.857192434470491  1.0000
  H   H39       1.0  0.5856538080960476  0.8999672347043699  0.35719261983332007  1.0000
  H   H40       1.0  0.585654234448505  0.10003255077544541  0.6428074627805671  1.0000
  H   H41       1.0  0.5856540137506769  0.600033536794399  0.8571924435592846  1.0000
  H   H42       1.0  0.5856540287936056  0.3999669443600594  0.14280821078630615  1.0000
  H   H43       1.0  0.414345056868065  0.10003191191096049  0.6428080254238038  1.0000
  H   H44       1.0  0.41434547755748247  0.8999665958408303  0.3571914672804936  1.0000
  H   H45       1.0  0.9999991169705283  0.34970756499048866  0.4206351525843174  1.0000
  H   H46       1.0  0.9999989877730188  0.6502919456726275  0.5793644022652484  1.0000
  H   H47       1.0  0.9999996785520865  0.8497075553366499  0.07936577040990037  1.0000
  H   H48       1.0  0.9999992732339396  0.15029125965072146  0.9206343561720942  1.0000
  H   H49       1.0  0.9999991307835147  0.30028687327815357  0.3307977775310674  1.0000
  H   H50       1.0  0.9999998210025112  0.699711941709225  0.6692023490509268  1.0000
  H   H51       1.0  0.9999988662642213  0.8002874313552936  0.16920204959779275  1.0000
  H   H52       1.0  0.9999992384793258  0.19971207930781532  0.8307975052517731  1.0000
  C   C1        1.0  0.9999998235121909  0.5685727030625712  0.13787238887646674  1.0000
  C   C2        1.0  2.4296196841000005e-06  0.43142713922791387  0.8621265411843877  1.0000
  C   C3        1.0  8.555544824e-07  0.06857312766872779  0.3621281801010383  1.0000
  C   C4        1.0  4.637127162000001e-07  0.9314284376000969  0.6378712686342423  1.0000
  C   C5        1.0  6.021131114e-07  0.5511490973497858  0.22211934717962825  1.0000
  C   C6        1.0  1.5641969141999997e-06  0.44885107656824624  0.7778806732884076  1.0000
  C   C7        1.0  7.2546270999999865e-09  0.051149310311956186  0.27788061379057166  1.0000
  C   C8        1.0  1.3120132607000002e-06  0.948850863606765  0.722118834945384  1.0000
  C   C9        1.0  5.860125469000003e-07  0.6143413450219272  0.3503885433055486  1.0000
  C   C10       1.0  7.332556748000001e-07  0.3856581332217389  0.6496109054307408  1.0000
  C   C11       1.0  0.9999999612535861  0.11434174066373971  0.14961078506955516  1.0000
  C   C12       1.0  1.3580142947999997e-06  0.8856584332549743  0.8503886636664004  1.0000
  C   C13       1.0  0.9999999064988501  0.44564539206764653  0.33163815362909327  1.0000
  C   C14       1.0  6.525501632000002e-07  0.554352363196614  0.668363063360843  1.0000
  C   C15       1.0  0.9999996417837809  0.9456459513409285  0.16836267696335475  1.0000
  C   C16       1.0  9.172641455000002e-07  0.05435389094889591  0.8316379682935277  1.0000
  C   C17       1.0  1.3981601654e-06  0.6975892633789583  0.4019615918516592  1.0000
  C   C18       1.0  7.681502083000001e-07  0.30241021486402536  0.5980384286167106  1.0000
  C   C19       1.0  0.9999999143375647  0.19758903679485942  0.09803879980847797  1.0000
  C   C20       1.0  2.2519731431e-06  0.8024097457730619  0.9019612206602259  1.0000
  C   C21       1.0  0.9999998898959392  0.460445240128209  0.2515825111153588  1.0000
  C   C22       1.0  0.9999999089320258  0.5395542705327186  0.7484193306624574  1.0000
  C   C23       1.0  0.9999996438422373  0.960445685388187  0.24841716175873774  1.0000
  C   C24       1.0  6.81635441e-08  0.039554156902326595  0.7515829117660643  1.0000
  C   C25       1.0  0.2558980067650225  0.38778512926921144  0.0846893503993229  1.0000
  C   C26       1.0  0.25589884034065596  0.612214874923204  0.9153106972229562  1.0000
  C   C27       1.0  0.7440989704305567  0.8877865662906359  0.415310911131314  1.0000
  C   C28       1.0  0.7441010653481329  0.11221520112356131  0.5846897600269115  1.0000
  C   C29       1.0  0.7441000111570092  0.6122140173464031  0.9153112948577657  1.0000
  C   C30       1.0  0.7441000246223625  0.38778635871769035  0.08468937630113517  1.0000
  C   C31       1.0  0.25589820044871914  0.11221397167535942  0.5846897341250566  1.0000
  C   C32       1.0  0.2558977996145444  0.8877867281923882  0.4153103134968389  1.0000
  C   C33       1.0  6.336613723000001e-07  0.5244357584808624  0.3801775410627569  1.0000
  C   C34       1.0  6.856076027000001e-07  0.47556232841229457  0.6198224794062381  1.0000
  C   C35       1.0  1.9590870999999946e-09  0.0244348051975933  0.11982187390464816  1.0000
  C   C36       1.0  4.7026699690000014e-07  0.9755646730467616  0.8801770030995539  1.0000
  C   C37       1.0  0.9999998098489089  0.6280159542441267  0.2712477256538151  1.0000
  C   C38       1.0  1.5962419866e-06  0.3719818010210716  0.7287517761400364  1.0000
  C   C39       1.0  0.999999963757894  0.1280172644781743  0.22875107087493518  1.0000
  C   C40       1.0  1.355509923e-06  0.8719829094409521  0.7712478061289756  1.0000
  C   C41       1.0  0.37548606531332507  0.3555176704300394  0.9538518557097075  1.0000
  C   C42       1.0  0.37548581752988497  0.6444815587696979  0.04614877633482449  1.0000
  C   C43       1.0  0.6245136012716443  0.8555197125242271  0.5461483672047149  1.0000
  C   C44       1.0  0.6245156339805221  0.14448143853154244  0.4538511478001083  1.0000
  C   C45       1.0  0.6245144937356244  0.6444800848346262  0.04614878954818379  1.0000
  C   C46       1.0  0.6245147415173521  0.3555196748702301  0.9538518689213897  1.0000
  C   C47       1.0  0.3754835696075035  0.14448082544257806  0.45385113458757326  1.0000
  C   C48       1.0  0.375485772109073  0.8555190994334582  0.5461489257244521  1.0000
  C   C49       1.0  0.2578937546384736  0.3567066170622225  0.9552960440302125  1.0000
  C   C50       1.0  0.2578935076864326  0.6432933858064445  0.044704575535817484  1.0000
  C   C51       1.0  0.7421042166939531  0.8567085832198985  0.5447041777390351  1.0000
  C   C52       1.0  0.7421037097812972  0.14329318551900627  0.4552953497433022  1.0000
  C   C53       1.0  0.7421042632849293  0.6432897468531779  0.04470460122821149  1.0000
  C   C54       1.0  0.7421036631916849  0.3567092391855197  0.9552949262554685  1.0000
  C   C55       1.0  0.2578946482690725  0.14329265042099587  0.4552958957850492  1.0000
  C   C56       1.0  0.2578943081396474  0.8567080481221653  0.5447047237807394  1.0000
  C   C57       1.0  0.437211599039344  0.37124404859264354  0.021269991487805798  1.0000
  C   C58       1.0  0.43721073705917507  0.6287551396674261  0.9787306471066297  1.0000
  C   C59       1.0  0.5627879355377345  0.8712462112243313  0.478730857706033  1.0000
  C   C60       1.0  0.5627891523750393  0.1287549807712622  0.5212692224808462  1.0000
  C   C61       1.0  0.5627881129671196  0.6287544023477666  0.9787300820376711  1.0000
  C   C62       1.0  0.5627889749463293  0.3712453982977309  0.021269998149875798  1.0000
  C   C63       1.0  0.437210929425632  0.12875432674150744  0.5212692158183925  1.0000
  C   C64       1.0  0.437211406672752  0.8712448615193722  0.47873027931196066  1.0000
  C   C65       1.0  0.37368344319187946  0.387379509360045  0.08790935169121637  1.0000
  C   C66       1.0  0.3736834285765981  0.6126197210356211  0.9120907084299998  1.0000
  C   C67       1.0  0.6263143814444235  0.8873810290886298  0.41209148196212897  1.0000
  C   C68       1.0  0.6263181707989319  0.1126187294220742  0.5879080332345481  1.0000
  C   C69       1.0  0.6263171158564518  0.612619637254319  0.9120918652980377  1.0000
  C   C70       1.0  0.6263171304705041  0.387381512605117  0.0879087933621321  1.0000
  C   C71       1.0  0.37368363647748026  0.1126181175277949  0.5879080198308769  1.0000
  C   C72       1.0  0.37368408233341904  0.8873804171925385  0.412092040290723  1.0000
  N   N1        1.0  0.19876501845668323  0.3729109663860087  0.0194535853439319  1.0000
  N   N2        1.0  0.1987650055797303  0.6270890757001126  0.9805470279477362  1.0000
  N   N3        1.0  0.8012336674401794  0.8729129682802181  0.48054669051241905  1.0000
  N   N4        1.0  0.8012348854917306  0.1270887612409268  0.5194516997803829  1.0000
  N   N5        1.0  0.8012363876345392  0.6270867888771575  0.9805487751101223  1.0000
  N   N6        1.0  0.8012355534670378  0.3729128536156808  0.019452473844062  1.0000
  N   N7        1.0  0.1987651975227749  0.12708826536108117  0.5194528112796277  1.0000
  N   N8        1.0  0.1987648265133046  0.8729124724000953  0.4805478020117064  1.0000
  N   N9        1.0  7.130316888000002e-07  0.3587962366458228  0.3628478509762302  1.0000
  N   N10       1.0  1.4532782018000001e-06  0.6412039372730193  0.6371510260277304  1.0000
  N   N11       1.0  4.410411590999999e-07  0.8587968403691664  0.1371506702225318  1.0000
  N   N12       1.0  8.782266575999999e-07  0.14120333354996006  0.862848206781379  1.0000
  O   O1        1.0  6.110995301000001e-07  0.5015698216901257  0.09020249408521147  1.0000
  O   O2        1.0  2.4022527114e-06  0.4984296565537889  0.9097958111870879  1.0000
  O   O3        1.0  8.940341658000002e-07  0.0015691511027924002  0.4097975146372405  1.0000
  O   O4        1.0  4.252324786000002e-07  0.9984338055153188  0.5902030775614546  1.0000
  O   O5        1.0  5.393107472000002e-07  0.6535588023170718  0.11503159990939339  1.0000
  O   O6        1.0  7.799565864000001e-07  0.34644276295093596  0.8849689922899697  1.0000
  O   O7        1.0  0.9999999694155264  0.1535581670909778  0.38496883415839267  1.0000
  O   O8        1.0  5.028087102000001e-07  0.8464447895294497  0.615028899380057  1.0000
  O   O9        1.0  1.3547685711000002e-06  0.7784149003916527  0.3704190963015037  1.0000
  O   O10       1.0  8.115414545e-07  0.22158527352637947  0.6295809241665324  1.0000
  O   O11       1.0  0.9999999651198266  0.2784156886081988  0.1295795553723735  1.0000
  O   O12       1.0  1.4409704434000002e-06  0.7215834580066982  0.8704205181528477  1.0000
  O   O13       1.0  5.645295360000002e-07  0.6874323561749874  0.4742090876640716  1.0000
  O   O14       1.0  7.547388208e-07  0.31256712206786835  0.5257915045362935  1.0000
  O   O15       1.0  0.9999999977294964  0.1874319008569287  0.025790223371309692  1.0000
  O   O16       1.0  1.4083609869000001e-06  0.8125665500837301  0.9742087066901701  1.0000
