data_image0
_chemical_formula_structural       Ca2H44C48N4O20
_chemical_formula_sum              "Ca2 H44 C48 N4 O20"
_cell_length_a       9.832558131936542
_cell_length_b       11.443509991969535
_cell_length_c       12.928723818625974
_cell_angle_alpha    63.67828842762449
_cell_angle_beta     84.60151027846001
_cell_angle_gamma    77.82268139344909

_space_group_name_H-M_alt    "P 1"
_space_group_IT_number       1

loop_
  _space_group_symop_operation_xyz
  'x, y, z'

loop_
  _atom_site_type_symbol
  _atom_site_label
  _atom_site_symmetry_multiplicity
  _atom_site_fract_x
  _atom_site_fract_y
  _atom_site_fract_z
  _atom_site_occupancy
  Ca  Ca1       1.0  0.7500191789405121  0.14450143428227566  0.7108408249250788  1.0000
  Ca  Ca2       1.0  0.249981050908751  0.8554992943295262  0.2891592889614928  1.0000
  H   H1        1.0  0.2989282303219625  0.5334703008568055  0.5232568558916669  1.0000
  H   H2        1.0  0.20134545133262802  0.9433942539629356  0.5231790888244846  1.0000
  H   H3        1.0  0.7010721975233662  0.46652903595064993  0.47674365745722724  1.0000
  H   H4        1.0  0.7986549765126938  0.056605856898244176  0.47682065047069255  1.0000
  H   H5        1.0  0.5673980720935248  0.836907679036507  0.5032144969521681  1.0000
  H   H6        1.0  0.9328373611068698  0.6601305570586573  0.5032148188429347  1.0000
  H   H7        1.0  0.43260195975967963  0.16309444137964124  0.4967852174720805  1.0000
  H   H8        1.0  0.06716306673845199  0.33986877974879787  0.49678569450596666  1.0000
  H   H9        1.0  0.65916712534964  0.7330802272719766  0.8547454024625268  1.0000
  H   H10       1.0  0.840541373260656  0.4117155233379603  0.8548294534520054  1.0000
  H   H11       1.0  0.34083534534947546  0.26691973946909536  0.14525448095275814  1.0000
  H   H12       1.0  0.15945803315776894  0.5882838855295489  0.14517098783684187  1.0000
  H   H13       1.0  0.4176514797029895  0.5068089828673832  0.7770841171458899  1.0000
  H   H14       1.0  0.08212276129391674  0.7160077955194452  0.776882457683378  1.0000
  H   H15       1.0  0.5823497715731705  0.4931916736843718  0.22291606880073542  1.0000
  H   H16       1.0  0.9178764471284494  0.2839922310986935  0.2231183581968637  1.0000
  H   H17       1.0  0.4156160456126088  0.2451264558237511  0.6900526960551759  1.0000
  H   H18       1.0  0.08455234461143847  0.06486768007047045  0.6899314778405953  1.0000
  H   H19       1.0  0.5843833608058161  0.7548737270974755  0.3099469711799543  1.0000
  H   H20       1.0  0.9154482812299488  0.9351310389863556  0.31006866091691176  1.0000
  H   H21       1.0  0.15816653275791034  0.39143259928921714  0.7909885672954504  1.0000
  H   H22       1.0  0.34187795472148264  0.8176520723991839  0.7910822037324723  1.0000
  H   H23       1.0  0.8418328736605218  0.6085668095782921  0.20901187399339693  1.0000
  H   H24       1.0  0.6581222751277803  0.18234865621261778  0.2089179101541063  1.0000
  H   H25       1.0  0.10142716749581378  0.2416114366595322  0.8200149126500593  1.0000
  H   H26       1.0  0.3988020454197923  0.9384948691839623  0.8198260356402827  1.0000
  H   H27       1.0  0.8985710194996553  0.7583886620186533  0.17998583117013564  1.0000
  H   H28       1.0  0.601197986433412  0.06150647717846875  0.18017445283768302  1.0000
  H   H29       1.0  0.19731969548183767  0.3210831006035803  0.6913161380356954  1.0000
  H   H30       1.0  0.30291998971319595  0.9878352422784216  0.6912421904032301  1.0000
  H   H31       1.0  0.8026805343674255  0.6789176280082215  0.3086839758508759  1.0000
  H   H32       1.0  0.6970802401360671  0.012165486333380124  0.3087579234833413  1.0000
  H   H33       1.0  0.3728196468852616  0.0708834651319208  0.010770405781371997  1.0000
  H   H34       1.0  0.12724502209164965  0.9184130925184206  0.010683002767507376  1.0000
  H   H35       1.0  0.6271797595331632  0.929115169681864  0.9892308095611927  1.0000
  H   H36       1.0  0.8727562291845097  0.08158756403333432  0.9893171831791181  1.0000
  H   H37       1.0  0.21746009645507067  0.1893606136653503  0.0016086620160393923  1.0000
  H   H38       1.0  0.2825771742322587  0.8090215333020438  0.0015690777528547673  1.0000
  H   H39       1.0  0.7825382885364648  0.8106388672622059  0.9983917072127612  1.0000
  H   H40       1.0  0.7174232536130631  0.1909778035054115  0.9984314355960395  1.0000
  H   H41       1.0  0.38438746230552573  0.23407391108492656  0.9869295133033092  1.0000
  H   H42       1.0  0.11564043111397385  0.7789434486642006  0.9871107775351291  1.0000
  H   H43       1.0  0.6156117461168407  0.7659261155332118  0.013071302576932597  1.0000
  H   H44       1.0  0.8843587773083922  0.22105735200765508  0.012889264291395357  1.0000
  C   C1        1.0  0.5603901759798189  0.7723257656147382  0.5947285728427829  1.0000
  C   C2        1.0  0.9395956638911189  0.6329464629620387  0.5947562624146701  1.0000
  C   C3        1.0  0.4396102518655027  0.22767434524643448  0.40527116645240113  1.0000
  C   C4        1.0  0.06040476395420307  0.3670536478991337  0.40524347688050716  1.0000
  C   C5        1.0  0.6114862094694259  0.7135550361376913  0.7928360302703156  1.0000
  C   C6        1.0  0.8882910465807184  0.4932800761828416  0.7929281577670438  1.0000
  C   C7        1.0  0.3885154377988513  0.2864436108590879  0.20716418054723823  1.0000
  C   C8        1.0  0.11170733841080957  0.5067194047447146  0.20707221146174953  1.0000
  C   C9        1.0  0.4869549736774915  0.6686746602760036  0.6315097187074558  1.0000
  C   C10       1.0  0.012984234254204781  0.6997463614043864  0.6315330548289497  1.0000
  C   C11       1.0  0.5130446307369992  0.33132490489459326  0.36848957393627313  1.0000
  C   C12       1.0  0.9870163915871828  0.3002531317061638  0.3684663098748403  1.0000
  C   C13       1.0  0.6226996005110054  0.7948796986843688  0.6752759988013751  1.0000
  C   C14       1.0  0.8771110514574331  0.5297684155145673  0.6753317356339538  1.0000
  C   C15       1.0  0.3773014527690961  0.20512080156429136  0.3247253357903617  1.0000
  C   C16       1.0  0.12288957438394732  0.470231077595983  0.32466762906982893  1.0000
  C   C17       1.0  0.6965282690439735  0.9100431079427408  0.6347525870469469  1.0000
  C   C18       1.0  0.8032983960405246  0.45523968754614674  0.6347487890855563  1.0000
  C   C19       1.0  0.30347215880135536  0.08995777697215594  0.36524637819451305  1.0000
  C   C20       1.0  0.19670101037790746  0.5447597213213555  0.3652516522032911  1.0000
  C   C21       1.0  0.4760748694290554  0.5865962862657523  0.7489363078725689  1.0000
  C   C22       1.0  0.0237228972788799  0.6642397116550638  0.7489416609969909  1.0000
  C   C23       1.0  0.5239274032740013  0.4134035241722316  0.2510647241878203  1.0000
  C   C24       1.0  0.9762744662857583  0.33576061538626323  0.2510578621180386  1.0000
  C   C25       1.0  0.5144567972508582  0.5322207797913235  0.9496435612084184  1.0000
  C   C26       1.0  0.985404777457063  0.5177528589036625  0.9497532853841547  1.0000
  C   C27       1.0  0.48554811229417527  0.4677770332746717  0.05035649119788834  1.0000
  C   C28       1.0  0.014588927838701696  0.48225031162341736  0.050246371271185815  1.0000
  C   C29       1.0  0.5368524832723836  0.6092918517283719  0.8309735117218439  1.0000
  C   C30       1.0  0.962926027174717  0.5593039213609288  0.8311012172091382  1.0000
  C   C31       1.0  0.463148965999835  0.3907081870727538  0.16902629963338003  1.0000
  C   C32       1.0  0.03707215982075237  0.4406961773172497  0.16889952661105676  1.0000
  C   C33       1.0  0.4144052494796214  0.650725682418347  0.5450543924624044  1.0000
  C   C34       1.0  0.08569692166152264  0.8043043912895913  0.5451160294423759  1.0000
  C   C35       1.0  0.5855941569388107  0.34927450050287934  0.45494527477272584  1.0000
  C   C36       1.0  0.914303506183806  0.19569571957158158  0.45488370985280113  1.0000
  C   C37       1.0  0.4309246846128899  0.20336777245651647  0.7840770413631548  1.0000
  C   C38       1.0  0.06921212935871068  0.0125778592939198  0.7839919513364252  1.0000
  C   C39       1.0  0.569074721805542  0.7966316364109929  0.2159233999256926  1.0000
  C   C40       1.0  0.9307870790636557  0.987422167324219  0.21600886454381635  1.0000
  C   C41       1.0  0.1858395278512717  0.29767966426431486  0.7832229288167343  1.0000
  C   C42       1.0  0.31435079398512766  0.9192584327158427  0.7831578919740921  1.0000
  C   C43       1.0  0.8141596805710948  0.7023203623538165  0.2167778870635076  1.0000
  C   C44       1.0  0.6856494358641356  0.08074152184224194  0.21684299596620357  1.0000
  C   C45       1.0  0.3230486666755326  0.17594741268624126  0.9678160781012083  1.0000
  C   C46       1.0  0.17701147154976823  0.8562700634690328  0.9678083854229416  1.0000
  C   C47       1.0  0.676950937738951  0.8240513784306386  0.03218398859624474  1.0000
  C   C48       1.0  0.8229887582994945  0.14373066514276897  0.0321917284636299  1.0000
  N   N1        1.0  0.3160464823040455  0.22075530057352194  0.8432814475067688  1.0000
  N   N2        1.0  0.1840810032865505  0.9361143727805298  0.8432302901153791  1.0000
  N   N3        1.0  0.6839529241143795  0.77924333424027  0.15671976783579575  1.0000
  N   N4        1.0  0.8159194245587713  0.06388418997320136  0.15677099728723934  1.0000
  O   O1        1.0  0.7200427985491584  0.9501059242080387  0.706868082282334  1.0000
  O   O2        1.0  0.7798941502920229  0.34284111767516373  0.7068751426900165  1.0000
  O   O3        1.0  0.2799574313001046  0.04989480440376331  0.2931320316042374  1.0000
  O   O4        1.0  0.22010525612640905  0.6571590652460628  0.2931245245451066  1.0000
  O   O5        1.0  0.7277723183556474  0.9594699270085412  0.527279713764017  1.0000
  O   O6        1.0  0.7719852217522174  0.5134184482286769  0.5273339866545257  1.0000
  O   O7        1.0  0.2722281094896744  0.040530183852638284  0.4727200255311603  1.0000
  O   O8        1.0  0.22801622752000136  0.48658159057244854  0.47266582470070523  1.0000
  O   O9        1.0  0.3561015620455379  0.5469298478004702  0.5869915948157926  1.0000
  O   O10       1.0  0.14394849900558881  0.8660273885490282  0.587086819398124  1.0000
  O   O11       1.0  0.6438980423689528  0.4530697173701341  0.41300769782794333  1.0000
  O   O12       1.0  0.856051928839733  0.1339727223121513  0.4129129198970532  1.0000
  O   O13       1.0  0.409680716168765  0.7337722720782268  0.4412460230245827  1.0000
  O   O14       1.0  0.0905462824234391  0.8252709516696369  0.44128494088256803  1.0000
  O   O15       1.0  0.5903195136804982  0.26623000464101654  0.5587525427545473  1.0000
  O   O16       1.0  0.9094541454218826  0.1747283851378185  0.5587155724663334  1.0000
  O   O17       1.0  0.5488420578792628  0.1450900605881244  0.8291992750499092  1.0000
  O   O18       1.0  0.9512497731543447  0.025635196019742092  0.8291424205772701  1.0000
  O   O19       1.0  0.4511573485391693  0.8549093482793775  0.17080116623893826  1.0000
  O   O20       1.0  0.048752072109991156  0.974362833226408  0.1708574156488893  1.0000
