data_image0
_chemical_formula_structural       Co6H30C36O18
_chemical_formula_sum              "Co6 H30 C36 O18"
_cell_length_a       6.967281106054913
_cell_length_b       15.125943544465308
_cell_length_c       15.114609449549231
_cell_angle_alpha    117.68119982524709
_cell_angle_beta     98.8449222743529
_cell_angle_gamma    98.8328541815451

_space_group_name_H-M_alt    "P 1"
_space_group_IT_number       1

loop_
  _space_group_symop_operation_xyz
  'x, y, z'

loop_
  _atom_site_type_symbol
  _atom_site_label
  _atom_site_symmetry_multiplicity
  _atom_site_fract_x
  _atom_site_fract_y
  _atom_site_fract_z
  _atom_site_occupancy
  Co  Co1       1.0  0.8783230401833252  0.676807061311358  0.4113595563512148  1.0000
  Co  Co2       1.0  0.46683342674507605  0.5888765912178471  0.2654353238620003  1.0000
  Co  Co3       1.0  0.2016331768659328  0.7346188435987103  0.32356019299754013  1.0000
  Co  Co4       1.0  0.12166571466367064  0.32316064411743645  0.5885825810197147  1.0000
  Co  Co5       1.0  0.5331620301122229  0.4111042554917219  0.7345484610293267  1.0000
  Co  Co6       1.0  0.7983685767809943  0.26535427767093006  0.6764184553315289  1.0000
  H   H1        1.0  0.6327468059295427  0.4479674982393221  0.9751675161296303  1.0000
  H   H2        1.0  0.6574253350697673  0.024692701714577908  0.4725780096846179  1.0000
  H   H3        1.0  0.18467790897020817  0.527208965909125  0.5519841838324239  1.0000
  H   H4        1.0  0.3672609884199005  0.5520033018356117  0.024793935789972483  1.0000
  H   H5        1.0  0.342576379496478  0.9752858370713681  0.5274454988583698  1.0000
  H   H6        1.0  0.8153471356840214  0.4728221028627146  0.4480554685716952  1.0000
  H   H7        1.0  0.4697170730117861  0.37520390292826994  0.17109998536497525  1.0000
  H   H8        1.0  0.2989835127780084  0.8291540247054814  0.2040890398631134  1.0000
  H   H9        1.0  0.09544140717316205  0.7960215773959547  0.6252792393483091  1.0000
  H   H10       1.0  0.5302408370972101  0.6247746203528235  0.8288608996699267  1.0000
  H   H11       1.0  0.7010279671409734  0.1708036478912476  0.7958890595255993  1.0000
  H   H12       1.0  0.9045343826629378  0.20407127457967533  0.37471424174536583  1.0000
  H   H13       1.0  0.310713182430554  0.3973838675535789  0.07674270741787131  1.0000
  H   H14       1.0  0.23379177983510147  0.9233175211712207  0.32052518250076634  1.0000
  H   H15       1.0  0.913878347190547  0.6796293743334446  0.6029856044075074  1.0000
  H   H16       1.0  0.6892315925762346  0.6026147444897846  0.9232424789367711  1.0000
  H   H17       1.0  0.7662671512251507  0.076647879013457  0.6794624843808278  1.0000
  H   H18       1.0  0.08623792668902301  0.3204449509838271  0.3970461594762256  1.0000
  H   H19       1.0  0.22784048262062842  0.4162167046656294  0.2798362050314934  1.0000
  H   H20       1.0  0.9483275787690741  0.7204341517381394  0.13595088163258848  1.0000
  H   H21       1.0  0.8127556642646993  0.8639573761926087  0.5843369542066553  1.0000
  H   H22       1.0  0.7722314883839656  0.5838328994130392  0.7201855858652022  1.0000
  H   H23       1.0  0.05164635296228681  0.2795559635006484  0.8640317353454279  1.0000
  H   H24       1.0  0.18706872696020574  0.1360760085596056  0.41571484865881553  1.0000
  H   H25       1.0  0.06977813818373589  0.4410373624963738  0.18755055390839456  1.0000
  H   H26       1.0  0.8821425815291022  0.8125361191664524  0.25293119549787946  1.0000
  H   H27       1.0  0.6296445035722016  0.7469806758216748  0.5594340658080624  1.0000
  H   H28       1.0  0.9302806901486634  0.5590323298816244  0.8124935527245255  1.0000
  H   H29       1.0  0.11788955165118155  0.18746867736571465  0.7470676233927589  1.0000
  H   H30       1.0  0.3703051985118009  0.253024140014773  0.4406549165488086  1.0000
  C   C1        1.0  0.12976509853513107  0.5653244791255289  0.10108934657994682  1.0000
  C   C2        1.0  0.028785648274848155  0.8989755784382467  0.4641779195316644  1.0000
  C   C3        1.0  0.5648221642212476  0.5360386133638428  0.4349277647581856  1.0000
  C   C4        1.0  0.8702402674004616  0.43465018331053074  0.8988730699012135  1.0000
  C   C5        1.0  0.9711952731689308  0.10100218273709771  0.5358252443594224  1.0000
  C   C6        1.0  0.43518135963103793  0.46397854676261124  0.5650933239170469  1.0000
  C   C7        1.0  0.9178733248706336  0.5348308945549078  0.08694059894977356  1.0000
  C   C8        1.0  0.8309575447757352  0.9130637564583138  0.4477864588552335  1.0000
  C   C9        1.0  0.383340883798546  0.5523079304632007  0.4653789849272768  1.0000
  C   C10       1.0  0.08212383982539255  0.46513604359984134  0.9130229427746528  1.0000
  C   C11       1.0  0.16902705960995945  0.08691555020426021  0.55221900530087  1.0000
  C   C12       1.0  0.6166654624066296  0.4477061403004895  0.5346435111745221  1.0000
  C   C13       1.0  0.7945882200321748  0.47090795470012387  0.9865852343472739  1.0000
  C   C14       1.0  0.8078872081636631  0.013334446721629003  0.48425254822349467  1.0000
  C   C15       1.0  0.3235312960386453  0.5156068031763824  0.5290195929558763  1.0000
  C   C16       1.0  0.2054199733029662  0.5290636186818034  0.013379913282804459  1.0000
  C   C17       1.0  0.19211021633113035  0.9866471804473065  0.5157654798591408  1.0000
  C   C18       1.0  0.6764799952065061  0.4844142213858404  0.47101045382104445  1.0000
  C   C19       1.0  0.8212206610972428  0.5665640672679544  0.17466386708763787  1.0000
  C   C20       1.0  0.6466671376856465  0.825388372559715  0.3917817056076415  1.0000
  C   C21       1.0  0.255052349106542  0.6083343569806772  0.43372266230173295  1.0000
  C   C22       1.0  0.17878082636924114  0.43341445762965236  0.8253000739495135  1.0000
  C   C23       1.0  0.3533224765196508  0.17458938755009265  0.6082161127333165  1.0000
  C   C24       1.0  0.7449491247696116  0.39167584883775675  0.5662884319871536  1.0000
  C   C25       1.0  0.33715476107769143  0.3984481971198193  0.15023146777971155  1.0000
  C   C26       1.0  0.18707018684192897  0.8499629129699927  0.2480466921173488  1.0000
  C   C27       1.0  0.9395513991061222  0.7520526364317774  0.6020282544400003  1.0000
  C   C28       1.0  0.6628274723608243  0.6015527329509993  0.849753453290198  1.0000
  C   C29       1.0  0.8129609295114191  0.1500078929051583  0.7519375692277563  1.0000
  C   C30       1.0  0.06045044481680861  0.24801936892808382  0.3980023469582008  1.0000
  C   C31       1.0  0.2067986466456375  0.42177540144206926  0.20981838724575397  1.0000
  C   C32       1.0  0.9971651393225404  0.7903969839382801  0.21153949037282177  1.0000
  C   C33       1.0  0.7860641597584672  0.7883964669315019  0.5787280078832849  1.0000
  C   C34       1.0  0.7932340295029404  0.5782711121741569  0.7902038425255141  1.0000
  C   C35       1.0  0.002859647799212377  0.20959313411232466  0.7884506631082215  1.0000
  C   C36       1.0  0.2138580587314465  0.21164078559727528  0.42133906882186517  1.0000
  O   O1        1.0  0.2611419814134876  0.627718485168593  0.19376132245809433  1.0000
  O   O2        1.0  0.06744999818020868  0.8063525221634578  0.4338154609615826  1.0000
  O   O3        1.0  0.6338704624633705  0.5664665168696102  0.37266262155295476  1.0000
  O   O4        1.0  0.7388643354853953  0.37226390205092497  0.8062027687519802  1.0000
  O   O5        1.0  0.9325483865442337  0.1936283260427132  0.5661744844138069  1.0000
  O   O6        1.0  0.36613858796378196  0.4335413729003931  0.6273532196120185  1.0000
  O   O7        1.0  0.9372922670670291  0.6118080209002272  0.26698826044595586  1.0000
  O   O8        1.0  0.6705071772174589  0.7331496774063737  0.3448268497977622  1.0000
  O   O9        1.0  0.32589244188901745  0.6553844809237859  0.3884750327246209  1.0000
  O   O10       1.0  0.0627112146052724  0.38815119304910434  0.7329754396056173  1.0000
  O   O11       1.0  0.32949290813705545  0.2668288505236518  0.6551502265961702  1.0000
  O   O12       1.0  0.6740887675139149  0.34459404676869104  0.6115027049851915  1.0000
  O   O13       1.0  0.6312445147543784  0.5457878981474522  0.15545636167091453  1.0000
  O   O14       1.0  0.4758598862150478  0.8445602138009818  0.3901881183781127  1.0000
  O   O15       1.0  0.08583493779213579  0.6098975459787326  0.4544542761741964  1.0000
  O   O16       1.0  0.3687624697296883  0.45420453202515887  0.8445131090598038  1.0000
  O   O17       1.0  0.5241352801597684  0.1554198662371391  0.6098204308333023  1.0000
  O   O18       1.0  0.914173980086801  0.3901304287176757  0.5455682509982721  1.0000
