data_image0
_chemical_formula_structural       Cd2H12C24N4O8F4
_chemical_formula_sum              "Cd2 H12 C24 N4 O8 F4"
_cell_length_a       8.939258037196122
_cell_length_b       8.93924991333276
_cell_length_c       9.140225515972856
_cell_angle_alpha    69.51699796403774
_cell_angle_beta     69.51718490798842
_cell_angle_gamma    61.44827691683825

_space_group_name_H-M_alt    "P 1"
_space_group_IT_number       1

loop_
  _space_group_symop_operation_xyz
  'x, y, z'

loop_
  _atom_site_type_symbol
  _atom_site_label
  _atom_site_symmetry_multiplicity
  _atom_site_fract_x
  _atom_site_fract_y
  _atom_site_fract_z
  _atom_site_occupancy
  Cd  Cd1       1.0  0.8807273601156708  0.11927218536223452  0.25000017150996695  1.0000
  Cd  Cd2       1.0  0.1192736683721307  0.8807283828347253  0.7499993545384951  1.0000
  H   H1        1.0  0.7459760344695213  0.8146324035660586  0.9656094706554151  1.0000
  H   H2        1.0  0.1853654118806887  0.2540240979928328  0.5343933965420362  1.0000
  H   H3        1.0  0.2540191692946862  0.18537089006508722  0.03439001168354848  1.0000
  H   H4        1.0  0.8146361234129811  0.7459751674498065  0.4656053051852496  1.0000
  H   H5        1.0  0.2848934432684657  0.7165898222118089  0.0746545201283269  1.0000
  H   H6        1.0  0.28341605275049625  0.7151031304239909  0.425347376504277  1.0000
  H   H7        1.0  0.7150998478657729  0.2834122147352999  0.9253482244640874  1.0000
  H   H8        1.0  0.7165854794587503  0.2848961319314256  0.5746524213897994  1.0000
  H   H9        1.0  0.4576963709126929  0.9561965399953467  0.6101917125155579  1.0000
  H   H10       1.0  0.04379984944564799  0.5423082152834269  0.8898084275383198  1.0000
  H   H11       1.0  0.5423068701092719  0.043801388852557493  0.38980795818699904  1.0000
  H   H12       1.0  0.9561987719440098  0.4576924113326939  0.11019080041761241  1.0000
  C   C1        1.0  0.7434514314085732  0.9718168600552417  0.6491127079377604  1.0000
  C   C2        1.0  0.028181086302453192  0.25655072539231577  0.8508859210917803  1.0000
  C   C3        1.0  0.2565471992343547  0.0281837758225407  0.35088323151780526  1.0000
  C   C4        1.0  0.9718189316580421  0.7434524514005006  0.14911415743225118  1.0000
  C   C5        1.0  0.6188704752752797  0.8945621503772332  0.7714322736847947  1.0000
  C   C6        1.0  0.10543415914963822  0.38113131044848814  0.7285702512386791  1.0000
  C   C7        1.0  0.38112984258941646  0.10543713038249794  0.22857121174677522  1.0000
  C   C8        1.0  0.8945661741371611  0.6188679857473431  0.27142775335894925  1.0000
  C   C9        1.0  0.6391728833235104  0.8199325778815877  0.9293267616569731  1.0000
  C   C10       1.0  0.18006591788064702  0.36082704393552945  0.5706746921555632  1.0000
  C   C11       1.0  0.36082211662344577  0.18006812555801593  0.07067585574392872  1.0000
  C   C12       1.0  0.819935113691585  0.639173527348646  0.42932373772610793  1.0000
  C   C13       1.0  0.518740547808868  0.75447752576288  0.03539464660176599  1.0000
  C   C14       1.0  0.24552310688309129  0.4812595250468235  0.4646092115644079  1.0000
  C   C15       1.0  0.4812563493459549  0.2455244189246528  0.9646101893796267  1.0000
  C   C16       1.0  0.7544784314950022  0.5187397434830318  0.5353883939960934  1.0000
  C   C17       1.0  0.381858067599765  0.7632637907556374  0.9887922740952035  1.0000
  C   C18       1.0  0.23673912486903959  0.618141080759564  0.5112087565325536  1.0000
  C   C19       1.0  0.6181393394453423  0.2367368542647981  0.011210641398228851  1.0000
  C   C20       1.0  0.7632629079772216  0.38185687266709323  0.4887924093739285  1.0000
  C   C21       1.0  0.47954945350097217  0.8994574026120292  0.7309049255136197  1.0000
  C   C22       1.0  0.10054114452520926  0.5204535431375847  0.7690951329698448  1.0000
  C   C23       1.0  0.5204503668111258  0.10054319016368403  0.26909609573876014  1.0000
  C   C24       1.0  0.8994591887615968  0.4795457530582398  0.23090287162778345  1.0000
  N   N1        1.0  0.36357801838445875  0.8360063015399674  0.8367402482949797  1.0000
  N   N2        1.0  0.1639932252040168  0.6364245740096307  0.6632595410355858  1.0000
  N   N3        1.0  0.6364216073636512  0.1639917103058508  0.16326061951896506  1.0000
  N   N4        1.0  0.8360090114594957  0.3635759696085756  0.33673848980896515  1.0000
  O   O1        1.0  0.7327248966694881  0.012821859866669201  0.5035551469097965  1.0000
  O   O2        1.0  0.9871751342159528  0.26727644569444214  0.9964454198389984  1.0000
  O   O3        1.0  0.2672759280010695  0.9871761181387412  0.4964475142005964  1.0000
  O   O4        1.0  0.012823490258128246  0.7327241840089017  0.0035527119501422965  1.0000
  O   O5        1.0  0.8433501871908218  0.9940659969431781  0.7008140927170668  1.0000
  O   O6        1.0  0.005934284450731282  0.15665222814971  0.7991859551248763  1.0000
  O   O7        1.0  0.15665204330384344  0.0059345405005828  0.2991861304610595  1.0000
  O   O8        1.0  0.994064846829211  0.8433470987993132  0.20081135234308764  1.0000
  F   F1        1.0  0.5309696968623642  0.6826343903655213  0.191184867587502  1.0000
  F   F2        1.0  0.3173681845035859  0.4690286279266829  0.30881685534107106  1.0000
  F   F3        1.0  0.4690272033768822  0.31736755740923434  0.8088188722270998  1.0000
  F   F4        1.0  0.6826340490755031  0.5309719126043078  0.6911822716702714  1.0000
