data_image0
_chemical_formula_structural       Cd4H40C44N8O24
_chemical_formula_sum              "Cd4 H40 C44 N8 O24"
_cell_length_a       7.966144931077279
_cell_length_b       12.076781831577877
_cell_length_c       13.3127295062711
_cell_angle_alpha    91.0295062152817
_cell_angle_beta     89.99968492959817
_cell_angle_gamma    89.99961541694282

_space_group_name_H-M_alt    "P 1"
_space_group_IT_number       1

loop_
  _space_group_symop_operation_xyz
  'x, y, z'

loop_
  _atom_site_type_symbol
  _atom_site_label
  _atom_site_symmetry_multiplicity
  _atom_site_fract_x
  _atom_site_fract_y
  _atom_site_fract_z
  _atom_site_occupancy
  Cd  Cd1       1.0  0.9950280496205437  0.7500396307619468  0.05367233605865351  1.0000
  Cd  Cd2       1.0  0.49502532905948027  0.7499579937130108  0.44633057980586704  1.0000
  Cd  Cd3       1.0  0.004978039408868502  0.24995654853364616  0.9463294447593569  1.0000
  Cd  Cd4       1.0  0.5049732280692892  0.2500439851866929  0.5536705598258891  1.0000
  H   H1        1.0  0.8139104984501132  0.95786222316584  0.060202384562074905  1.0000
  H   H2        1.0  0.3139024207788239  0.5421354015491886  0.4397966277364134  1.0000
  H   H3        1.0  0.1860981012319414  0.04213314497025072  0.939794122723569  1.0000
  H   H4        1.0  0.6860923704095611  0.45786657492877225  0.5602052630196823  1.0000
  H   H5        1.0  0.30818715960811016  0.08562704217427348  0.08187364983484709  1.0000
  H   H6        1.0  0.8081824012771078  0.4143700719416969  0.4181276976734694  1.0000
  H   H7        1.0  0.6918164188153568  0.9143674880870024  0.9181258462283424  1.0000
  H   H8        1.0  0.19181238990789504  0.5856319021060656  0.5818749442005426  1.0000
  H   H9        1.0  0.4799418781449987  0.9937064120610516  0.0873671157743345  1.0000
  H   H10       1.0  0.9799400685632947  0.5062904617537926  0.4126328314601011  1.0000
  H   H11       1.0  0.5200617002441775  0.006294743522488498  0.9126325059103308  1.0000
  H   H12       1.0  0.0200559779426186  0.4937098559605814  0.5873697790064014  1.0000
  H   H13       1.0  0.0603688522494821  0.1277377544523333  0.2164165136288929  1.0000
  H   H14       1.0  0.5603669944438182  0.372263810137639  0.2835782322414389  1.0000
  H   H15       1.0  0.9396322155558536  0.872260105487136  0.7835777874239228  1.0000
  H   H16       1.0  0.43962905205871283  0.6277365051465297  0.71642512934298  1.0000
  H   H17       1.0  0.8050575557274513  0.08076186542529482  0.3209436782249497  1.0000
  H   H18       1.0  0.3050555284795848  0.41923858998907804  0.1790532360750561  1.0000
  H   H19       1.0  0.19494100142500773  0.9192401304858253  0.6790522035814064  1.0000
  H   H20       1.0  0.6949430286476143  0.580761725289456  0.8209501255050711  1.0000
  H   H21       1.0  0.09114453616873419  0.8154693166464639  0.45395528956111525  1.0000
  H   H22       1.0  0.5911404607352039  0.684530142035392  0.0460429973349505  1.0000
  H   H23       1.0  0.9088540209616197  0.18453432587441654  0.5460436281222627  1.0000
  H   H24       1.0  0.4088606070421577  0.3154685290579451  0.9539565772459468  1.0000
  H   H25       1.0  0.821727065208286  0.9204527923614378  0.4382013995396576  1.0000
  H   H26       1.0  0.3217207691442638  0.5795489404841732  0.061796913443970404  1.0000
  H   H27       1.0  0.17827525786583456  0.0795508550113908  0.5617960159014643  1.0000
  H   H28       1.0  0.6782790433149017  0.42044889515609196  0.9382048987901328  1.0000
  H   H29       1.0  0.5549493170018565  0.14233857501076844  0.20935516325408093  1.0000
  H   H30       1.0  0.054948162973815294  0.35766051242185176  0.2906448118496527  1.0000
  H   H31       1.0  0.445051750745499  0.8576658932395489  0.7906445212456106  1.0000
  H   H32       1.0  0.9450516494887254  0.6423373256486188  0.7093562492665413  1.0000
  H   H33       1.0  0.3508238958928516  0.1981274547260553  0.22119701586941426  1.0000
  H   H34       1.0  0.8508227979030849  0.3018694726632489  0.2788026837173874  1.0000
  H   H35       1.0  0.6491708953108741  0.8018728702817411  0.7788033412454922  1.0000
  H   H36       1.0  0.1491745039365924  0.6981267042218917  0.7211998482335531  1.0000
  H   H37       1.0  0.7370828182708565  0.8879762159715555  0.1509678693528187  1.0000
  H   H38       1.0  0.2370786157500362  0.6120225845386286  0.3490306700254706  1.0000
  H   H39       1.0  0.2629232707549464  0.1120232857059875  0.8490309698042751  1.0000
  H   H40       1.0  0.7629199413830251  0.38797856619579113  0.6509704539035965  1.0000
  C   C1        1.0  0.2408756359572237  0.9135440289965332  0.0758127705745082  1.0000
  C   C2        1.0  0.7408766717369274  0.5864522456618104  0.4241932199067833  1.0000
  C   C3        1.0  0.7591304530627099  0.0864546372251098  0.9241883062336383  1.0000
  C   C4        1.0  0.2591231407050855  0.41354890263959027  0.5758086551380615  1.0000
  C   C5        1.0  0.3509282823582184  0.007760640125375999  0.114612688531615  1.0000
  C   C6        1.0  0.8509255379501112  0.49223876400383654  0.38538931116312364  1.0000
  C   C7        1.0  0.6490752960217063  0.99223967757208  0.8853899219220196  1.0000
  C   C8        1.0  0.14907050855489953  0.5077623843060267  0.6146125638881514  1.0000
  C   C9        1.0  0.36263097450054727  0.020761856268841004  0.2293215518807514  1.0000
  C   C10       1.0  0.8626256336999276  0.47923750743372295  0.2706766522435728  1.0000
  C   C11       1.0  0.6373726038741906  0.9792401201893738  0.7706803388603376  1.0000
  C   C12       1.0  0.1373716681336603  0.5207611588076659  0.7293244245795877  1.0000
  C   C13       1.0  0.0578520444430453  0.0610883763348511  0.27079301097627  1.0000
  C   C14       1.0  0.5578575316538875  0.43891070290048617  0.2292054519623647  1.0000
  C   C15       1.0  0.9421465126967873  0.9389127792599794  0.7292066107169717  1.0000
  C   C16       1.0  0.44214604674476743  0.5610879657570038  0.7707948737321644  1.0000
  C   C17       1.0  0.9203255641387075  0.03357034476929499  0.3279592048068523  1.0000
  C   C18       1.0  0.42031935397330494  0.4664287669878107  0.17203654883672206  1.0000
  C   C19       1.0  0.07967550362489112  0.9664316414153759  0.6720396814668702  1.0000
  C   C20       1.0  0.5796842244578287  0.5335649375383795  0.8279621804058692  1.0000
  C   C21       1.0  0.47001908742496573  0.1679668527238505  0.3614802152227199  1.0000
  C   C22       1.0  0.9700189507827375  0.3320320187212148  0.1385206264451  1.0000
  C   C23       1.0  0.5299757037557526  0.832035949489196  0.6385224423539809  1.0000
  C   C24       1.0  0.0299770957385164  0.6679666475229951  0.8614804503802062  1.0000
  C   C25       1.0  0.46850169366121014  0.9281187158124596  0.2769364700514316  1.0000
  C   C26       1.0  0.9684908879237  0.5718815390991169  0.223058321272056  1.0000
  C   C27       1.0  0.5314993740922347  0.0718832630816024  0.7230646695760328  1.0000
  C   C28       1.0  0.031512690493670406  0.4281154805184144  0.7769397196633534  1.0000
  C   C29       1.0  0.4375686650435071  0.1360833523136051  0.2520951674895926  1.0000
  C   C30       1.0  0.9375647041560954  0.36391649554441574  0.2479050496447925  1.0000
  C   C31       1.0  0.5624336580137027  0.8639202829082036  0.7479060035410968  1.0000
  C   C32       1.0  0.06243259768178431  0.6360813425316963  0.7520960114756862  1.0000
  C   C33       1.0  0.21805155556725717  0.9174880177106812  0.3471622031072812  1.0000
  C   C34       1.0  0.7180462977982174  0.5825116916195655  0.1528379192365605  1.0000
  C   C35       1.0  0.7819495122031056  0.0825139733343931  0.6528351809306088  1.0000
  C   C36       1.0  0.2819522593553714  0.41748614888392405  0.8471623907638629  1.0000
  C   C37       1.0  0.07892017854735658  0.8850096042911916  0.40355019981308266  1.0000
  C   C38       1.0  0.5789075681217994  0.6149907423630053  0.0964466423320971  1.0000
  C   C39       1.0  0.9210846551412928  0.1149940357853865  0.5964494689774824  1.0000
  C   C40       1.0  0.42109475500038235  0.38500296459621813  0.9035513357947239  1.0000
  C   C41       1.0  0.9306066627761851  0.9437855448219493  0.39376383094271006  1.0000
  C   C42       1.0  0.4306077343418977  0.5562123812589165  0.10623554943810379  1.0000
  C   C43       1.0  0.06939189436025833  0.05621560834267571  0.6062365418684479  1.0000
  C   C44       1.0  0.569394588771715  0.4437829820308751  0.8937624600940878  1.0000
  N   N1        1.0  0.2013671314168164  0.0028586138745297003  0.2813039373220789  1.0000
  N   N2        1.0  0.7013595677512754  0.4971406535621626  0.2186925487492672  1.0000
  N   N3        1.0  0.7986339363655047  0.9971417232701825  0.7186926641925311  1.0000
  N   N4        1.0  0.29863647876749166  0.5028571796563598  0.7813100146091827  1.0000
  N   N5        1.0  0.376143297063301  0.8751126027568787  0.3469714174226723  1.0000
  N   N6        1.0  0.8761350955751156  0.6248864108105394  0.1530236580573643  1.0000
  N   N7        1.0  0.623856515384574  0.12488938100041479  0.6530282199711124  1.0000
  N   N8        1.0  0.1238647168941966  0.3751114321203345  0.8469759008229972  1.0000
  O   O1        1.0  0.17318878679552802  0.921875123281154  0.989694240432435  1.0000
  O   O2        1.0  0.6731823518114697  0.5781226942859377  0.51030658224132  1.0000
  O   O3        1.0  0.8268260894610648  0.0781177603449805  0.010302219734427402  1.0000
  O   O4        1.0  0.3268124393870622  0.4218792894826321  0.48969305516104106  1.0000
  O   O5        1.0  0.21825005227788807  0.8308230800304061  0.1322627566327625  1.0000
  O   O6        1.0  0.7182507563347259  0.6691757880782563  0.3677411049095625  1.0000
  O   O7        1.0  0.7817497601598405  0.16917889643627865  0.8677391341147569  1.0000
  O   O8        1.0  0.28174780080600204  0.3308245369210851  0.6322592521989066  1.0000
  O   O9        1.0  0.7938483793279546  0.8803306425900814  0.08498103105080192  1.0000
  O   O10       1.0  0.2938435023374383  0.6196679028579836  0.4150173143744098  1.0000
  O   O11       1.0  0.20615645439160352  0.11966636973402701  0.9150192632362106  1.0000
  O   O12       1.0  0.7061537994832889  0.3803332478792569  0.5849838095568032  1.0000
  O   O13       1.0  0.616908681633525  0.9081052118227645  0.2557382405396567  1.0000
  O   O14       1.0  0.1169068866733767  0.591887496045338  0.24426283717283329  1.0000
  O   O15       1.0  0.38309238614293417  0.09189428986606173  0.7442605986260133  1.0000
  O   O16       1.0  0.8830904151739745  0.408107855104717  0.7557389279575091  1.0000
  O   O17       1.0  0.5964524892448253  0.2304671661551296  0.37988023752205896  1.0000
  O   O18       1.0  0.09645126360658202  0.2695342192880759  0.1201196428835161  1.0000
  O   O19       1.0  0.4035460678959097  0.7695331588442118  0.6201201195864172  1.0000
  O   O20       1.0  0.9035460382089581  0.7304685902099309  0.8798807613351513  1.0000
  O   O21       1.0  0.3687754901841203  0.13680224070699154  0.4290275634228209  1.0000
  O   O22       1.0  0.868769370488984  0.3631929521316691  0.0709712923130041  1.0000
  O   O23       1.0  0.631215535041541  0.8632047047711352  0.5709744215558175  1.0000
  O   O24       1.0  0.1312178888605828  0.6368015684454634  0.9290312082497253  1.0000
