data_image0
_chemical_formula_structural       Zn4H36C32N4O24
_chemical_formula_sum              "Zn4 H36 C32 N4 O24"
_cell_length_a       6.411811301000157
_cell_length_b       9.613175715578661
_cell_length_c       14.87073348733591
_cell_angle_alpha    93.8789796524079
_cell_angle_beta     90.00001896632453
_cell_angle_gamma    89.99998196616842

_space_group_name_H-M_alt    "P 1"
_space_group_IT_number       1

loop_
  _space_group_symop_operation_xyz
  'x, y, z'

loop_
  _atom_site_type_symbol
  _atom_site_label
  _atom_site_symmetry_multiplicity
  _atom_site_fract_x
  _atom_site_fract_y
  _atom_site_fract_z
  _atom_site_occupancy
  Zn  Zn1       1.0  0.9897421698741411  0.6477701645799171  0.3744041369198854  1.0000
  Zn  Zn2       1.0  0.48974301780113894  0.3522291101090431  0.125594868978844  1.0000
  Zn  Zn3       1.0  0.010254684056548096  0.3522307131505116  0.6255952816245839  1.0000
  Zn  Zn4       1.0  0.5102585149947813  0.6477696918507547  0.8744037742288311  1.0000
  H   H1        1.0  0.6436652665219428  0.6193360410180874  0.4364506910452234  1.0000
  H   H2        1.0  0.14366605204240557  0.3806643197311175  0.0635503384215141  1.0000
  H   H3        1.0  0.3563331470311937  0.3806637753270579  0.5635500198892344  1.0000
  H   H4        1.0  0.8563354807541828  0.6193365297987724  0.9364510961933732  1.0000
  H   H5        1.0  0.7851682268236077  0.5726300428373392  0.519408855997618  1.0000
  H   H6        1.0  0.28516776558604556  0.4273713290126935  0.9805916306377469  1.0000
  H   H7        1.0  0.21483018672883247  0.4273718680779979  0.48059128622718816  1.0000
  H   H8        1.0  0.7148322075887846  0.5726284873322954  0.019409080296810502  1.0000
  H   H9        1.0  0.3000587571945984  0.7416721316129014  0.46614465388472576  1.0000
  H   H10       1.0  0.8000624901195009  0.2583282155457383  0.033855051491059406  1.0000
  H   H11       1.0  0.6999365371144038  0.2583287461176909  0.5338547646596438  1.0000
  H   H12       1.0  0.19994372154167908  0.7416736859687701  0.9661457627576124  1.0000
  H   H13       1.0  0.19967531555958118  0.6294067396736407  0.5258352089467806  1.0000
  H   H14       1.0  0.6996793505859884  0.37059464988216456  0.9741652667800835  1.0000
  H   H15       1.0  0.8003199787494708  0.37059517124201585  0.47416493327781944  1.0000
  H   H16       1.0  0.3003268610749216  0.6294072610323551  0.02583487544521999  1.0000
  H   H17       1.0  0.8120903670199837  0.24131114525233235  0.21023229389318493  1.0000
  H   H18       1.0  0.3120927237829889  0.758688138029491  0.2897687054076313  1.0000
  H   H19       1.0  0.1879096061548537  0.7586886710926565  0.7897684170413797  1.0000
  H   H20       1.0  0.6879072493920546  0.2413106357304144  0.710231953870071  1.0000
  H   H21       1.0  0.717217006555565  0.3889491272118804  0.2598683767154952  1.0000
  H   H22       1.0  0.21721783014453416  0.6110501851191187  0.2401319384561234  1.0000
  H   H23       1.0  0.28278296661899555  0.6110506985331199  0.7401316621956865  1.0000
  H   H24       1.0  0.7827837026524164  0.3889475460555403  0.759868669164824  1.0000
  H   H25       1.0  0.8050409530639372  0.045905629309494586  0.29095461303325004  1.0000
  H   H26       1.0  0.3050462768722325  0.9540947074171058  0.20904576500173985  1.0000
  H   H27       1.0  0.19495278162406748  0.9540931538510762  0.7090453742206789  1.0000
  H   H28       1.0  0.6949568155463551  0.0459019905723252  0.7909541189390694  1.0000
  H   H29       1.0  0.2533776618494413  0.962757061865922  0.4439396300316361  1.0000
  H   H30       1.0  0.7533815116455287  0.03724328556069879  0.05606074141108759  1.0000
  H   H31       1.0  0.7466176324596174  0.03724484904973481  0.5560605121929638  1.0000
  H   H32       1.0  0.2466231403943837  0.9627565307838069  0.9439399695237751  1.0000
  H   H33       1.0  0.11445763892112379  0.1941073808510154  0.4137383295716289  1.0000
  H   H34       1.0  0.614459608732389  0.8058930047472328  0.08626135212158198  1.0000
  H   H35       1.0  0.88554077463089  0.8058966152344808  0.5862619159668867  1.0000
  H   H36       1.0  0.38554036444190126  0.1941068303977929  0.9137380147662313  1.0000
  C   C1        1.0  0.37443249319603916  0.25007168712213  0.33152337564821716  1.0000
  C   C2        1.0  0.8744345538973946  0.749927602048217  0.16847628756060115  1.0000
  C   C3        1.0  0.6255674799785211  0.7499281386228702  0.6684766632629645  1.0000
  C   C4        1.0  0.12556541927705206  0.25007015732666105  0.8315223039901197  1.0000
  C   C5        1.0  0.5691559354565924  0.2066419730724007  0.29459716913821404  1.0000
  C   C6        1.0  0.0691597687755916  0.7933573699228872  0.20540312714119574  1.0000
  C   C7        1.0  0.43084091847430983  0.793357862072952  0.7054021977493932  1.0000
  C   C8        1.0  0.9308417640209327  0.20664244642193805  0.7945975837934682  1.0000
  C   C9        1.0  0.6519921597804627  0.07882696372618618  0.3162580419482168  1.0000
  C   C10       1.0  0.1519943588492652  0.9211723621132397  0.18374226490087864  1.0000
  C   C11       1.0  0.34800625377261707  0.9211718194338945  0.6837419453060036  1.0000
  C   C12       1.0  0.8480071739476288  0.0788243358763552  0.8162576190398312  1.0000
  C   C13       1.0  0.5408003078187917  0.99020932395522  0.3695197156156951  1.0000
  C   C14       1.0  0.040804432392462786  0.009790024912703598  0.1304805770455886  1.0000
  C   C15       1.0  0.45919654611351035  0.009786322049762899  0.6304807886912301  1.0000
  C   C16       1.0  0.9592033388900774  0.9902108528165952  0.8695188414995769  1.0000
  C   C17       1.0  0.3437049043849925  0.030448908385345398  0.40292280682583487  1.0000
  C   C18       1.0  0.8437083691174719  0.969551420333843  0.09707757614250309  1.0000
  C   C19       1.0  0.6562919495460235  0.9695529931301293  0.5970780074222404  1.0000
  C   C20       1.0  0.15629316367884627  0.030449438596065206  0.9029231864490157  1.0000
  C   C21       1.0  0.26504378854661326  0.1607974644652472  0.38570887875736287  1.0000
  C   C22       1.0  0.7650488851057985  0.8392018379600117  0.1142914425171639  1.0000
  C   C23       1.0  0.7349530653844097  0.8392044370502275  0.6142919354907121  1.0000
  C   C24       1.0  0.2349542073125761  0.16079590261450247  0.8857084930805073  1.0000
  C   C25       1.0  0.274889600461961  0.38585541712597393  0.3122539472761545  1.0000
  C   C26       1.0  0.7748917374493586  0.6141449352455554  0.18774575488797746  1.0000
  C   C27       1.0  0.7251103727123861  0.6141454512041165  0.687746143291882  1.0000
  C   C28       1.0  0.2251066761032376  0.38585489989963406  0.8122536119997292  1.0000
  C   C29       1.0  0.6362460744464186  0.8526028536206172  0.38797456179425177  1.0000
  C   C30       1.0  0.13624856294711657  0.14739647547991547  0.11202574304568459  1.0000
  C   C31       1.0  0.3637507794848177  0.14739800530977476  0.6120262007969686  1.0000
  C   C32       1.0  0.8637560890927388  0.8526023076795184  0.8879742442089337  1.0000
  N   N1        1.0  0.6786195011341148  0.28861726146649846  0.23429217464965288  1.0000
  N   N2        1.0  0.17862185984363776  0.7113820588581845  0.265708135597066  1.0000
  N   N3        1.0  0.32138047204038867  0.711381531093437  0.7657071405812984  1.0000
  N   N4        1.0  0.8213781133313488  0.2886156817166566  0.7342918000003988  1.0000
  O   O1        1.0  0.1595321932982401  0.44503783332004326  0.3738824396902984  1.0000
  O   O2        1.0  0.6595327478642687  0.554962542943059  0.1261172477542729  1.0000
  O   O3        1.0  0.840467779875837  0.5549630444100656  0.6261169788543696  1.0000
  O   O4        1.0  0.3404672253100857  0.44503832538703136  0.8738828428137637  1.0000
  O   O5        1.0  0.30295495102802755  0.43688413413794075  0.23635927298818157  1.0000
  O   O6        1.0  0.8029556120130222  0.5631151604360838  0.2636410531234787  1.0000
  O   O7        1.0  0.6970450221465327  0.5631156916070594  0.7636407659230002  1.0000
  O   O8        1.0  0.19704124191815708  0.4368846653092433  0.7363589857875111  1.0000
  O   O9        1.0  0.8322827231396417  0.84048542515049  0.3809942900417127  1.0000
  O   O10       1.0  0.3322867714167685  0.1595138915492313  0.11900402374222097  1.0000
  O   O11       1.0  0.16771413079105457  0.15951545257993865  0.6190051285027565  1.0000
  O   O12       1.0  0.667719440243907  0.8404838866250369  0.8809932237621396  1.0000
  O   O13       1.0  0.5133120436947678  0.7533324956041838  0.4073422868799525  1.0000
  O   O14       1.0  0.013316031818632702  0.2466689347269408  0.09265877761095  1.0000
  O   O15       1.0  0.4866848102365253  0.24666939651127257  0.5926591993915054  1.0000
  O   O16       1.0  0.9866886202223099  0.753329810832426  0.9073438977371779  1.0000
  O   O17       1.0  0.7591490358024939  0.5535620218614739  0.45298920743331905  1.0000
  O   O18       1.0  0.2591513382243349  0.4464404095401731  0.047011268059442585  1.0000
  O   O19       1.0  0.240849377750159  0.44643884646878  0.5470108831346252  1.0000
  O   O20       1.0  0.7408501945717703  0.5535614919748112  0.9529895461889311  1.0000
  O   O21       1.0  0.16397086413416423  0.7110537470586067  0.49161122432777654  1.0000
  O   O22       1.0  0.6639730033295165  0.2889476708701366  0.0083885153401226  1.0000
  O   O23       1.0  0.836024430174831  0.2889471306719855  0.508388194216586  1.0000
  O   O24       1.0  0.3360316487096994  0.7110542400445538  0.9916116268850741  1.0000
