data_image0
_chemical_formula_structural       Zn2H24C42N2O8F4
_chemical_formula_sum              "Zn2 H24 C42 N2 O8 F4"
_cell_length_a       11.302179945020118
_cell_length_b       18.330586269856216
_cell_length_c       19.716722552588475
_cell_angle_alpha    89.69139310553773
_cell_angle_beta     89.43254954030323
_cell_angle_gamma    108.86160857895622

_space_group_name_H-M_alt    "P 1"
_space_group_IT_number       1

loop_
  _space_group_symop_operation_xyz
  'x, y, z'

loop_
  _atom_site_type_symbol
  _atom_site_label
  _atom_site_symmetry_multiplicity
  _atom_site_fract_x
  _atom_site_fract_y
  _atom_site_fract_z
  _atom_site_occupancy
  Zn  Zn1       1.0  0.5189042333039353  0.5792221261861741  0.49615773072525116  1.0000
  Zn  Zn2       1.0  0.4809404082888165  0.4207627607897492  0.5007347355025757  1.0000
  H   H1        1.0  0.8717654108928558  0.43323365747849624  0.4928198444569674  1.0000
  H   H2        1.0  0.12808540384344969  0.5672929715681505  0.4909321989092987  1.0000
  H   H3        1.0  0.6503407017337182  0.8653869953017975  0.418360818791129  1.0000
  H   H4        1.0  0.35081033407526263  0.13586862694995014  0.5825587341165388  1.0000
  H   H5        1.0  0.36435132108370266  0.7974159850886194  0.5761027128557501  1.0000
  H   H6        1.0  0.6351692515664099  0.2015536741570898  0.42386657605196376  1.0000
  H   H7        1.0  0.3832614045628303  0.6648326177990141  0.5707475392473568  1.0000
  H   H8        1.0  0.616356669365537  0.334216646157742  0.42772646376523227  1.0000
  H   H9        1.0  0.47264621748356467  0.9242890500378285  0.6076182622402015  1.0000
  H   H10       1.0  0.5265999830528829  0.07554930904707652  0.3931548044262314  1.0000
  H   H11       1.0  0.46945914553963064  0.0580067455809754  0.6099829196669049  1.0000
  H   H12       1.0  0.5298990646166927  0.9418910836173351  0.3908047737098315  1.0000
  H   H13       1.0  0.9366787804901121  0.6101465062084515  0.4920268629831951  1.0000
  H   H14       1.0  0.06332777639349975  0.3904711884698316  0.4963641090905213  1.0000
  H   H15       1.0  0.505040651118712  0.3767950752331329  0.2809431032910439  1.0000
  H   H16       1.0  0.4920957335824809  0.6218747465619998  0.7154996590316216  1.0000
  H   H17       1.0  0.5108407814313979  0.3786753885499293  0.154482431088347  1.0000
  H   H18       1.0  0.4867822462702661  0.6207061049615845  0.8419244418347204  1.0000
  H   H19       1.0  0.4991233159780891  0.6114289410064233  0.1558141364056098  1.0000
  H   H20       1.0  0.5031555182854605  0.38901086130837115  0.8416944544896338  1.0000
  H   H21       1.0  0.4977063232846177  0.608857414205666  0.2825089487928309  1.0000
  H   H22       1.0  0.5052234202075212  0.39098128668143767  0.7150244557452012  1.0000
  H   H23       1.0  0.35996006738232456  0.5522758145115744  0.0658404322471497  1.0000
  H   H24       1.0  0.6405347645785255  0.44821396168481453  0.931199272395972  1.0000
  C   C1        1.0  0.5003446477846295  0.5070545218661948  0.6316219491405022  1.0000
  C   C2        1.0  0.49971230701675745  0.49184992280130047  0.3652294081958374  1.0000
  C   C3        1.0  0.5011838971794873  0.4927047861564731  0.289140934385884  1.0000
  C   C4        1.0  0.49888957696442304  0.5065248328761952  0.7077438634950326  1.0000
  C   C5        1.0  0.42373707167725877  0.5301778997325498  0.0371416339165904  1.0000
  C   C6        1.0  0.5766950513833679  0.47030035728293035  0.9598572519191891  1.0000
  C   C7        1.0  0.42264680778909985  0.5330080430416757  0.966924106374961  1.0000
  C   C8        1.0  0.5777731139934944  0.46746090557582687  0.0300515214853547  1.0000
  C   C9        1.0  0.4978002991854352  0.5034241050070918  0.9255937924445304  1.0000
  C   C10       1.0  0.5025054228624201  0.4969584501515315  0.0713891076695319  1.0000
  C   C11       1.0  0.5889868552453592  0.7483295659988726  0.4543932488714475  1.0000
  C   C12       1.0  0.41177408099467533  0.25241907287356474  0.545148695683622  1.0000
  C   C13       1.0  0.5873276043320176  0.8237232125319167  0.4527465046574051  1.0000
  C   C14       1.0  0.4134694933272628  0.17703498528315012  0.547659023425993  1.0000
  C   C15       1.0  0.5063130989469471  0.8436949945210586  0.49769242912708483  1.0000
  C   C16       1.0  0.4938400857355846  0.1563809199495552  0.5027854827669529  1.0000
  C   C17       1.0  0.4311666846537177  0.7855932773701539  0.5412631639126033  1.0000
  C   C18       1.0  0.5687279156951561  0.213898773499487  0.4586088369062651  1.0000
  C   C19       1.0  0.439936575198587  0.7119604860154993  0.5385857842460453  1.0000
  C   C20       1.0  0.5599471832734011  0.2875437001191584  0.460413852603331  1.0000
  C   C21       1.0  0.4826653484588093  0.9568904740996517  0.5602749591540075  1.0000
  C   C22       1.0  0.5167491500694085  0.04301207663768031  0.4405033852903131  1.0000
  C   C23       1.0  0.2571814950303377  0.4685131428122559  0.49749934220350417  1.0000
  C   C24       1.0  0.7427495795019823  0.5323226127926832  0.4949345601416226  1.0000
  C   C25       1.0  0.48087514369763806  0.032366881472555106  0.5615922271935574  1.0000
  C   C26       1.0  0.5185703627200695  0.9675602773865466  0.4391945516773461  1.0000
  C   C27       1.0  0.4978553389557662  0.076753281512417  0.5017468780363572  1.0000
  C   C28       1.0  0.5018133784422572  0.923207967280561  0.4990410124147502  1.0000
  C   C29       1.0  0.11977307134544894  0.4513381879049946  0.4950675639076039  1.0000
  C   C30       1.0  0.8801825168717557  0.5492873089409828  0.49245373957245425  1.0000
  C   C31       1.0  0.06631773323433512  0.5074059891958598  0.49219343220723033  1.0000
  C   C32       1.0  0.9336020450042356  0.4931245382955539  0.49199858877020114  1.0000
  C   C33       1.0  0.5047880283453666  0.4280178248030282  0.2527392433398674  1.0000
  C   C34       1.0  0.49364947905986145  0.5710356901096673  0.7438959217613501  1.0000
  C   C35       1.0  0.5077197795602828  0.42930733808474736  0.182167424427  1.0000
  C   C36       1.0  0.4908932161354613  0.570152629615542  0.8144542005175098  1.0000
  C   C37       1.0  0.504345260178532  0.49506730123273707  0.14619206377143  1.0000
  C   C38       1.0  0.4957105689196339  0.5049271766470653  0.8507782179833542  1.0000
  C   C39       1.0  0.49973820223885923  0.5595936844916453  0.1830685705910113  1.0000
  C   C40       1.0  0.5015943778859011  0.440492948417294  0.8141650809204535  1.0000
  C   C41       1.0  0.4992469732166285  0.5586790149012303  0.2536024594690218  1.0000
  C   C42       1.0  0.5023526559569903  0.4410778539319651  0.7436347711042117  1.0000
  N   N1        1.0  0.5191650002885523  0.6933808125704103  0.4953833223688733  1.0000
  N   N2        1.0  0.4810251370254619  0.3067261883450172  0.5034044036570364  1.0000
  O   O1        1.0  0.5082056516010881  0.5702527635997254  0.6016413724784755  1.0000
  O   O2        1.0  0.48566467524356244  0.4276594678602663  0.3949687678992788  1.0000
  O   O3        1.0  0.4936060765377449  0.4437887499881655  0.6028082309919043  1.0000
  O   O4        1.0  0.5126034017187422  0.5559521801093369  0.3941069171932554  1.0000
  O   O5        1.0  0.3256425221933554  0.5390956399545104  0.4978696452583833  1.0000
  O   O6        1.0  0.6739301719306213  0.46184267393812223  0.493640137335241  1.0000
  O   O7        1.0  0.2958736739155158  0.41024519448460955  0.4992968505563695  1.0000
  O   O8        1.0  0.7043507029786511  0.5906021422121552  0.49851824664074224  1.0000
  F   F1        1.0  0.34031126849483684  0.5639607355905272  0.9375067119689362  1.0000
  F   F2        1.0  0.660080647364161  0.4365227789403647  0.05952121426558679  1.0000
  F   F3        1.0  0.6670009248084768  0.7281488681460999  0.41220583604225414  1.0000
  F   F4        1.0  0.3341424887350684  0.2731968802698433  0.5871259664138151  1.0000
