data_image0
_chemical_formula_structural       In4H48C88O20
_chemical_formula_sum              "In4 H48 C88 O20"
_cell_length_a       14.31779913423429
_cell_length_b       15.70021374885748
_cell_length_c       16.360200708008836
_cell_angle_alpha    90.0000038826017
_cell_angle_beta     90.00011499802974
_cell_angle_gamma    103.38486309263244

_space_group_name_H-M_alt    "P 1"
_space_group_IT_number       1

loop_
  _space_group_symop_operation_xyz
  'x, y, z'

loop_
  _atom_site_type_symbol
  _atom_site_label
  _atom_site_symmetry_multiplicity
  _atom_site_fract_x
  _atom_site_fract_y
  _atom_site_fract_z
  _atom_site_occupancy
  In  In1       1.0  0.499999532123809  0.500001231147877  0.9999991907186042  1.0000
  In  In2       1.0  0.9999996828378813  0.5000000547469411  1.5070717012e-06  1.0000
  In  In3       1.0  0.7500025774251712  0.500000464587977  0.9973912516891161  1.0000
  In  In4       1.0  0.24999999312944254  0.500001060524859  0.002609006745231599  1.0000
  H   H1        1.0  0.6820808966936129  0.6981904466351665  0.5007683183602651  1.0000
  H   H2        1.0  0.7302160164810163  0.9195841461964348  0.7086839103925584  1.0000
  H   H3        1.0  0.7308703755366893  0.919563570233933  0.29225320075750005  1.0000
  H   H4        1.0  0.7989249328262957  0.6372848563963981  0.774500390819064  1.0000
  H   H5        1.0  0.8252378948490179  0.7236414280825656  0.64452157140731  1.0000
  H   H6        1.0  0.5527254734974392  0.7910805454249539  0.6771389047549619  1.0000
  H   H7        1.0  0.5252309118899205  0.7014190077591634  0.8047302217433269  1.0000
  H   H8        1.0  0.8100874568850642  0.6393040912938942  0.23000708065809763  1.0000
  H   H9        1.0  0.8313261586685317  0.7273089091657281  0.35867056053709934  1.0000
  H   H10       1.0  0.5540412428078271  0.7838107153907143  0.3226835964945991  1.0000
  H   H11       1.0  0.5308375410664254  0.6911763110842555  0.19672301555600308  1.0000
  H   H12       1.0  0.0946732639418713  0.3816499301762945  0.9625451335108863  1.0000
  H   H13       1.0  0.8179197176206191  0.3018108421423377  0.5007684241564193  1.0000
  H   H14       1.0  0.769782145284154  0.080416603996035  0.7086839164358166  1.0000
  H   H15       1.0  0.7691281284807022  0.08043955768886239  0.2922544281314429  1.0000
  H   H16       1.0  0.7010754857455769  0.3627159357536911  0.7745002954386776  1.0000
  H   H17       1.0  0.6747606442062306  0.27635863126921106  0.6445208126305955  1.0000
  H   H18       1.0  0.947274338566274  0.2089214982778174  0.6771367865673454  1.0000
  H   H19       1.0  0.9747713077082027  0.29858311385317643  0.8047281580158767  1.0000
  H   H20       1.0  0.6899106046187528  0.3606950733182258  0.2300057430410405  1.0000
  H   H21       1.0  0.6686731195608788  0.27268836861144047  0.35866979081013983  1.0000
  H   H22       1.0  0.9459574137703729  0.21618719494151148  0.3226820877305697  1.0000
  H   H23       1.0  0.969162370549043  0.30882218309388776  0.19672216515319718  1.0000
  H   H24       1.0  0.40532671681512505  0.6183462011516452  0.9625411359134759  1.0000
  H   H25       1.0  0.3179204804340543  0.30180911310866054  0.4992307175940737  1.0000
  H   H26       1.0  0.26978412806268903  0.08041606582843028  0.29131451432127875  1.0000
  H   H27       1.0  0.2691288662153185  0.0804386035062024  0.7077458351950554  1.0000
  H   H28       1.0  0.20107747283218913  0.3627160139993251  0.2254992563756701  1.0000
  H   H29       1.0  0.17476397696704288  0.276360095812592  0.3554792982658696  1.0000
  H   H30       1.0  0.44727660237250444  0.2089190155374396  0.3228625761577746  1.0000
  H   H31       1.0  0.4747723965617468  0.29857990092165215  0.1952700366915749  1.0000
  H   H32       1.0  0.18991252276399712  0.36069546601422076  0.7699919552950192  1.0000
  H   H33       1.0  0.16867365608514717  0.2726899934254518  0.6413284754158466  1.0000
  H   H34       1.0  0.4459575434202493  0.21618687654981977  0.6773191068940676  1.0000
  H   H35       1.0  0.4691617398463209  0.30882324500672087  0.8032784653542747  1.0000
  H   H36       1.0  0.9053265508118005  0.6183489724148855  0.037453902442059886  1.0000
  H   H37       1.0  0.18208092160999467  0.6981913340335099  0.4992306117973655  1.0000
  H   H38       1.0  0.23021660178095268  0.919583605593125  0.2913145082767912  1.0000
  H   H39       1.0  0.23087127816744163  0.9195632707683783  0.707745219060726  1.0000
  H   H40       1.0  0.2989225625824688  0.637284272618146  0.22549996299164826  1.0000
  H   H41       1.0  0.32523826775649683  0.7236422330374095  0.3554794458005119  1.0000
  H   H42       1.0  0.0527231759186009  0.791079363593276  0.322864083101983  1.0000
  H   H43       1.0  0.025226740619096764  0.7014170945184831  0.19527148917500628  1.0000
  H   H44       1.0  0.31008937503030864  0.639304483989889  0.7699932929120763  1.0000
  H   H45       1.0  0.33132616134962944  0.727311187478996  0.6413298563818088  1.0000
  H   H46       1.0  0.05404203203775633  0.7838130158663926  0.6773193931798787  1.0000
  H   H47       1.0  0.030839171476245035  0.6911780313674071  0.8032787045196486  1.0000
  H   H48       1.0  0.5946735926262009  0.3816546655906948  0.037459122518860986  1.0000
  C   C1        1.0  0.6458563803688904  0.6103959033528169  0.8734030762633507  1.0000
  C   C2        1.0  0.6557845547622351  0.6065361518895145  0.1288596518371605  1.0000
  C   C3        1.0  0.6608386334921619  0.664339789029519  0.7973025579000392  1.0000
  C   C4        1.0  0.6694572658250096  0.6604738725901952  0.20523831302027415  1.0000
  C   C5        1.0  0.7453200911367548  0.6707754348798287  0.7520446301333905  1.0000
  C   C6        1.0  0.7541849151600317  0.670895449640447  0.2508998080846681  1.0000
  C   C7        1.0  0.7596210597676746  0.7189388670740865  0.6798731581256874  1.0000
  C   C8        1.0  0.7658231141127562  0.7200385443923735  0.3226513847176378  1.0000
  C   C9        1.0  0.6907077368078308  0.7629691816369044  0.6523813825620193  1.0000
  C   C10       1.0  0.6943618843671262  0.7617418632613138  0.3489633477375519  1.0000
  C   C11       1.0  0.606522381394399  0.7569771008732431  0.6983593506701951  1.0000
  C   C12       1.0  0.609996109559134  0.7517227364292578  0.3024821809092444  1.0000
  C   C13       1.0  0.5911378931501262  0.7072902312673646  0.7696634729012571  1.0000
  C   C14       1.0  0.5969419144181815  0.7004987058917961  0.2320826646130101  1.0000
  C   C15       1.0  0.7057898867466862  0.8140069195805992  0.5752368672150466  1.0000
  C   C16       1.0  0.7071272063315636  0.8137212582691048  0.4257649857521955  1.0000
  C   C17       1.0  0.726753574593026  0.9065941912498516  0.5762503238051407  1.0000
  C   C18       1.0  0.7273483378721013  0.9063635160248819  0.4246085416621098  1.0000
  C   C19       1.0  0.7388387037746541  0.955323811955125  0.6510360934214106  1.0000
  C   C20       1.0  0.7392348575288992  0.9552786053838105  0.34994810053868963  1.0000
  C   C21       1.0  0.6982765816143868  0.7696195540843218  0.5006002441893216  1.0000
  C   C22       1.0  0.738476855791156  0.9532139113815886  0.5003784058798286  1.0000
  C   C23       1.0  0.8541404560314021  0.3896036308333563  0.8734014180103526  1.0000
  C   C24       1.0  0.8442155210657563  0.39346361222834497  0.1288628663186913  1.0000
  C   C25       1.0  0.8391621705061781  0.3356623258247993  0.7973020921062357  1.0000
  C   C26       1.0  0.8305432004154556  0.3395239730456294  0.205240888541212  1.0000
  C   C27       1.0  0.7546813011728732  0.3292266548527748  0.7520434041893508  1.0000
  C   C28       1.0  0.7458137703235225  0.32910045598215015  0.25089917778990406  1.0000
  C   C29       1.0  0.740378594073896  0.2810625235034721  0.6798725149892988  1.0000
  C   C30       1.0  0.7341760762310585  0.2799587124221006  0.3226501193662584  1.0000
  C   C31       1.0  0.809290452477477  0.23703219050540975  0.6523814687602537  1.0000
  C   C32       1.0  0.8056375350728402  0.2382560635834281  0.34896281635938914  1.0000
  C   C33       1.0  0.8934781811875752  0.24302495639783217  0.6983589739916451  1.0000
  C   C34       1.0  0.8900021679399688  0.24827385271272814  0.3024824097227992  1.0000
  C   C35       1.0  0.9088623095657129  0.2927125210004107  0.7696625154217287  1.0000
  C   C36       1.0  0.9030577145273785  0.2995011170817462  0.23208414235539718  1.0000
  C   C37       1.0  0.7942063870404471  0.18599309579532533  0.5752369234116583  1.0000
  C   C38       1.0  0.7928748265092054  0.18627802636031274  0.425764428383701  1.0000
  C   C39       1.0  0.7732451276740165  0.0934071378029557  0.5762491143442999  1.0000
  C   C40       1.0  0.7726538570423502  0.093636422648423  0.4246079424142621  1.0000
  C   C41       1.0  0.7611580847502354  0.04467755696868641  0.6510366931024123  1.0000
  C   C42       1.0  0.7607654279491386  0.04471997796897401  0.34994808829010526  1.0000
  C   C43       1.0  0.8017217711756786  0.23038107622468118  0.5005997053911955  1.0000
  C   C44       1.0  0.7615213315621433  0.04678606408135269  0.5003777838634846  1.0000
  C   C45       1.0  0.3541441722795966  0.38960038280581694  0.12659412597182038  1.0000
  C   C46       1.0  0.3442134935628261  0.39346405648161203  0.871138161635386  1.0000
  C   C47       1.0  0.3391634423740515  0.33565977193198643  0.2026958668154677  1.0000
  C   C48       1.0  0.3305421799793962  0.33952633821682093  0.7947601116929448  1.0000
  C   C49       1.0  0.25468280920789255  0.32922739966669207  0.24795501706184814  1.0000
  C   C50       1.0  0.2458155983344384  0.3291034541689512  0.7491004503477894  1.0000
  C   C51       1.0  0.24038200547384758  0.28106462218972444  0.3201277115486079  1.0000
  C   C52       1.0  0.23417756427784306  0.2799610141341304  0.6773494849544264  1.0000
  C   C53       1.0  0.30929240773736666  0.2370310303883229  0.34761826463071077  1.0000
  C   C54       1.0  0.3056370667526025  0.23825638339526017  0.6510362994540628  1.0000
  C   C55       1.0  0.3934801891602221  0.24302442423959283  0.3016409077641526  1.0000
  C   C56       1.0  0.3900040349875554  0.2482774755963248  0.697518688762372  1.0000
  C   C57       1.0  0.40886434761296914  0.292709984411431  0.2303361742933134  1.0000
  C   C58       1.0  0.40305769628309923  0.29950215963250315  0.7679169825792727  1.0000
  C   C59       1.0  0.2942111214332003  0.18599394837941222  0.4247627799784652  1.0000
  C   C60       1.0  0.2928736369529333  0.18627895497397867  0.574234661441146  1.0000
  C   C61       1.0  0.2732481323269057  0.09340667792820058  0.4237499346284253  1.0000
  C   C62       1.0  0.2726546016295544  0.09363670087159187  0.5753904942936288  1.0000
  C   C63       1.0  0.26116316803992135  0.04467771193967709  0.34896355377287586  1.0000
  C   C64       1.0  0.26076405443233613  0.04472225892245518  0.6500509354135318  1.0000
  C   C65       1.0  0.30172529020093464  0.23038196981065787  0.49940001424441505  1.0000
  C   C66       1.0  0.26152538497193945  0.04678630429720699  0.4996212413147418  1.0000
  C   C67       1.0  0.14585709761196602  0.6103946133880384  0.1266000628983619  1.0000
  C   C68       1.0  0.15578708864809707  0.606535295234977  0.8711386145944928  1.0000
  C   C69       1.0  0.1608338207654398  0.6643352612444812  0.20270122251942269  1.0000
  C   C70       1.0  0.16945854566520782  0.6604742784832638  0.7947618148500837  1.0000
  C   C71       1.0  0.24531678631365855  0.6707709358693634  0.2479574654803685  1.0000
  C   C72       1.0  0.2541867431709407  0.6708984478272485  0.7491010806425464  1.0000
  C   C73       1.0  0.25961842572630917  0.7189363742171794  0.3201295771584185  1.0000
  C   C74       1.0  0.2658232046794495  0.720040843668336  0.677349527825683  1.0000
  C   C75       1.0  0.1907084594859968  0.7629686738013958  0.3476194009103039  1.0000
  C   C76       1.0  0.194363473107785  0.761744804376768  0.6510374420735587  1.0000
  C   C77       1.0  0.10651970224731855  0.7569745972576027  0.30164311815684636  1.0000
  C   C78       1.0  0.10999764681743338  0.7517250498793473  0.6975196824273693  1.0000
  C   C79       1.0  0.0911333127566323  0.7072863742847059  0.2303401879642095  1.0000
  C   C80       1.0  0.09694485603021974  0.7005004080318  0.7679185610367296  1.0000
  C   C81       1.0  0.20579203023537226  0.8140058043603273  0.4247627237795086  1.0000
  C   C82       1.0  0.20712601677529122  0.8137221868827711  0.5742352188096405  1.0000
  C   C83       1.0  0.22675657924516204  0.9065937313749187  0.4237505328498229  1.0000
  C   C84       1.0  0.2273478498760895  0.9063644465292667  0.5753910935404178  1.0000
  C   C85       1.0  0.23884136105565562  0.9553226538386852  0.3489629540896999  1.0000
  C   C86       1.0  0.23923804539641952  0.9552795854284212  0.6500509476660807  1.0000
  C   C87       1.0  0.19827767463096535  0.7696191345828677  0.4994005530403669  1.0000
  C   C88       1.0  0.23847967661699704  0.953214803878488  0.4996212520905771  1.0000
  O   O1        1.0  0.3935119653719995  0.5746153297083011  0.005882322633460999  1.0000
  O   O2        1.0  0.5634466329587513  0.5974385483220742  0.9076348572797952  1.0000
  O   O3        1.0  0.7310685772788831  0.5903439217456138  0.09627759882335601  1.0000
  O   O4        1.0  0.7165469269500022  0.5810370690446546  0.8980403656829878  1.0000
  O   O5        1.0  0.5701981377974692  0.581285019357189  0.1025664998026272  1.0000
  O   O6        1.0  0.10648736929250192  0.42538417437880577  0.005882676551180998  1.0000
  O   O7        1.0  0.9365513155001043  0.4025623164392441  0.907637012181368  1.0000
  O   O8        1.0  0.7689341356920637  0.40966106358117566  0.0962806821090609  1.0000
  O   O9        1.0  0.7834519008893965  0.41896182841731633  0.8980410301652879  1.0000
  O   O10       1.0  0.9298026983559071  0.4187180030437361  0.10257170014455137  1.0000
  O   O11       1.0  0.6064878102254241  0.4253861905331106  0.9941179357984352  1.0000
  O   O12       1.0  0.43655202751900657  0.4025557712486289  0.0923574550380835  1.0000
  O   O13       1.0  0.2689321876863816  0.40966152679632717  0.9037189921728694  1.0000
  O   O14       1.0  0.283455352968602  0.41896052898373154  0.10195744779318967  1.0000
  O   O15       1.0  0.42980163779920133  0.41871650088404505  0.8974331473898188  1.0000
  O   O16       1.0  0.893513144200476  0.5746147294302374  0.9941163594023834  1.0000
  O   O17       1.0  0.06344517045543802  0.5974372347803011  0.0923644687264584  1.0000
  O   O18       1.0  0.2310665818525522  0.5903358772945707  0.9037171313657237  1.0000
  O   O19       1.0  0.21654289695676007  0.5810337932833107  0.1019622844592547  1.0000
  O   O20       1.0  0.070197281299869  0.5812815542659776  0.8974328369635669  1.0000
