data_image0
_chemical_formula_structural       Zn8H48C84O32
_chemical_formula_sum              "Zn8 H48 C84 O32"
_cell_length_a       24.37830587062802
_cell_length_b       24.58091501887669
_cell_length_c       24.996199279204774
_cell_angle_alpha    62.263944517988435
_cell_angle_beta     61.3743554053917
_cell_angle_gamma    60.90734427908223

_space_group_name_H-M_alt    "P 1"
_space_group_IT_number       1

loop_
  _space_group_symop_operation_xyz
  'x, y, z'

loop_
  _atom_site_type_symbol
  _atom_site_label
  _atom_site_symmetry_multiplicity
  _atom_site_fract_x
  _atom_site_fract_y
  _atom_site_fract_z
  _atom_site_occupancy
  Zn  Zn1       1.0  0.9882704682822164  0.9244508247467919  0.1280477952206951  1.0000
  Zn  Zn2       1.0  0.11825113454754906  0.9230013879478133  0.006180864839677703  1.0000
  Zn  Zn3       1.0  0.9872805280701656  0.050189347130107406  0.009162413924137441  1.0000
  Zn  Zn4       1.0  0.9864840612986825  0.9219887773961376  0.0020249964006992098  1.0000
  Zn  Zn5       1.0  0.5554508357502853  0.4865206325162817  0.4389052702579405  1.0000
  Zn  Zn6       1.0  0.42529642537635926  0.49082931658922774  0.5649913802438462  1.0000
  Zn  Zn7       1.0  0.5569867087265122  0.49090431020782427  0.5634615563538999  1.0000
  Zn  Zn8       1.0  0.5548993098538729  0.3613073837564543  0.5656937891756825  1.0000
  H   H1        1.0  0.07232199122061185  0.8449319110303435  0.2627254642479782  1.0000
  H   H2        1.0  0.13145451623140755  0.815460517786164  0.336765563065022  1.0000
  H   H3        1.0  0.31677135835154485  0.7950427658891857  0.18178989941554125  1.0000
  H   H4        1.0  0.25733908837727865  0.8256069919972264  0.10802974962513179  1.0000
  H   H5        1.0  0.38478712907453155  0.7370889293088113  0.24987501697988526  1.0000
  H   H6        1.0  0.4566245447652051  0.635043029609527  0.308765948316065  1.0000
  H   H7        1.0  0.2864881071716211  0.6210758475434659  0.4778654787118128  1.0000
  H   H8        1.0  0.21396779525218773  0.7232398846708178  0.41908968281993014  1.0000
  H   H9        1.0  0.8373347304513883  0.005750416768023596  0.2626374158651148  1.0000
  H   H10       1.0  0.7311353109496395  0.0652111579082728  0.33357453349101013  1.0000
  H   H11       1.0  0.7335876967865784  0.247095977760921  0.18311115880568002  1.0000
  H   H12       1.0  0.8383417443028947  0.1872604507961455  0.11237006934953105  1.0000
  H   H13       1.0  0.6617068323539356  0.3129844629849785  0.24797073312104362  1.0000
  H   H14       1.0  0.6373035934654749  0.38349822289711716  0.30887308952443265  1.0000
  H   H15       1.0  0.6281090345428096  0.22200176273479144  0.4815143910118849  1.0000
  H   H16       1.0  0.652270481179606  0.1507646012501525  0.4208699782278345  1.0000
  H   H17       1.0  0.9110034523945741  0.7897210040248693  0.2557976282929316  1.0000
  H   H18       1.0  0.8860552520044392  0.6860306758173635  0.3295034962307921  1.0000
  H   H19       1.0  0.8819926924517246  0.6595223003371373  0.17328364635787366  1.0000
  H   H20       1.0  0.907389794724082  0.7626760819066547  0.09994171136718696  1.0000
  H   H21       1.0  0.805808838955386  0.6036671253561537  0.24264701109819942  1.0000
  H   H22       1.0  0.7031371009171249  0.572847367001117  0.3049257511018764  1.0000
  H   H23       1.0  0.71025270039474  0.5600796394497111  0.4787934679028395  1.0000
  H   H24       1.0  0.814346372015933  0.5894849726083323  0.4167973170123249  1.0000
  H   H25       1.0  0.2542846844691127  0.021040601361946208  0.9173115404721769  1.0000
  H   H26       1.0  0.32061035312166547  0.0917735978284995  0.8810983964062515  1.0000
  H   H27       1.0  0.1433934438887546  0.2608943365497042  0.8814326687454254  1.0000
  H   H28       1.0  0.07727794434059376  0.18982828541223995  0.9181894307261302  1.0000
  H   H29       1.0  0.21904127571668397  0.33880879641690603  0.8046051650212147  1.0000
  H   H30       1.0  0.28500072642674446  0.40264384952822513  0.7031226775572036  1.0000
  H   H31       1.0  0.4583227943644557  0.23007827413088935  0.6995968949725792  1.0000
  H   H32       1.0  0.3927452960215803  0.1659945152145212  0.801078578866452  1.0000
  H   H33       1.0  0.2543218988412336  0.8505290518999401  0.8598930970273883  1.0000
  H   H34       1.0  0.32573103110664187  0.8246563560171581  0.7559140873731138  1.0000
  H   H35       1.0  0.15900167253850844  0.8157871259040089  0.7458819793911645  1.0000
  H   H36       1.0  0.08802240676582311  0.8424263207115744  0.8491025060944607  1.0000
  H   H37       1.0  0.22829546572944537  0.7456770484877353  0.6790802264344505  1.0000
  H   H38       1.0  0.2902327679140838  0.6419278757011925  0.6495173515189163  1.0000
  H   H39       1.0  0.4717895954986913  0.6391811145807864  0.640756209196219  1.0000
  H   H40       1.0  0.4100487021374306  0.7433227565192482  0.6703261762327131  1.0000
  H   H41       1.0  0.8566173683483954  0.18481973378019492  0.9236337955737638  1.0000
  H   H42       1.0  0.7561797471345101  0.26367348415398345  0.8896020204727648  1.0000
  H   H43       1.0  0.7345923942728233  0.10618425393752767  0.8780554936708709  1.0000
  H   H44       1.0  0.8338711079170334  0.027868643028980993  0.9131481010103499  1.0000
  H   H45       1.0  0.6688787382265744  0.17333901849384153  0.8125409870807233  1.0000
  H   H46       1.0  0.6401250524152358  0.2300484541994123  0.7116375558880178  1.0000
  H   H47       1.0  0.6471493681426779  0.40756942905608184  0.6974865353283164  1.0000
  H   H48       1.0  0.6767925468409146  0.35086511800702885  0.7983978636271872  1.0000
  C   C1        1.0  0.12358972364900461  0.8622580848861716  0.1370008114595648  1.0000
  C   C2        1.0  0.16122607736763675  0.8373319747181043  0.18103856852420833  1.0000
  C   C3        1.0  0.12585810188355126  0.8333423666275622  0.245764211080683  1.0000
  C   C4        1.0  0.15846218722784755  0.8168967458127838  0.2868051788005417  1.0000
  C   C5        1.0  0.2269672606659866  0.8039687389169572  0.26322192780749293  1.0000
  C   C6        1.0  0.2634088981970492  0.8051625321638839  0.19942324067177697  1.0000
  C   C7        1.0  0.2302961836021494  0.8221954841806608  0.1584100803246785  1.0000
  C   C8        1.0  0.29552899669808125  0.7354677568949057  0.33156841976641976  1.0000
  C   C9        1.0  0.36334883195139156  0.7107834407398813  0.2993640584273434  1.0000
  C   C10       1.0  0.40328945689085316  0.6542204668706333  0.33214694921293375  1.0000
  C   C11       1.0  0.3758129744695464  0.622350633041748  0.39674465223623673  1.0000
  C   C12       1.0  0.30722149504391877  0.6463876374750229  0.42771265567878197  1.0000
  C   C13       1.0  0.267035477187619  0.7028089376815244  0.39526244433002233  1.0000
  C   C14       1.0  0.4194804777771422  0.5664344252930962  0.43398275462499203  1.0000
  C   C15       1.0  0.9034156946530982  0.05594672440719959  0.14029918056238716  1.0000
  C   C16       1.0  0.8440175315937921  0.09299693222776992  0.18329289309524915  1.0000
  C   C17       1.0  0.8143685001759237  0.05856664032076252  0.24595420773296445  1.0000
  C   C18       1.0  0.7558089991934409  0.0913654913262789  0.2853598967665861  1.0000
  C   C19       1.0  0.7269198388429455  0.15907268702350308  0.26243076316536235  1.0000
  C   C20       1.0  0.7568484670040188  0.19440341740663308  0.20067231601630214  1.0000
  C   C21       1.0  0.8151469679105645  0.16104334456269243  0.1612140583967373  1.0000
  C   C22       1.0  0.6587938365397078  0.2277650689478534  0.3313506628160212  1.0000
  C   C23       1.0  0.6555830059184584  0.29287077903196496  0.2988036648722245  1.0000
  C   C24       1.0  0.6417229854071778  0.3322071525707458  0.33273469453465765  1.0000
  C   C25       1.0  0.6312683463881397  0.30692090601501587  0.3986791646131212  1.0000
  C   C26       1.0  0.6362876076673628  0.24110290826823194  0.4302999637557646  1.0000
  C   C27       1.0  0.6498509054559418  0.2015657554033723  0.3968267400204724  1.0000
  C   C28       1.0  0.6104847351981347  0.3504625535245082  0.4359891089164449  1.0000
  C   C29       1.0  0.9319668058962446  0.8403893127168018  0.13038117322735596  1.0000
  C   C30       1.0  0.9108094166283319  0.7821870190209029  0.1735974474992332  1.0000
  C   C31       1.0  0.9037640160860858  0.7611511170592069  0.23854941102425187  1.0000
  C   C32       1.0  0.8898335476795931  0.7039666757563551  0.27938123770817214  1.0000
  C   C33       1.0  0.8826224585014159  0.6674659717466228  0.2553666507450245  1.0000
  C   C34       1.0  0.8874073632843249  0.6887903333718272  0.19123804831040286  1.0000
  C   C35       1.0  0.9017182756745397  0.7460767338347695  0.15044097667281864  1.0000
  C   C36       1.0  0.8156341231464307  0.5979063984871402  0.3267172502631084  1.0000
  C   C37       1.0  0.784367313183317  0.5947348045364365  0.29422682705617836  1.0000
  C   C38       1.0  0.7272775371347677  0.5775776515944101  0.3288634315211923  1.0000
  C   C39       1.0  0.7008571491987607  0.5644180536262553  0.39549117190637156  1.0000
  C   C40       1.0  0.7315364118683546  0.5699821244116451  0.4270880501762733  1.0000
  C   C41       1.0  0.7889178711273741  0.5864179789735147  0.39292438564420706  1.0000
  C   C42       1.0  0.6427648845770835  0.5413318909031375  0.4335566037530824  1.0000
  C   C43       1.0  0.12118450538337558  0.0586758479884537  0.9492818958288466  1.0000
  C   C44       1.0  0.16190728614473932  0.10129713839983616  0.9203929386273728  1.0000
  C   C45       1.0  0.23071392356821008  0.07368630614059411  0.9085457005326347  1.0000
  C   C46       1.0  0.26754152646710583  0.1128216983641366  0.8882907717680197  1.0000
  C   C47       1.0  0.23525208591266986  0.17985639712215837  0.8798817012944724  1.0000
  C   C48       1.0  0.16724965571801678  0.2084537768131227  0.8886141952720407  1.0000
  C   C49       1.0  0.13070633844665736  0.16906134493658703  0.9090412879271312  1.0000
  C   C50       1.0  0.30270546317237995  0.24937831355285311  0.8083967661738497  1.0000
  C   C51       1.0  0.2712200631945266  0.3153533270558881  0.7805950457232028  1.0000
  C   C52       1.0  0.3078250045197279  0.35063376677693736  0.7244751472427282  1.0000
  C   C53       1.0  0.3756553296000149  0.32015382519858804  0.6959174697881706  1.0000
  C   C54       1.0  0.4056727540122082  0.25309266862140584  0.7224643611341578  1.0000
  C   C55       1.0  0.36935620845875405  0.21752250226933964  0.7786156801104483  1.0000
  C   C56       1.0  0.4168560788034128  0.3598285198567909  0.6413811661530318  1.0000
  C   C57       1.0  0.12378897999334254  0.8691523546418553  0.9191661042012953  1.0000
  C   C58       1.0  0.167002222441674  0.84803219291274  0.8605205090240415  1.0000
  C   C59       1.0  0.23424790714700783  0.8421465216226242  0.8348174892937762  1.0000
  C   C60       1.0  0.2739012651353575  0.8275560138874027  0.7774232655779727  1.0000
  C   C61       1.0  0.24641165829167705  0.8184064750297254  0.7456482477244818  1.0000
  C   C62       1.0  0.1799275384843995  0.8223458301808151  0.771537923678764  1.0000
  C   C63       1.0  0.14039319495925873  0.837376601474219  0.8288396931071487  1.0000
  C   C64       1.0  0.3160708178087289  0.749950885611277  0.6763418040318143  1.0000
  C   C65       1.0  0.2813841483540215  0.7215999666066252  0.6716958187285512  1.0000
  C   C66       1.0  0.3158950578960641  0.663999848641474  0.6550162862446525  1.0000
  C   C67       1.0  0.3847075594065572  0.6345948876464433  0.6431033292462801  1.0000
  C   C68       1.0  0.4184058298931744  0.6625857287369287  0.6498970167813524  1.0000
  C   C69       1.0  0.38429412417941916  0.7201001288085322  0.6664462883992357  1.0000
  C   C70       1.0  0.42312055569543344  0.576409883882775  0.6194609293613097  1.0000
  C   C71       1.0  0.9068151919228453  0.055484289810316105  0.946695201223733  1.0000
  C   C72       1.0  0.8509324763469478  0.10170604664271819  0.9207175021124171  1.0000
  C   C73       1.0  0.829672247925515  0.16836512147684604  0.9131674555617622  1.0000
  C   C74       1.0  0.7743730230021767  0.21204807126682113  0.8941176565196542  1.0000
  C   C75       1.0  0.7401079540120674  0.1893211734745961  0.8820500514822313  1.0000
  C   C76       1.0  0.7619152201896991  0.12339553872184439  0.8872572492349209  1.0000
  C   C77       1.0  0.8171300422234039  0.0797478151480249  0.9069605883206792  1.0000
  C   C78       1.0  0.6740637075913725  0.2594185444839923  0.810961078884752  1.0000
  C   C79       1.0  0.6654334063246594  0.2242021645614756  0.7865643149939388  1.0000
  C   C80       1.0  0.6491568288300797  0.2558427372279298  0.7305248065592024  1.0000
  C   C81       1.0  0.6414658292541873  0.3222261174458225  0.6989545325222934  1.0000
  C   C82       1.0  0.6529254278279665  0.3561254575149491  0.7226734441474393  1.0000
  C   C83       1.0  0.6693478105980117  0.3248799512817726  0.7783936224674834  1.0000
  C   C84       1.0  0.6161091603106283  0.3586681253074744  0.6436849026949146  1.0000
  O   O1        1.0  0.020739654935212626  0.9543922109187475  0.03469641876936442  1.0000
  O   O2        1.0  0.15550196717833834  0.8734294911761398  0.07700570013992077  1.0000
  O   O3        1.0  0.0612571196031338  0.871966202868983  0.16320368877017433  1.0000
  O   O4        1.0  0.25583062399945783  0.796386910655386  0.30364282140460097  1.0000
  O   O5        1.0  0.39079038349566975  0.5403384815006405  0.4927493504607058  1.0000
  O   O6        1.0  0.48213222437918535  0.5500527961333006  0.4046508521885387  1.0000
  O   O7        1.0  0.9224694017410541  0.0867892366952461  0.08074857480844609  1.0000
  O   O8        1.0  0.9301644878927746  0.9952659464370727  0.16657523563649324  1.0000
  O   O9        1.0  0.6651130208165625  0.18841930634442153  0.30147507052272715  1.0000
  O   O10       1.0  0.6051509907638675  0.32326472175821414  0.495251552014544  1.0000
  O   O11       1.0  0.598522049624904  0.4114854539947359  0.40612440226999524  1.0000
  O   O12       1.0  0.9474660994963385  0.8540070649051829  0.07003940884192149  1.0000
  O   O13       1.0  0.9340338707169445  0.8717080482502128  0.15791179894235793  1.0000
  O   O14       1.0  0.8769442810125057  0.6067169095187951  0.2958957560959588  1.0000
  O   O15       1.0  0.6196228314836814  0.5344977433276129  0.49338530065770675  1.0000
  O   O16       1.0  0.6212981830923495  0.5292769623646195  0.4039561365173014  1.0000
  O   O17       1.0  0.05820519420873891  0.0873301791519339  0.9639229154809568  1.0000
  O   O18       1.0  0.15185106348132377  0.9973605821253886  0.9584477148563973  1.0000
  O   O19       1.0  0.26914238445773714  0.21760976805485646  0.8696228884691805  1.0000
  O   O20       1.0  0.47868837919272517  0.3295426718979045  0.6187649406402542  1.0000
  O   O21       1.0  0.387118657004116  0.4215067763690712  0.6228459088640506  1.0000
  O   O22       1.0  0.061446969627894484  0.8817930374217582  0.9361089952392873  1.0000
  O   O23       1.0  0.15295538140883727  0.8738389993682604  0.9471218030542303  1.0000
  O   O24       1.0  0.28538829459655796  0.8113030601170266  0.6850372848005221  1.0000
  O   O25       1.0  0.4857069594268919  0.5534528758159426  0.6092619047977549  1.0000
  O   O26       1.0  0.39119893297471725  0.5547784739130464  0.6101517339629581  1.0000
  O   O27       1.0  0.9188159690615834  0.9941552775798287  0.9627815472819136  1.0000
  O   O28       1.0  0.9378039722260425  0.08150248580572142  0.9517093200317387  1.0000
  O   O29       1.0  0.6807367177850876  0.2336234210627454  0.8709773885711698  1.0000
  O   O30       1.0  0.6061639952656747  0.4199563930132301  0.6211360386383049  1.0000
  O   O31       1.0  0.6047788159780152  0.3265601140965941  0.6241526337289685  1.0000
  O   O32       1.0  0.5227968660775061  0.4571389234355436  0.532999039244281  1.0000
