data_image0
_chemical_formula_structural       Al4H16C46Br12O32
_chemical_formula_sum              "Al4 H16 C46 Br12 O32"
_cell_length_a       7.163859200932998
_cell_length_b       17.215411699642765
_cell_length_c       20.821114674723752
_cell_angle_alpha    72.2434717208005
_cell_angle_beta     90.00081109668413
_cell_angle_gamma    90.00420529378421

_space_group_name_H-M_alt    "P 1"
_space_group_IT_number       1

loop_
  _space_group_symop_operation_xyz
  'x, y, z'

loop_
  _atom_site_type_symbol
  _atom_site_label
  _atom_site_symmetry_multiplicity
  _atom_site_fract_x
  _atom_site_fract_y
  _atom_site_fract_z
  _atom_site_occupancy
  Al  Al1       1.0  0.06383768020013039  0.5007691954671785  0.4969407783705009  1.0000
  Al  Al2       1.0  0.5638296030988457  0.4991962517136843  0.5030874372054014  1.0000
  Al  Al3       1.0  0.7039491216906839  0.9989221618197062  0.0017747787946050027  1.0000
  Al  Al4       1.0  0.2039511964462619  0.001069402611292973  0.9982471802796127  1.0000
  H   H1        1.0  0.810752051944476  0.18810132474026628  0.35617644648263547  1.0000
  H   H2        1.0  0.3107189042897005  0.8119676583623915  0.6438220452847574  1.0000
  H   H3        1.0  0.1289157616879777  0.1765870441025044  0.27391201041176316  1.0000
  H   H4        1.0  0.6289132045830498  0.8234322828492537  0.7261094692573096  1.0000
  H   H5        1.0  0.8683368909535644  0.4007648472170615  0.18924925997474418  1.0000
  H   H6        1.0  0.3681782202286853  0.599263219120452  0.8106970587704794  1.0000
  H   H7        1.0  0.24775808136713806  0.44054461347284496  0.17835466303466063  1.0000
  H   H8        1.0  0.7476928293844054  0.5594530409930415  0.8215927584948871  1.0000
  H   H9        1.0  0.06246098766682449  0.35755644589991675  0.0194562716005606  1.0000
  H   H10       1.0  0.5623628703118372  0.6423610884257799  0.9805355397356761  1.0000
  H   H11       1.0  0.45681098478955556  0.44549392642987584  0.2603641386705604  1.0000
  H   H12       1.0  0.9567679072641722  0.5545674267753995  0.7395732132480647  1.0000
  H   H13       1.0  0.3159030516382657  0.39778355995802184  0.49915277482347153  1.0000
  H   H14       1.0  0.8159324448393618  0.6021960466969745  0.5008302963006983  1.0000
  H   H15       1.0  0.4556414277739762  0.10562907862417605  0.9924893025130073  1.0000
  H   H16       1.0  0.9556050149024955  0.8945381287571763  0.006969453231853602  1.0000
  C   C1        1.0  0.30716250314986127  0.5755364858033616  0.5769648566233697  1.0000
  C   C2        1.0  0.8071810166354039  0.4244488655664115  0.42305086319259283  1.0000
  C   C3        1.0  0.32072851233017724  0.6073231514611095  0.397632784177091  1.0000
  C   C4        1.0  0.8207567977059609  0.39266734578686174  0.6024039642439404  1.0000
  C   C5        1.0  0.8371601903274665  0.3323911613469124  0.6678070902726531  1.0000
  C   C6        1.0  0.33716356549562215  0.6676028735054444  0.3322277617072941  1.0000
  C   C7        1.0  0.8702025525647127  0.281401052474301  0.7220125051220875  1.0000
  C   C8        1.0  0.37025594900040903  0.7185826686178061  0.2780268621689999  1.0000
  C   C9        1.0  0.9046291495995149  0.22474373733481207  0.7817269143982414  1.0000
  C   C10       1.0  0.4046735321173429  0.7752410691277873  0.21830631215177476  1.0000
  C   C11       1.0  0.936140335818578  0.17314268579355732  0.8357358980575073  1.0000
  C   C12       1.0  0.4361479468035512  0.826869169279142  0.1642991813858714  1.0000
  C   C13       1.0  0.7753550399473426  0.16322449566624903  0.2627454004346674  1.0000
  C   C14       1.0  0.2753230690544157  0.8368090208059371  0.7372642508751426  1.0000
  C   C15       1.0  0.07859792737821888  0.2347169957983652  0.2402282450195514  1.0000
  C   C16       1.0  0.5785562532662353  0.765300559853927  0.7597831952157958  1.0000
  C   C17       1.0  0.03623795415379049  0.29149844040682643  0.28370808552762117  1.0000
  C   C18       1.0  0.5361490677962024  0.7085354185374869  0.7162838242319011  1.0000
  C   C19       1.0  0.7974205918048864  0.38257665626598947  0.3729651591181166  1.0000
  C   C20       1.0  0.29734130461189767  0.6174461307070018  0.6270234942830725  1.0000
  C   C21       1.0  0.9032676287294591  0.2145466864655106  0.20292185666951207  1.0000
  C   C22       1.0  0.40322651388780156  0.7854533003562522  0.7970890086626525  1.0000
  C   C23       1.0  0.7361119807242531  0.2159869017542562  0.3090961228761556  1.0000
  C   C24       1.0  0.23606095715726377  0.7840617419229333  0.690896650983241  1.0000
  C   C25       1.0  0.8179481385512233  0.3045377113390515  0.28144465745714337  1.0000
  C   C26       1.0  0.3178405271687126  0.6955077389186995  0.7185334379043553  1.0000
  C   C27       1.0  0.7649344535438302  0.35090723215344616  0.20576074095955474  1.0000
  C   C28       1.0  0.2647982495788738  0.6491225316531769  0.7942114379545941  1.0000
  C   C29       1.0  0.813636187069228  0.2988773287327433  0.15860130059692779  1.0000
  C   C30       1.0  0.3135481807428633  0.701123388904236  0.8413888627768243  1.0000
  C   C31       1.0  0.7822666629297146  0.3498009049890242  0.329174536417419  1.0000
  C   C32       1.0  0.2821707963071842  0.6502383810021826  0.6708022077407276  1.0000
  C   C33       1.0  0.9498336912864003  0.16371645505288512  0.16115789231108119  1.0000
  C   C34       1.0  0.44978344218286986  0.8362297507256005  0.8388913195661514  1.0000
  C   C35       1.0  0.95811926153673  0.11983370583446631  0.1255118272754956  1.0000
  C   C36       1.0  0.4580601693484566  0.8800568729255432  0.8745912546104863  1.0000
  C   C37       1.0  0.4491499406470112  0.8893980606099775  0.1000894446241247  1.0000
  C   C38       1.0  0.9491564407574413  0.11061982599056104  0.8999455660691495  1.0000
  C   C39       1.0  0.45739753721372967  0.926121702029633  0.921818719385101  1.0000
  C   C40       1.0  0.9574250865789152  0.07380404542603003  0.07824817479230009  1.0000
  C   C41       1.0  0.15426478603752258  0.3712890000796135  0.26434623142586133  1.0000
  C   C42       1.0  0.6541807594779101  0.6287492225471637  0.735636864072717  1.0000
  C   C43       1.0  0.9302779915227929  0.3543563986404906  0.09783356285544188  1.0000
  C   C44       1.0  0.4302163883895814  0.6456218032415181  0.9021311078831785  1.0000
  C   C45       1.0  0.5916905909496677  0.40516699978996235  0.19625063216717106  1.0000
  C   C46       1.0  0.09155707338327797  0.5948592810890644  0.8037296088285403  1.0000
  Br  Br1       1.0  0.5649074440815554  0.10980349437799217  0.23487962839421786  1.0000
  Br  Br2       1.0  0.0648564678900172  0.8901795720387111  0.7651684078592426  1.0000
  Br  Br3       1.0  0.484414992518964  0.21520325677040122  0.34222757546275767  1.0000
  Br  Br4       1.0  0.984365982257259  0.7848711770504053  0.6577372663133048  1.0000
  Br  Br5       1.0  0.924216599855839  0.0643664293642132  0.3178484197006384  1.0000
  Br  Br6       1.0  0.42416138476826143  0.9356609303824612  0.6821819166930964  1.0000
  Br  Br7       1.0  0.2801472738598462  0.2670989985347632  0.17660888900435617  1.0000
  Br  Br8       1.0  0.7800703885108787  0.7329120509219252  0.8234033182036596  1.0000
  Br  Br9       1.0  0.09961406958205289  0.23521507515831536  0.38090982947351637  1.0000
  Br  Br10      1.0  0.5995426103982737  0.7648246034559562  0.6190960955100095  1.0000
  Br  Br11      1.0  0.6147358422855332  0.2786418327126228  0.09710724956816819  1.0000
  Br  Br12      1.0  0.1147173626967088  0.7213271902994337  0.9029159561756686  1.0000
  O   O1        1.0  0.47723422740353527  0.5848373729256977  0.426478982437466  1.0000
  O   O2        1.0  0.9772792966562419  0.41512873892580876  0.5735529766402294  1.0000
  O   O3        1.0  0.1504704136545811  0.561793767467087  0.5533828401189851  1.0000
  O   O4        1.0  0.650487548657992  0.4381627325488395  0.4466420163953089  1.0000
  O   O5        1.0  0.15655963193921  0.5846340193471705  0.4187876159854795  1.0000
  O   O6        1.0  0.6566040338235267  0.4153642783115288  0.5812508656599675  1.0000
  O   O7        1.0  0.9703875811076301  0.44267704999998614  0.43849669282847253  1.0000
  O   O8        1.0  0.4703749723824657  0.5573120969373235  0.5615321143742591  1.0000
  O   O9        1.0  0.31368782426450537  0.45112517376961847  0.5059229096196702  1.0000
  O   O10       1.0  0.8136891732714133  0.5488264759187375  0.494113165676623  1.0000
  O   O11       1.0  0.2959114845872363  0.944650827775348  0.9384606490147434  1.0000
  O   O12       1.0  0.7959469469502308  0.0552881067395319  0.06158493548718271  1.0000
  O   O13       1.0  0.6122204780858593  0.9124522657257471  0.0776972621337038  1.0000
  O   O14       1.0  0.11223960366606889  0.08756741452903329  0.9223165141176679  1.0000
  O   O15       1.0  0.616817671607258  0.9413302776917474  0.9424516341993295  1.0000
  O   O16       1.0  0.11682461388624428  0.05862771755943192  0.05758888052136509  1.0000
  O   O17       1.0  0.7913098795296065  0.08627463715717451  0.9269791052594982  1.0000
  O   O18       1.0  0.2913160891971457  0.9137416343935385  0.0730615548195672  1.0000
  O   O19       1.0  0.45449514116460676  0.04839035759619039  0.9951764057580589  1.0000
  O   O20       1.0  0.9544884620706994  0.9516178556801549  0.004792785123456201  1.0000
  O   O21       1.0  0.2653144000917962  0.38957263810760173  0.30188257169058363  1.0000
  O   O22       1.0  0.12785175240557578  0.41594249873092093  0.20018408836602927  1.0000
  O   O23       1.0  0.7652195441569916  0.6104847363191228  0.6980871797284108  1.0000
  O   O24       1.0  0.6277870627163794  0.5840816401279268  0.7997931437591745  1.0000
  O   O25       1.0  0.9316016502252465  0.4282307257955935  0.08510698577531169  1.0000
  O   O26       1.0  0.007260137369193798  0.31508459352037477  0.05733927877944471  1.0000
  O   O27       1.0  0.431517019979175  0.571753732541474  0.9148250453977838  1.0000
  O   O28       1.0  0.5072600428592224  0.6848544497577437  0.9426459397912909  1.0000
  O   O29       1.0  0.47954163050656  0.41955804337376185  0.1496483802261039  1.0000
  O   O30       1.0  0.5871372048982265  0.4432753885266009  0.2435410549187083  1.0000
  O   O31       1.0  0.9793996769165644  0.580487725552196  0.8503272467008994  1.0000
  O   O32       1.0  0.08705109702280817  0.5567040931642354  0.7564638136346318  1.0000
