data_image0
_chemical_formula_structural       Cu2H28C20S4N8O12
_chemical_formula_sum              "Cu2 H28 C20 S4 N8 O12"
_cell_length_a       6.817784885026102
_cell_length_b       8.077815058039414
_cell_length_c       13.202174894023331
_cell_angle_alpha    89.99980609907443
_cell_angle_beta     90.0001065793932
_cell_angle_gamma    89.99970243422592

_space_group_name_H-M_alt    "P 1"
_space_group_IT_number       1

loop_
  _space_group_symop_operation_xyz
  'x, y, z'

loop_
  _atom_site_type_symbol
  _atom_site_label
  _atom_site_symmetry_multiplicity
  _atom_site_fract_x
  _atom_site_fract_y
  _atom_site_fract_z
  _atom_site_occupancy
  Cu  Cu1       1.0  0.5000019438814577  0.5000015850780882  0.4999998977054858  1.0000
  Cu  Cu2       1.0  0.9999978167357854  1.5140267989999993e-06  4.799182562000003e-07  1.0000
  H   H1        1.0  0.499999876964054  0.452509648754848  0.0862734191373917  1.0000
  H   H2        1.0  0.5000010773099248  0.5474885695736945  0.9137263762774664  1.0000
  H   H3        1.0  0.9999985763110644  0.9525166462930628  0.41372674641890933  1.0000
  H   H4        1.0  9.112056958e-07  0.047482809999252085  0.5862722915429686  1.0000
  H   H5        1.0  0.3680851742965174  0.3130054096368652  0.1691674230408182  1.0000
  H   H6        1.0  0.3680866873403729  0.6869933890750274  0.8308330032072746  1.0000
  H   H7        1.0  0.1319163174842188  0.8130082794033483  0.3308386210995237  1.0000
  H   H8        1.0  0.13191591268103764  0.18699155838859835  0.669160821010827  1.0000
  H   H9        1.0  0.6319157799801899  0.6869928086876271  0.8308338872759577  1.0000
  H   H10       1.0  0.6319142669349703  0.3130048292514969  0.16916754965853897  1.0000
  H   H11       1.0  0.8680831700249528  0.18699365280601643  0.6691604168597038  1.0000
  H   H12       1.0  0.8680821080812394  0.8130091358634458  0.330838974399974  1.0000
  H   H13       1.0  0.18348154400496947  0.3331295089875822  0.3791304456482578  1.0000
  H   H14       1.0  0.18348242349887306  0.6668725778385962  0.6208720757585908  1.0000
  H   H15       1.0  0.31651835765909203  0.8331289736955084  0.1208725255747396  1.0000
  H   H16       1.0  0.3165188331215917  0.1668737657731327  0.8791278511726475  1.0000
  H   H17       1.0  0.8165223437747854  0.6668699472849368  0.620872379570514  1.0000
  H   H18       1.0  0.8165214642705648  0.3331293543550159  0.379129234555613  1.0000
  H   H19       1.0  0.6834796631007549  0.16687295851303216  0.8791280272856882  1.0000
  H   H20       1.0  0.6834777208810437  0.8331294043991803  0.1208719442347999  1.0000
  H   H21       1.0  0.5000003994381359  0.14193898191185636  0.6617319669450765  1.0000
  H   H22       1.0  0.5000020215944261  0.8580579984508885  0.33826934337373166  1.0000
  H   H23       1.0  1.0100256559999998e-06  0.641943630342844  0.8382680134034004  1.0000
  H   H24       1.0  0.9999984774894415  0.3580545879990353  0.161727994755978  1.0000
  H   H25       1.0  0.5000026911836102  0.16659005057361745  0.3476124842142241  1.0000
  H   H26       1.0  0.49999972984895186  0.8334069297891276  0.6523888261045839  1.0000
  H   H27       1.0  1.1649494525e-06  0.6665857877709271  0.15238705657496612  1.0000
  H   H28       1.0  0.9999997893214995  0.33341119260919777  0.8476089515864373  1.0000
  C   C1        1.0  0.500000204253091  0.3888486739327206  0.1595909526597836  1.0000
  C   C2        1.0  0.5000007500184581  0.6111507823523181  0.8404096002047153  1.0000
  C   C3        1.0  0.9999986393140361  0.888851111072192  0.3404138940026158  1.0000
  C   C4        1.0  0.9999986649398807  0.11114985924489668  0.6595863813284737  1.0000
  C   C5        1.0  0.10224535131912661  0.40756303655642506  0.4335615101011783  1.0000
  C   C6        1.0  0.10224649092153021  0.592431979933501  0.5664409333394715  1.0000
  C   C7        1.0  0.3977511605089959  0.907568624264769  0.0664397867359696  1.0000
  C   C8        1.0  0.3977566887866146  0.0924399475848219  0.9335606679782414  1.0000
  C   C9        1.0  0.8977585364606354  0.5924364197160941  0.5664413151175935  1.0000
  C   C10       1.0  0.8977544633527472  0.40756747634749496  0.43356113442693817  1.0000
  C   C11       1.0  0.6022453934936395  0.09243454590754398  0.9335600086714777  1.0000
  C   C12       1.0  0.6022427987228626  0.9075632225769964  0.0664406423325232  1.0000
  C   C13       1.0  0.5000004593048432  0.07943960297078687  0.5886622550365246  1.0000
  C   C14       1.0  0.5000019617239247  0.9205586153504794  0.41133905528095477  1.0000
  C   C15       1.0  1.3333164688000002e-06  0.5794413853596652  0.9113378592217387  1.0000
  C   C16       1.0  0.9999981542051517  0.4205555950196426  0.088659663840879  1.0000
  C   C17       1.0  0.500001573505955  0.09312569444872308  0.4163451775988349  1.0000
  C   C18       1.0  0.5000008475252429  0.9068712859160398  0.5836553752690179  1.0000
  C   C19       1.0  0.9999990829758617  0.5931233126422623  0.0836534856050974  1.0000
  C   C20       1.0  4.0454303019999954e-07  0.40687366774108824  0.9163425225556097  1.0000
  S   S1        1.0  0.4999999008085539  0.5440005227609533  0.2550864157791537  1.0000
  S   S2        1.0  0.5000010534602667  0.45599893352813564  0.7449126221834277  1.0000
  S   S3        1.0  0.9999981233253336  0.044000382051628185  0.2449146250259275  1.0000
  S   S4        1.0  1.3641889964000006e-06  0.9560003121971903  0.7550851703855841  1.0000
  N   N1        1.0  0.20368575995019714  0.5000022369242387  0.5000020278493196  1.0000
  N   N2        1.0  0.2963132504274526  5.861127619e-07  1.422063036e-07  1.0000
  N   N3        1.0  0.7963166610750819  0.49999845730800974  0.5000015548183825  1.0000
  N   N4        1.0  0.7036849020388516  3.210216640099998e-06  0.9999992095622191  1.0000
  N   N5        1.0  0.5000014847200661  0.1743305845889225  0.5051804536753295  1.0000
  N   N6        1.0  0.5000009363111316  0.8256663957758474  0.4948200991925233  1.0000
  N   N7        1.0  1.1929349242000005e-06  0.67433068330741  0.994819457278787  1.0000
  N   N8        1.0  0.9999982945815377  0.3256675350324442  0.0051773083315467  1.0000
  O   O1        1.0  0.5000003814743224  0.4436847732702913  0.3511623600044587  1.0000
  O   O2        1.0  0.500000572792068  0.5563159209752938  0.6488374354077493  1.0000
  O   O3        1.0  0.999998125924776  0.9436845193588111  0.1488385819181204  1.0000
  O   O4        1.0  0.9999977115781534  0.0563152130070179  0.8511601785116767  1.0000
  O   O5        1.0  0.31979589365852945  0.6407709280617482  0.2441940808759284  1.0000
  O   O6        1.0  0.3198006123142108  0.3592317969834227  0.75580402666656  1.0000
  O   O7        1.0  0.18019785348491982  0.14076966029960403  0.2558062726742918  1.0000
  O   O8        1.0  0.18020533207420897  0.8592299650483568  0.7441939732336635  1.0000
  O   O9        1.0  0.6802050606116551  0.35922852822531576  0.7558057145376083  1.0000
  O   O10       1.0  0.6802003419494439  0.6407688972662057  0.24419425384373744  1.0000
  O   O11       1.0  0.8198016340318474  0.8592297959927108  0.744192765287579  1.0000
  O   O12       1.0  0.8197956221883872  0.14077196715575716  0.2558058221772228  1.0000
