data_image0
_chemical_formula_structural       Dy2H50C72N4O16
_chemical_formula_sum              "Dy2 H50 C72 N4 O16"
_cell_length_a       9.768946242358183
_cell_length_b       12.389022219512686
_cell_length_c       13.559
_cell_angle_alpha    73.78743003926706
_cell_angle_beta     84.27403114946698
_cell_angle_gamma    78.81354902687235

_space_group_name_H-M_alt    "P 1"
_space_group_IT_number       1

loop_
  _space_group_symop_operation_xyz
  'x, y, z'

loop_
  _atom_site_type_symbol
  _atom_site_label
  _atom_site_symmetry_multiplicity
  _atom_site_fract_x
  _atom_site_fract_y
  _atom_site_fract_z
  _atom_site_occupancy
  Dy  Dy1       1.0  0.6142453026903283  0.119673840940024  0.45660494879878405  1.0000
  Dy  Dy2       1.0  0.38575304228201196  0.880326882315103  0.5433948381556206  1.0000
  H   H1        1.0  0.9235410332940859  0.0400167594866474  0.57799518124569  1.0000
  H   H2        1.0  0.07645664622950221  0.9599822565688427  0.42200582658411895  1.0000
  H   H3        1.0  0.0868343264083649  0.108948359221813  0.6648882722882876  1.0000
  H   H4        1.0  0.9131633531152303  0.8910506568336771  0.3351134730590389  1.0000
  H   H5        1.0  0.04717675913557434  0.3186488122091475  0.6607973231349862  1.0000
  H   H6        1.0  0.9528195282667014  0.6813519110459794  0.33920334924024337  1.0000
  H   H7        1.0  0.4468237465901339  0.3628550396045043  0.30145084398840544  1.0000
  H   H8        1.0  0.5531756271672422  0.6371456836506226  0.6985481314968283  1.0000
  H   H9        1.0  0.40598919125515204  0.5769208020631424  0.2613828604167807  1.0000
  H   H10       1.0  0.5940091537171882  0.42307992119197735  0.7386176640551413  1.0000
  H   H11       1.0  0.5437017575241117  0.6689277656891477  0.3517488363208372  1.0000
  H   H12       1.0  0.45629882668644234  0.3310721039661573  0.6482510074333734  1.0000
  H   H13       1.0  0.7280213710733179  0.643460615107152  0.4776050044161195  1.0000
  H   H14       1.0  0.27197715556716423  0.3565392545481529  0.5223949872414055  1.0000
  H   H15       1.0  0.9087783895567513  0.5156587966963144  0.5921086910228297  1.0000
  H   H16       1.0  0.09121807951366631  0.4843410729589905  0.4078936610905473  1.0000
  H   H17       1.0  0.8055360368167613  0.1791577978851251  0.10201245094130942  1.0000
  H   H18       1.0  0.19446491073006908  0.8208403645705431  0.8979878022191415  1.0000
  H   H19       1.0  0.04723054642874299  0.0714983743891011  0.24942480930148042  1.0000
  H   H20       1.0  0.9527712482349813  0.928500641666389  0.7505751652042039  1.0000
  H   H21       1.0  0.27878438434991887  0.07992852619563  0.17310315483481994  1.0000
  H   H22       1.0  0.7212160181924929  0.9200721970594969  0.8268957466987604  1.0000
  H   H23       1.0  0.44544897459825  0.0964200746871384  0.0217899788905811  1.0000
  H   H24       1.0  0.5545516096122967  0.9035797949681665  0.9782091273461192  1.0000
  H   H25       1.0  0.1037568392066603  0.1468848959510112  0.8257823281987842  1.0000
  H   H26       1.0  0.8962439266720352  0.853114120104479  0.17421698274102945  1.0000
  H   H27       1.0  0.9377804496084607  0.1346843937466033  0.9751138944313595  1.0000
  H   H28       1.0  0.0622199529339511  0.8653163295085163  0.02488500710222039  1.0000
  H   H29       1.0  0.4800780585076226  0.1604349394683169  0.8232346875264867  1.0000
  H   H30       1.0  0.5199223440347823  0.8395657837868099  0.17676495152461055  1.0000
  H   H31       1.0  0.27177506444294863  0.0489923615771346  0.7459234960655438  1.0000
  H   H32       1.0  0.7282255197675979  0.9510075080781775  0.2540778227237012  1.0000
  H   H33       1.0  0.9429933906053598  0.812642391914622  0.6331814053749056  1.0000
  H   H34       1.0  0.0570078590539396  0.1873591849403198  0.3668150049513486  1.0000
  H   H35       1.0  0.7437969316841944  0.6409074980503107  0.7241007339933532  1.0000
  H   H36       1.0  0.25620431797510435  0.35909407880463107  0.27589862640297014  1.0000
  H   H37       1.0  0.8288699320238565  0.4731426969413874  0.8562054488828962  1.0000
  H   H38       1.0  0.17113010718227176  0.5268597335133762  0.1437945182794707  1.0000
  H   H39       1.0  0.015205704581021016  0.354494882983083  0.9695455983075761  1.0000
  H   H40       1.0  0.984793850844497  0.645504986672222  0.030455056915805263  1.0000
  H   H41       1.0  0.2969432714856239  0.5850410971355942  0.8175642712749891  1.0000
  H   H42       1.0  0.7030593702949872  0.4149587725197108  0.1824361620934312  1.0000
  H   H43       1.0  0.11492568751780406  0.699700892742328  0.7018479111367811  1.0000
  H   H44       1.0  0.8850783463841267  0.3002972697133401  0.2981513826511986  1.0000
  H   H45       1.0  0.24196914827352606  0.331859122998722  0.040625457227619684  1.0000
  H   H46       1.0  0.7580304071519921  0.668140746656583  0.9593751979957617  1.0000
  H   H47       1.0  0.45665777720657275  0.4514373607590869  0.887880203562851  1.0000
  H   H48       1.0  0.5433421415552218  0.5485608016965884  0.11211938603173621  1.0000
  H   H49       1.0  0.5511001700290805  0.2384838388638215  0.17168323926899384  1.0000
  H   H50       1.0  0.44890077751774976  0.7615143235918467  0.8283170138914572  1.0000
  C   C1        1.0  0.9101027525243598  0.1302337242934613  0.5751412737487627  1.0000
  C   C2        1.0  0.0898949269992286  0.869765291762029  0.42486120911608083  1.0000
  C   C3        1.0  0.0011149991676404998  0.1702470693808351  0.6253102993108897  1.0000
  C   C4        1.0  0.998881469902777  0.8297528002744697  0.3746913152849701  1.0000
  C   C5        1.0  0.9798049715139997  0.2847165122280657  0.6217134917900466  1.0000
  C   C6        1.0  0.020192526341446596  0.7152833574272394  0.37828804885416645  1.0000
  C   C7        1.0  0.8705521233589409  0.3600629145985152  0.5637061048958998  1.0000
  C   C8        1.0  0.1294443457114767  0.6399369550567897  0.43629550969995995  1.0000
  C   C9        1.0  0.7856741256893045  0.3120240240185339  0.5141231758284022  1.0000
  C   C10       1.0  0.2143244009511776  0.6879758456367709  0.4858768158291228  1.0000
  C   C11       1.0  0.6789260887667582  0.3863324490098137  0.448899849364075  1.0000
  C   C12       1.0  0.32107346665875985  0.6136674206454984  0.5511000683417963  1.0000
  C   C13       1.0  0.5065614304632433  0.406180351987274  0.33708787541816315  1.0000
  C   C14       1.0  0.4934379432941327  0.5938203712678529  0.6629111000670704  1.0000
  C   C15       1.0  0.4848414174250308  0.5258601681260231  0.3150149059610214  1.0000
  C   C16       1.0  0.5151579563323452  0.4741405551291038  0.6849848070417295  1.0000
  C   C17       1.0  0.5618813555759916  0.5764453469642987  0.36367827596089347  1.0000
  C   C18       1.0  0.4381178365132501  0.4235562298906501  0.6363212323387374  1.0000
  C   C19       1.0  0.6629220637162305  0.5064663802519505  0.43254249925814037  1.0000
  C   C20       1.0  0.33707852049431614  0.4935334894033545  0.5674573444960773  1.0000
  C   C21       1.0  0.7463937595822542  0.5515321826644382  0.4870140396583339  1.0000
  C   C22       1.0  0.2536056141751218  0.4484685405906887  0.5129849358268999  1.0000
  C   C23       1.0  0.8455542489549616  0.4808455817026385  0.5508543155902998  1.0000
  C   C24       1.0  0.15444306723234294  0.5191551415524813  0.44914628283327573  1.0000
  C   C25       1.0  0.775809627346213  0.1359699150731188  0.2690263515402408  1.0000
  C   C26       1.0  0.22419216731751132  0.8640291009823713  0.7309736229654364  1.0000
  C   C27       1.0  0.8607608137700639  0.1395601559093151  0.17289264887077854  1.0000
  C   C28       1.0  0.13924098089366052  0.8604388601461749  0.8271080631524158  1.0000
  C   C29       1.0  0.00041363081308530125  0.1030252300819257  0.1745334294470808  1.0000
  C   C30       1.0  0.9995879821825042  0.8969746395733792  0.8254663403554762  1.0000
  C   C31       1.0  0.09633233402222881  0.1061579414154608  0.08529279163534649  1.0000
  C   C32       1.0  0.9036692789733536  0.8938419282398513  0.9147069781672104  1.0000
  C   C33       1.0  0.2408363515040861  0.0937064808644408  0.09673821530900992  1.0000
  C   C34       1.0  0.7591644143746094  0.9062925351910495  0.9032610956308033  1.0000
  C   C35       1.0  0.3344558775202345  0.1031515628550466  0.011701145672397203  1.0000
  C   C36       1.0  0.6655436779052765  0.8968483068002584  0.988298772033467  1.0000
  C   C37       1.0  0.28727376330048326  0.1205052471631447  0.9128516174938355  1.0000
  C   C38       1.0  0.7127270025782052  0.8794937688923454  0.08714769344598487  1.0000
  C   C39       1.0  0.14274201821024948  0.1308440481636168  0.9019707481682674  1.0000
  C   C40       1.0  0.8572587476684393  0.8691549678918732  0.09802856277154598  1.0000
  C   C41       1.0  0.0490389487528731  0.12468703267349211  0.9859493239888979  1.0000
  C   C42       1.0  0.9509618171258154  0.8753119833819979  0.01405072446843284  1.0000
  C   C43       1.0  0.38408844798976116  0.1273605073047221  0.8229428104298793  1.0000
  C   C44       1.0  0.6159123178889345  0.8726385087507681  0.17705723802745146  1.0000
  C   C45       1.0  0.36087908756462644  0.09119775099816252  0.7420223466251415  1.0000
  C   C46       1.0  0.6391204678608915  0.9088021186571497  0.25797830859823995  1.0000
  C   C47       1.0  0.45125255692608596  0.0971200265382279  0.648050200891845  1.0000
  C   C48       1.0  0.548746998499425  0.9028798431170771  0.3519504543315436  1.0000
  C   C49       1.0  0.72341570381829  0.8515264244422482  0.597557184052775  1.0000
  C   C50       1.0  0.2765846987241218  0.1484742988128787  0.4024424549983223  1.0000
  C   C51       1.0  0.8481624848978984  0.7752547198686486  0.6469694986969189  1.0000
  C   C52       1.0  0.15183876476140776  0.2247468569862932  0.35302838666437  1.0000
  C   C53       1.0  0.8438264987821216  0.6706324045264935  0.7110950647668234  1.0000
  C   C54       1.0  0.15617699011539096  0.3293683187286263  0.28890361491178856  1.0000
  C   C55       1.0  0.9578667033727726  0.595752921256711  0.77041957598194  1.0000
  C   C56       1.0  0.042135575071561994  0.4042486555982308  0.22957897294520538  1.0000
  C   C57       1.0  0.9328412835547156  0.4961122144547474  0.8456125874198721  1.0000
  C   C58       1.0  0.06715893731955447  0.5038893624002014  0.15438758444561526  1.0000
  C   C59       1.0  0.037428961955782804  0.4295442326167347  0.9099454444521771  1.0000
  C   C60       1.0  0.9625714405866291  0.5704564906383922  0.09005419459891333  1.0000
  C   C61       1.0  0.17102978905055014  0.45921621590417766  0.900882740551694  1.0000
  C   C62       1.0  0.8289720056131744  0.5407828001513124  0.09911797147150024  1.0000
  C   C63       1.0  0.19637950164720053  0.5576618829603817  0.8240338262535901  1.0000
  C   C64       1.0  0.803621264231488  0.4423371330951085  0.1759662222037406  1.0000
  C   C65       1.0  0.09293696571537419  0.6235350345462152  0.7597630921446311  1.0000
  C   C66       1.0  0.9070660394015208  0.3764631279094602  0.2402370131125124  1.0000
  C   C67       1.0  0.2773988697196046  0.39192352782033874  0.9717585235439473  1.0000
  C   C68       1.0  0.7226027432759777  0.6080763418349662  0.028241983776126623  1.0000
  C   C69       1.0  0.414977540994883  0.3973652266626432  0.9577092000326104  1.0000
  C   C70       1.0  0.5850221960987767  0.60263378939284  0.04229165989389118  1.0000
  C   C71       1.0  0.5222363465681781  0.3282654677632522  0.029024805282112723  1.0000
  C   C72       1.0  0.47777543383340787  0.6717301338929573  0.9709731099186103  1.0000
  N   N1        1.0  0.8038756012429431  0.198275873017856  0.5224688431959947  1.0000
  N   N2        1.0  0.19612189661250312  0.8017239966374561  0.47753122241318374  1.0000
  N   N3        1.0  0.5992029824605468  0.3377634729426049  0.4028761314973792  1.0000
  N   N4        1.0  0.4007963912968294  0.662237250312522  0.5971228439878545  1.0000
  O   O1        1.0  0.828580882233446  0.0884150155901722  0.3565564340987352  1.0000
  O   O2        1.0  0.17141970197710785  0.9115848540651328  0.6434441471729926  1.0000
  O   O3        1.0  0.6450552588663429  0.1813165518258586  0.2659446128174352  1.0000
  O   O4        1.0  0.354944478227317  0.8186824642296315  0.7340555095915563  1.0000
  O   O5        1.0  0.7351499110996828  0.9566890684694513  0.5621409822306803  1.0000
  O   O6        1.0  0.26484964432583524  0.0433108011858536  0.4378596729927082  1.0000
  O   O7        1.0  0.6145818653118698  0.8098903861000933  0.5943840917914258  1.0000
  O   O8        1.0  0.38541974768371284  0.1901094835552115  0.4056156780111309  1.0000
  O   O9        1.0  0.6481105324613098  0.3157201112322099  0.0021423617219226915  1.0000
  O   O10       1.0  0.3518840607071852  0.6842789048232732  0.9978596054803645  1.0000
  O   O11       1.0  0.47189898468758434  0.2813567433428403  0.12385337485485343  1.0000
  O   O12       1.0  0.5281023261955298  0.7186397119131982  0.876147287711838  1.0000
  O   O13       1.0  0.5345801118651465  0.1684152441705464  0.6183172992197186  1.0000
  O   O14       1.0  0.4654194435603713  0.8315846254847585  0.38168261848615254  1.0000
  O   O15       1.0  0.44159920990953355  0.0292818881704306  0.5934911119886622  1.0000
  O   O16       1.0  0.5584005271841193  0.9707171278850595  0.4065097479378467  1.0000
