data_image0
_chemical_formula_structural       Zn4H40C56N8O16
_chemical_formula_sum              "Zn4 H40 C56 N8 O16"
_cell_length_a       7.436725739864604
_cell_length_b       10.228441155077956
_cell_length_c       16.354868261717606
_cell_angle_alpha    89.99986967972698
_cell_angle_beta     92.63619931318466
_cell_angle_gamma    90.00043440932606

_space_group_name_H-M_alt    "P 1"
_space_group_IT_number       1

loop_
  _space_group_symop_operation_xyz
  'x, y, z'

loop_
  _atom_site_type_symbol
  _atom_site_label
  _atom_site_symmetry_multiplicity
  _atom_site_fract_x
  _atom_site_fract_y
  _atom_site_fract_z
  _atom_site_occupancy
  Zn  Zn1       1.0  0.13375456079818804  0.1693371284697917  0.49654236093221726  1.0000
  Zn  Zn2       1.0  0.3662359344176381  0.6693385831306741  0.0034575083842299068  1.0000
  Zn  Zn3       1.0  0.8662404678811341  0.8306647460934043  0.5034576288777686  1.0000
  Zn  Zn4       1.0  0.6337631445013941  0.3306603584463872  0.9965419712242748  1.0000
  H   H1        1.0  0.797628825772385  0.10799602340667036  0.645809731378705  1.0000
  H   H2        1.0  0.7023819137956265  0.6079953366463896  0.8541909947791524  1.0000
  H   H3        1.0  0.2023715628762375  0.8920058511689889  0.3541916153625166  1.0000
  H   H4        1.0  0.2976239196050797  0.3920075156155676  0.14580743076781746  1.0000
  H   H5        1.0  0.18170051846929883  0.7948143710595229  0.7293164798934555  1.0000
  H   H6        1.0  0.3183023165408301  0.2948059339939348  0.7706861808888519  1.0000
  H   H7        1.0  0.8182985483636854  0.2051894588468456  0.2706836108726876  1.0000
  H   H8        1.0  0.6816967139137236  0.7051890969143669  0.22931574336490002  1.0000
  H   H9        1.0  0.6915790954891465  0.9235448948934533  0.8322950466819777  1.0000
  H   H10       1.0  0.8084254570829189  0.42353774309892595  0.6677050480675675  1.0000
  H   H11       1.0  0.3084199592227037  0.07645697967964077  0.1677056552460883  1.0000
  H   H12       1.0  0.19157501632842872  0.5764611984862428  0.3322920205506108  1.0000
  H   H13       1.0  0.5159641928704132  0.04239199713312299  0.5871738345766175  1.0000
  H   H14       1.0  0.9840418480185563  0.5423916862285835  0.9128262617609124  1.0000
  H   H15       1.0  0.48403352790466414  0.957609877437413  0.4128262225382926  1.0000
  H   H16       1.0  0.01596129327636221  0.4576092106938673  0.0871720964823623  1.0000
  H   H17       1.0  0.0546649623166999  0.0742467613634403  0.7179828701908306  1.0000
  H   H18       1.0  0.44534368751414644  0.5742476740223452  0.782020269194817  1.0000
  H   H19       1.0  0.945331376067145  0.9257531578679372  0.28201898675493453  1.0000
  H   H20       1.0  0.5546607513892358  0.42575420056542157  0.2179805673430906  1.0000
  H   H21       1.0  0.9547636647680732  0.9345327658719284  0.7579434270371977  1.0000
  H   H22       1.0  0.5452383205210224  0.4345336716586487  0.7420559754577667  1.0000
  H   H23       1.0  0.0452327341813472  0.06546910869715819  0.242055374103856  1.0000
  H   H24       1.0  0.4547594002490457  0.5654672252458041  0.2579440816577545  1.0000
  H   H25       1.0  0.2195042715565876  0.02093874736400639  0.8598637141723487  1.0000
  H   H26       1.0  0.28049979354299387  0.5209372909851879  0.6401393911304609  1.0000
  H   H27       1.0  0.7804947831452438  0.9790611718769211  0.1401369877569465  1.0000
  H   H28       1.0  0.7194965206236505  0.47906360591005653  0.35986368813608044  1.0000
  H   H29       1.0  0.25095803133601174  0.1191077959319671  0.0014361973387977  1.0000
  H   H30       1.0  0.24904669485950853  0.6191127256655307  0.4985671609669923  1.0000
  H   H31       1.0  0.7490450857116288  0.880888212657851  0.998563383228941  1.0000
  H   H32       1.0  0.7509456174918016  0.3808871935559494  0.5014339838606929  1.0000
  H   H33       1.0  0.9902214649778502  0.2435881525979298  0.0533623786716362  1.0000
  H   H34       1.0  0.5097740336193723  0.7435987836348871  0.44664487247829504  1.0000
  H   H35       1.0  0.009781567282011799  0.7564059006519624  0.9466414800222083  1.0000
  H   H36       1.0  0.49021563508061666  0.2564011355836939  0.5533537604016843  1.0000
  H   H37       1.0  0.6942195252960346  0.19757894927465708  0.833966699954729  1.0000
  H   H38       1.0  0.805788070435355  0.6975824301509945  0.6660350351858426  1.0000
  H   H39       1.0  0.30578484091061864  0.8024170593099598  0.16603780355104195  1.0000
  H   H40       1.0  0.194213724821708  0.3024204220999564  0.33396328940374087  1.0000
  C   C1        1.0  0.3341351492990157  0.9202807740989911  0.6513325348791668  1.0000
  C   C2        1.0  0.16587171267240564  0.4202712185171364  0.8486675911727133  1.0000
  C   C3        1.0  0.6658625593799955  0.0797240334686862  0.3486681333945968  1.0000
  C   C4        1.0  0.8341327867614583  0.5797257677457565  0.15133018956477434  1.0000
  C   C5        1.0  0.3043423065178957  0.8508564966417609  0.723188632429981  1.0000
  C   C6        1.0  0.19565843523387375  0.35084931416881904  0.7768126684223233  1.0000
  C   C7        1.0  0.6956540561032085  0.14914635559007647  0.27681200219254987  1.0000
  C   C8        1.0  0.8043419897180046  0.649146694413666  0.223186844840491  1.0000
  C   C9        1.0  0.43385643287294323  0.8534671104192028  0.7875857946134346  1.0000
  C   C10       1.0  0.0661456816862227  0.35345845961268196  0.7124155366173213  1.0000
  C   C11       1.0  0.5661385958113884  0.1465357418100837  0.21241419519594024  1.0000
  C   C12       1.0  0.9338560771874002  0.6465346159741118  0.2875846214604891  1.0000
  C   C13       1.0  0.593653262062695  0.9239787981470396  0.780755462552463  1.0000
  C   C14       1.0  0.9063499246950145  0.4239729849873227  0.7192458203208574  1.0000
  C   C15       1.0  0.40634310054838363  0.07602209875263098  0.21924517207129673  1.0000
  C   C16       1.0  0.09365184630474493  0.5760230235988288  0.280753726594412  1.0000
  C   C17       1.0  0.6239072332422779  0.9957201451873063  0.7090759870356466  1.0000
  C   C18       1.0  0.8760993569722048  0.49571586763902786  0.790926495465989  1.0000
  C   C19       1.0  0.37609182147458853  0.0042827070518712  0.2909247148918083  1.0000
  C   C20       1.0  0.12390373586825383  0.5042830739468227  0.2090743074212966  1.0000
  C   C21       1.0  0.4926815058493191  0.9912421854156077  0.6441309657898346  1.0000
  C   C22       1.0  0.007326023175565402  0.49123857014362915  0.8558721270431704  1.0000
  C   C23       1.0  0.5073161907035484  0.008759689152711298  0.35587031364647  1.0000
  C   C24       1.0  0.9926784278288993  0.5087613491130796  0.14412809833526552  1.0000
  C   C25       1.0  0.1926468524863409  0.9195335646496045  0.5835646246905455  1.0000
  C   C26       1.0  0.3073627423768386  0.4195265095354941  0.916433124959248  1.0000
  C   C27       1.0  0.8073535967378761  0.08047222059592939  0.4164336662447425  1.0000
  C   C28       1.0  0.6926471291574928  0.5804743874052962  0.0835654015463305  1.0000
  C   C29       1.0  0.3951276230998674  0.7805720862873213  0.8636124638353807  1.0000
  C   C30       1.0  0.1048778548979499  0.28056978344793043  0.6363853928288776  1.0000
  C   C31       1.0  0.6048700976601821  0.21942685528496503  0.1363875932813698  1.0000
  C   C32       1.0  0.8951226063972799  0.7194281804700466  0.36361228695061243  1.0000
  C   C33       1.0  0.9383632678060322  0.0414650727312633  0.7513980402514875  1.0000
  C   C34       1.0  0.5616400472570362  0.5414639780612587  0.7486032122657988  1.0000
  C   C35       1.0  0.06163440451960161  0.9585358241687555  0.24860446150682242  1.0000
  C   C36       1.0  0.43836037771488623  0.4585359411855519  0.251396300994557  1.0000
  C   C37       1.0  0.9535493182384657  0.10062647328741998  0.8362012017442241  1.0000
  C   C38       1.0  0.5464532452829544  0.6006304812031188  0.6638005540621705  1.0000
  C   C39       1.0  0.04645107038510331  0.899370512957816  0.1638001450000672  1.0000
  C   C40       1.0  0.45354579732280353  0.3993723710349499  0.336200759025985  1.0000
  C   C41       1.0  0.11110877475098851  0.07856204275754658  0.884536239301781  1.0000
  C   C42       1.0  0.3888932375465828  0.5785661617941285  0.6154642817633872  1.0000
  C   C43       1.0  0.8888889581101368  0.9214349434836819  0.11546320665549102  1.0000
  C   C44       1.0  0.6111017547943975  0.421434735099666  0.384537541529305  1.0000
  C   C45       1.0  0.12875746731812404  0.1311799425933771  0.9627708755182669  1.0000
  C   C46       1.0  0.37124094944246616  0.6311832614564421  0.5372343678682725  1.0000
  C   C47       1.0  0.8712428970782186  0.8688160659835659  0.03723169354803701  1.0000
  C   C48       1.0  0.6287540550096226  0.36881763543846086  0.4627668442637258  1.0000
  C   C49       1.0  0.9866605910446469  0.20330664928496836  0.9918062435906521  1.0000
  C   C50       1.0  0.5133376168759796  0.7033139542727225  0.5081964711164915  1.0000
  C   C51       1.0  0.013339785457787903  0.7966883816269997  0.008195714315562  1.0000
  C   C52       1.0  0.4866547439197718  0.29668596495319827  0.4918022290684051  1.0000
  C   C53       1.0  0.818453268887609  0.17571861743716247  0.8693347131847133  1.0000
  C   C54       1.0  0.6815527808828108  0.6757225124172166  0.6306657934047735  1.0000
  C   C55       1.0  0.1815498239478472  0.824279346482605  0.13066608970319044  1.0000
  C   C56       1.0  0.31844496411448386  0.3242793621555364  0.36933304138873524  1.0000
  N   N1        1.0  0.8339575083925723  0.22493423595471276  0.9460977548058551  1.0000
  N   N2        1.0  0.6660436375705315  0.7249363597963876  0.5539037777570002  1.0000
  N   N3        1.0  0.16605098074050062  0.7750627503147526  0.0539025715318004  1.0000
  N   N4        1.0  0.3339514395381826  0.27506258177299964  0.4460937674120303  1.0000
  N   N5        1.0  0.7767660068917337  0.07089930437864919  0.7023175343425265  1.0000
  N   N6        1.0  0.7232403020596153  0.5708979542824721  0.7976837485556132  1.0000
  N   N7        1.0  0.2232316775450087  0.9291015925224779  0.2976843562550897  1.0000
  N   N8        1.0  0.27676148106128545  0.4291000096369544  0.2023151871977333  1.0000
  O   O1        1.0  0.21681866929371552  0.984670749547014  0.5180874231448485  1.0000
  O   O2        1.0  0.28320233759527724  0.4846643079034008  0.981911736333295  1.0000
  O   O3        1.0  0.7831898319905619  0.015334058052225397  0.4819122920272108  1.0000
  O   O4        1.0  0.7168034715581515  0.5153336560259162  0.018087911538131607  1.0000
  O   O5        1.0  0.05158090765603159  0.8515775397466212  0.595045654765329  1.0000
  O   O6        1.0  0.4484239765210701  0.35157032855639153  0.9049508568542706  1.0000
  O   O7        1.0  0.9484182076213872  0.14842629016418127  0.4049519913580256  1.0000
  O   O8        1.0  0.5515832513669423  0.6484315460475755  0.0950451577029838  1.0000
  O   O9        1.0  0.24054881760535102  0.7319923952392244  0.8710171573119325  1.0000
  O   O10       1.0  0.2594588665136328  0.23199195216496807  0.628980216436922  1.0000
  O   O11       1.0  0.7594488547403274  0.2680124123251275  0.128985344443926  1.0000
  O   O12       1.0  0.7405456692836339  0.7680109000977495  0.3710157308147899  1.0000
  O   O13       1.0  0.5202247949669215  0.7672682516787148  0.9209921184868792  1.0000
  O   O14       1.0  0.9797835879335252  0.26726529389495096  0.5790058622707335  1.0000
  O   O15       1.0  0.4797796923407986  0.23272580158482  0.0790062734131496  1.0000
  O   O16       1.0  0.020215490970471702  0.7327307146838605  0.4209936173396187  1.0000
