data_image0
_chemical_formula_structural       AlC27N7O6F12
_chemical_formula_sum              "Al1 C27 N7 O6 F12"
_cell_length_a       3.967987675917675
_cell_length_b       18.183000632825973
_cell_length_c       18.160726609620678
_cell_angle_alpha    120.68641775573526
_cell_angle_beta     97.88990916438682
_cell_angle_gamma    95.56577440311365

_space_group_name_H-M_alt    "P 1"
_space_group_IT_number       1

loop_
  _space_group_symop_operation_xyz
  'x, y, z'

loop_
  _atom_site_type_symbol
  _atom_site_label
  _atom_site_symmetry_multiplicity
  _atom_site_fract_x
  _atom_site_fract_y
  _atom_site_fract_z
  _atom_site_occupancy
  Al  Al1       1.0  0.0074441702032359515  0.0007083969137652969  0.497401269027037  1.0000
  C   C1        1.0  0.49745434217871326  0.065612296870512  0.432706009665722  1.0000
  C   C2        1.0  0.6139956168637114  0.06741598346489039  0.6318513763309426  1.0000
  C   C3        1.0  0.41191370474445693  0.8671300408970878  0.4294548012806346  1.0000
  C   C4        1.0  0.5476871844398945  0.2481108645196529  0.3870106645420819  1.0000
  C   C5        1.0  0.5085449359135908  0.2031663932007675  0.295024827686774  1.0000
  C   C6        1.0  0.6531409731040513  0.1184261574652936  0.8646118776803035  1.0000
  C   C7        1.0  0.6664371114255517  0.20955822776437566  0.9134687314121449  1.0000
  C   C8        1.0  0.3739570936429147  0.586494575437385  0.28783855443085576  1.0000
  C   C9        1.0  0.37507681322939135  0.6339420358424164  0.2455700271661811  1.0000
  C   C10       1.0  0.6813238076361189  0.2522468293615105  0.8665874829668424  1.0000
  C   C11       1.0  0.670666960978359  0.2059603264542318  0.7768450628421988  1.0000
  C   C12       1.0  0.6567491262729562  0.1159505492553308  0.7294275459363319  1.0000
  C   C13       1.0  0.6539727505545018  0.07340742679859602  0.7752138860567754  1.0000
  C   C14       1.0  0.3819324019942698  0.7233757513238005  0.2915124881842744  1.0000
  C   C15       1.0  0.37662852944215797  0.7702297243566747  0.3807609520126222  1.0000
  C   C16       1.0  0.3635798267497067  0.7238269180390873  0.42267519359607053  1.0000
  C   C17       1.0  0.36719613938840473  0.6346779457181668  0.3780995219617865  1.0000
  C   C18       1.0  0.46385778608497946  0.11141337520358262  0.24963395212319736  1.0000
  C   C19       1.0  0.45526518190825277  0.0675055278655066  0.2939548522626723  1.0000
  C   C20       1.0  0.496914002792039  0.1127628230379614  0.3849556793912825  1.0000
  C   C21       1.0  0.5446244705714421  0.20354138818030518  0.4306815781745854  1.0000
  C   C22       1.0  0.41086847358724304  0.37002152240351904  0.24545094123664066  1.0000
  C   C23       1.0  0.6254889927914535  0.2527239611813812  0.12986677773177047  1.0000
  C   C24       1.0  0.5132344566224916  0.2501464576315584  0.24845930089234267  1.0000
  C   C25       1.0  0.3955978343811354  0.4930679032931947  0.24099748681953767  1.0000
  C   C26       1.0  0.522547344146176  0.3778603580434349  0.12142022274979783  1.0000
  C   C27       1.0  0.6466751113604162  0.2570357314127704  0.0069615143826525375  1.0000
  N   N1        1.0  0.5198868921017237  0.3334472886455799  0.16569398833687646  1.0000
  N   N2        1.0  0.6378224121510955  0.21349475935402043  0.17496371165202623  1.0000
  N   N3        1.0  0.39189392400812306  0.32480322434368963  0.28428699837336074  1.0000
  N   N4        1.0  0.3267161741832467  0.4487775978274016  0.2799140652981791  1.0000
  N   N5        1.0  0.48549376312002596  0.46063380342206284  0.16305824883326647  1.0000
  N   N6        1.0  0.7114799758746673  0.21756861432148614  0.05169989752258896  1.0000
  N   N7        1.0  0.5613159251633705  0.33587932834756623  0.03886214695175029  1.0000
  O   O1        1.0  0.21377913265796172  0.902525692951521  0.4815092329600859  1.0000
  O   O2        1.0  0.2231931249306953  0.0119493055001456  0.4143264673521543  1.0000
  O   O3        1.0  0.3692917894593108  0.0828804912633316  0.5918556608250185  1.0000
  O   O4        1.0  0.6465818890528823  0.9071839932982897  0.41425784637596763  1.0000
  O   O5        1.0  0.815198991663216  0.0157444907081654  0.5963241428328914  1.0000
  O   O6        1.0  0.7742377764256645  0.08345604088045631  0.4878662554030129  1.0000
  F   F1        1.0  0.41261289501204623  0.9798543628671866  0.2476339713633992  1.0000
  F   F2        1.0  0.4159325192068978  0.06251651785787972  0.1620460736942135  1.0000
  F   F3        1.0  0.5838990469731301  0.24948752085823148  0.5186038266274551  1.0000
  F   F4        1.0  0.6023239053600662  0.3354250199964782  0.4364787345990848  1.0000
  F   F5        1.0  0.37560206244963024  0.598243433388106  0.42633407674217955  1.0000
  F   F6        1.0  0.3655136177257818  0.765516684026956  0.5089190330168877  1.0000
  F   F7        1.0  0.36651373496132333  0.596270681354035  0.15975580209135407  1.0000
  F   F8        1.0  0.3859100860988819  0.7639516890421802  0.24697422609357744  1.0000
  F   F9        1.0  0.6245677342206193  0.07006144097912428  0.9004734143027446  1.0000
  F   F10       1.0  0.6320663837067927  0.9864260919403023  0.7323461489677783  1.0000
  F   F11       1.0  0.7109651615527853  0.3386590038689263  0.905411032771184  1.0000
  F   F12       1.0  0.6818317094680212  0.2503908032063151  0.7361779898289811  1.0000
