data_image0
_chemical_formula_structural       Tl4H16C28N12O4
_chemical_formula_sum              "Tl4 H16 C28 N12 O4"
_cell_length_a       4.152005120831522
_cell_length_b       12.00135663108141
_cell_length_c       17.010470493252818
_cell_angle_alpha    89.99964543392242
_cell_angle_beta     94.90913259012578
_cell_angle_gamma    90.00024457040398

_space_group_name_H-M_alt    "P 1"
_space_group_IT_number       1

loop_
  _space_group_symop_operation_xyz
  'x, y, z'

loop_
  _atom_site_type_symbol
  _atom_site_label
  _atom_site_symmetry_multiplicity
  _atom_site_fract_x
  _atom_site_fract_y
  _atom_site_fract_z
  _atom_site_occupancy
  Tl  Tl1       1.0  0.3996141901996922  0.5351854353883498  0.6118615398019784  1.0000
  Tl  Tl2       1.0  0.10038312274700441  0.0351838775847142  0.8881405415100474  1.0000
  Tl  Tl3       1.0  0.600381518353821  0.46481201006202627  0.38813893635514063  1.0000
  Tl  Tl4       1.0  0.8996173537691947  0.964819400547711  0.11185884246678772  1.0000
  H   H1        1.0  0.537518421397543  0.04681339588343291  0.5770907990518523  1.0000
  H   H2        1.0  0.9624674311915984  0.5468148228565967  0.9229102781663556  1.0000
  H   H3        1.0  0.46247483689979424  0.9531857160462424  0.4229090461651666  1.0000
  H   H4        1.0  0.037516092348695906  0.4531851223112683  0.07708822032310543  1.0000
  H   H5        1.0  0.3372592907389207  0.9795364387515736  0.6998325590088259  1.0000
  H   H6        1.0  0.16273114482390136  0.47954240330982156  0.8001692355809668  1.0000
  H   H7        1.0  0.6627339012332956  0.020458506987537803  0.30016610919607  1.0000
  H   H8        1.0  0.8372645637535572  0.5204592083362131  0.19983124056752646  1.0000
  H   H9        1.0  0.6536636350822321  0.264525292172472  0.8224314107290313  1.0000
  H   H10       1.0  0.8463417729860157  0.764533699999838  0.6775714159311903  1.0000
  H   H11       1.0  0.34632243815161706  0.7354704867910374  0.17756948423683383  1.0000
  H   H12       1.0  0.15366837198126865  0.23546791166036476  0.3224281377541729  1.0000
  H   H13       1.0  0.876533817368433  0.3438328372585531  0.7031774241963262  1.0000
  H   H14       1.0  0.6234677677015483  0.8438382234010721  0.7968267547274694  1.0000
  H   H15       1.0  0.12346675856599633  0.6561646081922917  0.2968237253237121  1.0000
  H   H16       1.0  0.37653035799586837  0.15616422148561074  0.2031737638455766  1.0000
  C   C1        1.0  0.841877197870005  0.24544457883072116  0.5560998774630478  1.0000
  C   C2        1.0  0.6581255405325451  0.745447894832303  0.9439023972864078  1.0000
  C   C3        1.0  0.15812334490905763  0.75455203338354  0.4439006835483427  1.0000
  C   C4        1.0  0.3418869884232763  0.2545578830276228  0.056096610306227  1.0000
  C   C5        1.0  0.7704722943552015  0.18894540230583357  0.482990048150974  1.0000
  C   C6        1.0  0.7295309226247824  0.6889425509706729  0.017013708447990397  1.0000
  C   C7        1.0  0.22953328158165218  0.8110553760918225  0.5170141287665969  1.0000
  C   C8        1.0  0.2704816063262427  0.3110623936501256  0.9829852991463711  1.0000
  C   C9        1.0  0.723996927336529  0.20289232325458081  0.6285825692774694  1.0000
  C   C10       1.0  0.7760053549793825  0.7028931053094215  0.87142047020118  1.0000
  C   C11       1.0  0.27600599942147863  0.7971067886811414  0.37141744564463863  1.0000
  C   C12       1.0  0.22400237287752844  0.29710933958840263  0.12857904105619164  1.0000
  C   C13       1.0  0.5698962856535915  0.09874315136583083  0.6296630367209418  1.0000
  C   C14       1.0  0.9300949982038987  0.5987449924124136  0.8703379103021194  1.0000
  C   C15       1.0  0.43009938976370427  0.9012567938044926  0.3703368509206229  1.0000
  C   C16       1.0  0.0699006440676015  0.40125578599958805  0.12966138882735123  1.0000
  C   C17       1.0  0.45744995289262397  0.06049125888837641  0.6993731828312877  1.0000
  C   C18       1.0  0.042540465984714615  0.5604956649573866  0.8006298434161325  1.0000
  C   C19       1.0  0.5425409214305574  0.9395061865589796  0.3006272084732942  1.0000
  C   C20       1.0  0.9574600436724908  0.43950594669422594  0.19937012907453072  1.0000
  C   C21       1.0  0.6340878775912699  0.21874153144968034  0.7666727067625275  1.0000
  C   C22       1.0  0.8659097858850445  0.7187461464213174  0.7333307707327138  1.0000
  C   C23       1.0  0.3659005796263273  0.7812575804744243  0.2333276421123358  1.0000
  C   C24       1.0  0.13409552485191512  0.2812554652358585  0.2666686981001121  1.0000
  C   C25       1.0  0.7558279456149466  0.2632352117295157  0.6999530230091227  1.0000
  C   C26       1.0  0.7441677791344647  0.7632390726446019  0.8000496392977965  1.0000
  C   C27       1.0  0.24416292871302406  0.7367630669569682  0.3000473682937327  1.0000
  C   C28       1.0  0.25583514764270643  0.2367633722476513  0.19995037561740503  1.0000
  N   N1        1.0  0.018009028596537704  0.3381126869579135  0.5569884161992249  1.0000
  N   N2        1.0  0.4819821980981446  0.838112299127076  0.9430140064813203  1.0000
  N   N3        1.0  0.9819867130979817  0.6618830920116424  0.4430126484717222  1.0000
  N   N4        1.0  0.5180206292224768  0.16188931253368827  0.056984242904484  1.0000
  N   N5        1.0  0.7200185914043331  0.14710953415948322  0.420999968173092  1.0000
  N   N6        1.0  0.7799743766933249  0.6471095447665862  0.0790020264306648  1.0000
  N   N7        1.0  0.2799818187675882  0.8528862448258321  0.5789982387985191  1.0000
  N   N8        1.0  0.22003335118274953  0.3528962330877691  0.9209974848198075  1.0000
  N   N9        1.0  0.48708036227733936  0.11839443649684261  0.7673432406224594  1.0000
  N   N10       1.0  0.012917940514860497  0.6184002283265573  0.732659084607093  1.0000
  N   N11       1.0  0.5129080949354617  0.8816038421881275  0.2326571082541236  1.0000
  N   N12       1.0  0.9870874033726836  0.3816013833280751  0.2673409727361147  1.0000
  O   O1        1.0  0.1129524672886504  0.373493212431157  0.4901764440079218  1.0000
  O   O2        1.0  0.38704271148030506  0.8734939779682807  0.009827122449280504  1.0000
  O   O3        1.0  0.8870480754808272  0.6265017333048349  0.5098241170069144  1.0000
  O   O4        1.0  0.6129601490148461  0.12651179988560565  0.9901717154382723  1.0000
