data_image0
_chemical_formula_structural       Dy2H22C32N4O28
_chemical_formula_sum              "Dy2 H22 C32 N4 O28"
_cell_length_a       9.108911676624505
_cell_length_b       10.02843367461108
_cell_length_c       13.223838219806762
_cell_angle_alpha    114.03292370114507
_cell_angle_beta     96.3064797436788
_cell_angle_gamma    111.48268742167195

_space_group_name_H-M_alt    "P 1"
_space_group_IT_number       1

loop_
  _space_group_symop_operation_xyz
  'x, y, z'

loop_
  _atom_site_type_symbol
  _atom_site_label
  _atom_site_symmetry_multiplicity
  _atom_site_fract_x
  _atom_site_fract_y
  _atom_site_fract_z
  _atom_site_occupancy
  Dy  Dy1       1.0  0.7994613804085376  0.5620664408145047  0.532499157750145  1.0000
  Dy  Dy2       1.0  0.20053899836887012  0.4379297567179706  0.4675006815507246  1.0000
  H   H1        1.0  0.11378500473657742  0.038209005896234806  0.7520297660652773  1.0000
  H   H2        1.0  0.8862255949039056  0.9617955271843289  0.2479692758907462  1.0000
  H   H3        1.0  0.8986490379094434  0.579256435984263  0.7638033791934049  1.0000
  H   H4        1.0  0.10134039434756661  0.42072767038608566  0.2361945719336447  1.0000
  H   H5        1.0  0.00833246466703494  0.5075869048685179  0.6883106918159925  1.0000
  H   H6        1.0  0.991655800218368  0.4923971684284114  0.31168643899079745  1.0000
  H   H7        1.0  0.6156911691341735  0.6721037458549051  0.6940178145011587  1.0000
  H   H8        1.0  0.3843133348264304  0.32789713969685863  0.3059798457182694  1.0000
  H   H9        1.0  0.7866748422465976  0.8277526832000748  0.7393881459393868  1.0000
  H   H10       1.0  0.21332726028002472  0.17224809714023342  0.2606071014418916  1.0000
  H   H11       1.0  0.8842006783734959  0.5942931887210818  0.17723585751880921  1.0000
  H   H12       1.0  0.11580128510016148  0.4057105981687243  0.8227708972146672  1.0000
  H   H13       1.0  0.5112472604961412  0.32350793188710014  0.8435731769552534  1.0000
  H   H14       1.0  0.48875837566948394  0.6765091338052046  0.15643398111371448  1.0000
  H   H15       1.0  0.4087088813419157  0.21238459124853654  0.11785580167057927  1.0000
  H   H16       1.0  0.5912900001772741  0.7876251103655534  0.8821480613407429  1.0000
  H   H17       1.0  0.284280772411698  0.7206105806026102  0.35841254771212755  1.0000
  H   H18       1.0  0.7157161042509088  0.27938551770960635  0.64158483062797  1.0000
  H   H19       1.0  0.5348463317862127  0.1359745921328894  0.3071735223643515  1.0000
  H   H20       1.0  0.46515359093269393  0.8640164637046511  0.6928201943346224  1.0000
  H   H21       1.0  0.8162019115816223  0.9540462839053777  0.45075553740246477  1.0000
  H   H22       1.0  0.18379756942301376  0.04594849447278901  0.5492400444949297  1.0000
  C   C1        1.0  0.6509859726648345  0.4091715536279779  0.16184581664217748  1.0000
  C   C2        1.0  0.349013953621359  0.5908332346877074  0.838156605075632  1.0000
  C   C3        1.0  0.7616378739813288  0.4970066200611145  0.12034739201041592  1.0000
  C   C4        1.0  0.23836365061376347  0.5029993470299489  0.8796547020477591  1.0000
  C   C5        1.0  0.7091548930497923  0.46131468781645424  0.005487109212552368  1.0000
  C   C6        1.0  0.2908500949262348  0.5386937930838516  0.9945174183168463  1.0000
  C   C7        1.0  0.5498163066859264  0.344099099204378  0.9315745355891993  1.0000
  C   C8        1.0  0.4501881728850563  0.6559130651719302  0.06843108494099676  1.0000
  C   C9        1.0  0.44254874913706743  0.2531073975057225  0.9728395862200472  1.0000
  C   C10       1.0  0.5574494734155665  0.7468985875589454  0.027162363470225166  1.0000
  C   C11       1.0  0.493749247146802  0.28481685627720316  0.08733523178367619  1.0000
  C   C12       1.0  0.5062494063431303  0.7151902744894232  0.9126655699266948  1.0000
  C   C13       1.0  0.701233161082108  0.45086423799700986  0.286271872593538  1.0000
  C   C14       1.0  0.298765675300224  0.5491356880672953  0.7137297837831156  1.0000
  C   C15       1.0  0.27510298045064024  0.11593261244073723  0.8951022775619111  1.0000
  C   C16       1.0  0.7249075093912225  0.8840913545455322  0.1048988610705662  1.0000
  C   C17       1.0  0.5516317262799078  0.8260172637418394  0.40914733034326634  1.0000
  C   C18       1.0  0.4483664124019953  0.17398136036202058  0.5908523852227816  1.0000
  C   C19       1.0  0.3987219695875908  0.813804521041277  0.36347736400875863  1.0000
  C   C20       1.0  0.6012784371467319  0.18619413014480563  0.6365232200001857  1.0000
  C   C21       1.0  0.39666904066417175  0.9227873900323403  0.3242092185985115  1.0000
  C   C22       1.0  0.6033307071035949  0.07720754460432032  0.6757894520893828  1.0000
  C   C23       1.0  0.5409102387851874  0.04807443811186832  0.3336275556914714  1.0000
  C   C24       1.0  0.4590898732291039  0.9519216031621199  0.6663691948188983  1.0000
  C   C25       1.0  0.6927352029494643  0.06020884369009142  0.3813299622134494  1.0000
  C   C26       1.0  0.3072639417655623  0.9397872817043408  0.6186682845695374  1.0000
  C   C27       1.0  0.6978733486575238  0.9465167100102364  0.41546129636022033  1.0000
  C   C28       1.0  0.3021268967383293  0.05347940939299891  0.5845369985453956  1.0000
  C   C29       1.0  0.5598991903456253  0.7136081348570187  0.45529399670888177  1.0000
  C   C30       1.0  0.4401044517403746  0.28639045929082846  0.5447059594703418  1.0000
  C   C31       1.0  0.8529840974087153  0.19651323432480441  0.4008718104616804  1.0000
  C   C32       1.0  0.14701287390158066  0.8034853567056359  0.5991270847841079  1.0000
  N   N1        1.0  0.23655439423879446  0.912110109011188  0.27819517743834865  1.0000
  N   N2        1.0  0.7634457177754898  0.08788593226280031  0.7218015730720211  1.0000
  N   N3        1.0  0.8257260570537783  0.5518092003095847  0.9611751359512157  1.0000
  N   N4        1.0  0.17427656822214035  0.4481967607902818  0.03882700622958875  1.0000
  O   O1        1.0  0.8509459500401634  0.5517615414943293  0.3496908879288725  1.0000
  O   O2        1.0  0.14905305845760353  0.4482360481102319  0.6503123403325901  1.0000
  O   O3        1.0  0.5950954855373355  0.38838595698262424  0.3297508168618393  1.0000
  O   O4        1.0  0.4049031443696621  0.6116016617490418  0.6702463437768316  1.0000
  O   O5        1.0  0.20913191657396638  0.9936185685484137  0.905299230881063  1.0000
  O   O6        1.0  0.7908533445563038  0.006381865112352602  0.09471029407523453  1.0000
  O   O7        1.0  0.20966910671388922  0.14280097245626422  0.8132437328748381  1.0000
  O   O8        1.0  0.7903408339600376  0.8571998440748704  0.1867533957601282  1.0000
  O   O9        1.0  0.7695867370820793  0.5304908075732869  0.8621950346414734  1.0000
  O   O10       1.0  0.230418100332436  0.46951027330158734  0.13780648656607752  1.0000
  O   O11       1.0  0.9714695332703159  0.642112822996545  0.022117338190199117  1.0000
  O   O12       1.0  0.028534448672587594  0.35789815661318153  0.9778886581222607  1.0000
  O   O13       1.0  0.7007873732785301  0.7240868930213085  0.48943814140690023  1.0000
  O   O14       1.0  0.2992082134078728  0.2759042258456645  0.5105561549991648  1.0000
  O   O15       1.0  0.425656367577581  0.6174001239437248  0.45851585032642833  1.0000
  O   O16       1.0  0.5743442004952186  0.38260105902519836  0.5414870227858444  1.0000
  O   O17       1.0  0.9715345011091757  0.16377769026378533  0.3764063096766108  1.0000
  O   O18       1.0  0.028465800200500407  0.8362233364466579  0.6235934746451548  1.0000
  O   O19       1.0  0.8719532427066099  0.3430110403455729  0.4456423603117017  1.0000
  O   O20       1.0  0.12803953672971596  0.6569828236009556  0.554357941817912  1.0000
  O   O21       1.0  0.23102883964020302  0.9785795363549215  0.2171584001262516  1.0000
  O   O22       1.0  0.7689763620208299  0.021422651157287496  0.7828412009037748  1.0000
  O   O23       1.0  0.1165845756311511  0.8396731638072835  0.30376473692401607  1.0000
  O   O24       1.0  0.8834146386103612  0.1603214583123957  0.6962277561828715  1.0000
  O   O25       1.0  0.9219236105672054  0.546112625807382  0.6891143611256823  1.0000
  O   O26       1.0  0.07806525737093044  0.45387025673176146  0.3108831935860081  1.0000
  O   O27       1.0  0.7358791935334709  0.7080633105381725  0.7030708292392944  1.0000
  O   O28       1.0  0.2641255771902636  0.2919377312720784  0.2969299197706334  1.0000
