data_image0
_chemical_formula_structural       Cd2H46C64S4N16O12
_chemical_formula_sum              "Cd2 H46 C64 S4 N16 O12"
_cell_length_a       10.777267020019151
_cell_length_b       12.536595783628318
_cell_length_c       15.765987200832948
_cell_angle_alpha    111.7990347687114
_cell_angle_beta     98.2928846949539
_cell_angle_gamma    106.02844261255755

_space_group_name_H-M_alt    "P 1"
_space_group_IT_number       1

loop_
  _space_group_symop_operation_xyz
  'x, y, z'

loop_
  _atom_site_type_symbol
  _atom_site_label
  _atom_site_symmetry_multiplicity
  _atom_site_fract_x
  _atom_site_fract_y
  _atom_site_fract_z
  _atom_site_occupancy
  Cd  Cd1       1.0  0.6903317245381261  0.5349694190729295  0.7158351502688306  1.0000
  Cd  Cd2       1.0  0.30966700885191767  0.465029512356864  0.2841641422886881  1.0000
  H   H1        1.0  0.5524092691187762  0.6516571283938077  0.5949937939143626  1.0000
  H   H2        1.0  0.447590923666148  0.34834548626417944  0.405009266066415  1.0000
  H   H3        1.0  0.6129831964468907  0.793415420888898  0.516608580643137  1.0000
  H   H4        1.0  0.38701575865071897  0.2065816718131756  0.4833901871162141  1.0000
  H   H5        1.0  0.028775815267494148  0.8413285949621641  0.6174497253182525  1.0000
  H   H6        1.0  0.9712222207867924  0.15866849696185886  0.38255085865284144  1.0000
  H   H7        1.0  0.9525018057522275  0.6964001732353609  0.6880688256451465  1.0000
  H   H8        1.0  0.047496373443216625  0.3035996782234278  0.3119332249799243  1.0000
  H   H9        1.0  0.7863097926708492  0.9262144995412245  0.47424536868667405  1.0000
  H   H10       1.0  0.21369209520818086  0.07377800355752129  0.5257554843609428  1.0000
  H   H11       1.0  0.6159752527895109  0.24420260276718153  0.6303574567067756  1.0000
  H   H12       1.0  0.3840238389769155  0.755797249047987  0.3696421426815207  1.0000
  H   H13       1.0  0.6121259893424879  0.0609265970468584  0.49050547206639555  1.0000
  H   H14       1.0  0.38787440573298687  0.9390741776184086  0.5094951580410979  1.0000
  H   H15       1.0  0.7664934272875712  0.30590139581796894  0.3656738849602732  1.0000
  H   H16       1.0  0.23350565800651427  0.694098455575535  0.6343250794029771  1.0000
  H   H17       1.0  0.7596966485752009  0.4778238906189998  0.5084999330633339  1.0000
  H   H18       1.0  0.24030561694860358  0.5221768877107068  0.4915002397458893  1.0000
  H   H19       1.0  0.6252209580580441  0.9703386022981704  0.32181331752032355  1.0000
  H   H20       1.0  0.3747790851133884  0.02966125240338612  0.6781876407814379  1.0000
  H   H21       1.0  0.7993585019802936  0.0903504475789845  0.1332044030437487  1.0000
  H   H22       1.0  0.2006444351385426  0.9096448149892424  0.8667948303960246  1.0000
  H   H23       1.0  0.5976029535312009  0.7512216851726308  0.057505590566961536  1.0000
  H   H24       1.0  0.4023956496623597  0.24877448756572562  0.9424935053866577  1.0000
  H   H25       1.0  0.5631884325998513  0.5878885416993854  0.8948575348247944  1.0000
  H   H26       1.0  0.4368089974811441  0.41210946688030264  0.10514072701352725  1.0000
  H   H27       1.0  0.8267975463319033  0.8345394274791147  0.8280287806206914  1.0000
  H   H28       1.0  0.17320410689489313  0.1654549135040142  0.17197132717500813  1.0000
  H   H29       1.0  0.8633516278630609  0.010729531822534003  0.9841190245663752  1.0000
  H   H30       1.0  0.1366490739587294  0.9892648062742072  0.015879724315851856  1.0000
  H   H31       1.0  0.12046676110114875  0.459302530845669  0.6027777828914938  1.0000
  H   H32       1.0  0.8795342205306156  0.5406973258989395  0.3972232642736486  1.0000
  H   H33       1.0  0.9106515472978531  0.3239086913965821  0.6139555361468396  1.0000
  H   H34       1.0  0.0893471860921907  0.6760902400332044  0.38604375641067906  1.0000
  H   H35       1.0  0.9196916411830004  0.18318499593250695  0.6880951285068947  1.0000
  H   H36       1.0  0.0803067403030015  0.8168130155335693  0.3119044922448852  1.0000
  H   H37       1.0  0.14071037526724695  0.17035551985136982  0.7513500519225076  1.0000
  H   H38       1.0  0.8592867029096992  0.8296415687646003  0.24864853811008206  1.0000
  H   H39       1.0  0.9206243995725318  0.29136344938192593  0.8971020884573309  1.0000
  H   H40       1.0  0.07937437250291172  0.7086428381584398  0.10289812210614717  1.0000
  H   H41       1.0  0.14773803583808132  0.3251569684034408  0.9897882862943561  1.0000
  H   H42       1.0  0.8522588593166985  0.6748493150508212  0.010211746542346169  1.0000
  H   H43       1.0  0.34625060533657864  0.5055470484156146  0.01784002938438088  1.0000
  H   H44       1.0  0.653748192628214  0.4944592408114162  0.9821627212792523  1.0000
  H   H45       1.0  0.3211117523608351  0.6559510627972429  0.9550340373218376  1.0000
  H   H46       1.0  0.6788933801740384  0.34405707861552065  0.04496859013357833  1.0000
  C   C1        1.0  0.6563102358579159  0.696270670373984  0.5977254083365935  1.0000
  C   C2        1.0  0.34368905082835977  0.3037319443492805  0.4022807379059969  1.0000
  C   C3        1.0  0.6911427483978303  0.7756529096223662  0.5553290792844552  1.0000
  C   C4        1.0  0.30885457737602456  0.22434234195255703  0.44467152605012933  1.0000
  C   C5        1.0  0.8266360976097433  0.8299049126439757  0.5614531814823851  1.0000
  C   C6        1.0  0.17336418021392322  0.17009310417319776  0.4385485220712866  1.0000
  C   C7        1.0  0.9224842893729602  0.8014541135489921  0.6107340748986657  1.0000
  C   C8        1.0  0.07751575379847256  0.1985457411525645  0.38926688340309573  1.0000
  C   C9        1.0  0.8798749420495968  0.7210625967266611  0.6505233146686608  1.0000
  C   C10       1.0  0.12012401952034685  0.2789344963970777  0.3494760881157362  1.0000
  C   C11       1.0  0.8652667896242934  0.9114199241465359  0.516088980635374  1.0000
  C   C12       1.0  0.13473182004160833  0.08857624901349231  0.48391075034329123  1.0000
  C   C13       1.0  0.6483667055727623  0.2534810693587914  0.5702358605694542  1.0000
  C   C14       1.0  0.3516327380977132  0.7465197024200949  0.4297634106245739  1.0000
  C   C15       1.0  0.6470763301202213  0.15252103802360037  0.4926065446033618  1.0000
  C   C16       1.0  0.35292349134364553  0.8474806554056685  0.5073949384965603  1.0000
  C   C17       1.0  0.6913357543375228  0.16938733589360316  0.4173739747838425  1.0000
  C   C18       1.0  0.3086642758892354  0.8306125179646173  0.5826257134678344  1.0000
  C   C19       1.0  0.7353005378675449  0.2893487589155654  0.4238370974687982  1.0000
  C   C20       1.0  0.2647005674883688  0.7106538560988015  0.5761635112752047  1.0000
  C   C21       1.0  0.7315756569496089  0.38476437606168906  0.5032826723167787  1.0000
  C   C22       1.0  0.26842436680481546  0.615235477374867  0.49671638090985953  1.0000
  C   C23       1.0  0.6854508742085487  0.06366946207273831  0.3337340059835512  1.0000
  C   C24       1.0  0.3145472855698871  0.9363303881210429  0.666266139566396  1.0000
  C   C25       1.0  0.7576129218193092  0.9955764498165752  0.12536946850305258  1.0000
  C   C26       1.0  0.24238871846281285  0.004417890323217901  0.8746293692425625  1.0000
  C   C27       1.0  0.7343254294952576  0.8942058105367039  0.03348537472087543  1.0000
  C   C28       1.0  0.265672105041496  0.10578760146717066  0.9665134357654708  1.0000
  C   C29       1.0  0.648186107662106  0.7733805537681989  0.007756769351893146  1.0000
  C   C30       1.0  0.35181199401392155  0.22661193905000945  0.9922405531169787  1.0000
  C   C31       1.0  0.6297146375050178  0.6827510161268365  0.9180491805004325  1.0000
  C   C32       1.0  0.37028321657409446  0.31724331373242626  0.08194612666643765  1.0000
  C   C33       1.0  0.7759932352425026  0.8203475225082928  0.8800988259475846  1.0000
  C   C34       1.0  0.22400948664110845  0.17964957920931113  0.11990156731539513  1.0000
  C   C35       1.0  0.7976151155273712  0.9177046142813979  0.9670838478516759  1.0000
  C   C36       1.0  0.20238277091342383  0.0822897176861943  0.03291463444039521  1.0000
  C   C37       1.0  0.38277683386377254  0.4584265986670175  0.6694228703613804  1.0000
  C   C38       1.0  0.6172209740106142  0.5415723315630531  0.33057760338283526  1.0000
  C   C39       1.0  0.2458018890178267  0.3886691195580951  0.6692820922814351  1.0000
  C   C40       1.0  0.7541974309284996  0.6113288939510326  0.33071761733373967  1.0000
  C   C41       1.0  0.12375131634752282  0.39523403815837804  0.6336776158744399  1.0000
  C   C42       1.0  0.8762459114429147  0.6047658104140298  0.3663230758371655  1.0000
  C   C43       1.0  0.007055315766649522  0.3194336324328689  0.6404832889885413  1.0000
  C   C44       1.0  0.9929440171243515  0.680564381919581  0.3595176906767109  1.0000
  C   C45       1.0  0.01252076324942664  0.23982859860367264  0.6827804343568645  1.0000
  C   C46       1.0  0.9874785631692337  0.7601694153271129  0.31721991028334895  1.0000
  C   C47       1.0  0.13486216864014014  0.23255573080601272  0.7188764272961167  1.0000
  C   C48       1.0  0.8651377184454603  0.7674413635174488  0.2811217943015834  1.0000
  C   C49       1.0  0.24911896847775952  0.3079647349196293  0.7105162517877518  1.0000
  C   C50       1.0  0.7508836748394361  0.6920369650604529  0.28948613292736525  1.0000
  C   C51       1.0  0.8709332632771878  0.4516529722525108  0.817173740008812  1.0000
  C   C52       1.0  0.12906643431391276  0.5483533164875709  0.18282528936796896  1.0000
  C   C53       1.0  0.995266314263432  0.4533040617901919  0.8738558902193818  1.0000
  C   C54       1.0  0.004735989945778876  0.546704072650087  0.1261452005958007  1.0000
  C   C55       1.0  0.00851748156530619  0.3692289928409949  0.9089493091415051  1.0000
  C   C56       1.0  0.9914840994187984  0.6307773004068551  0.09105053298708309  1.0000
  C   C57       1.0  0.13604232460035348  0.389074485144313  0.9605390486917358  1.0000
  C   C58       1.0  0.8639577443118044  0.6109327248244869  0.03946155756589334  1.0000
  C   C59       1.0  0.24791396491040993  0.49042463946032927  0.9763320063062012  1.0000
  C   C60       1.0  0.7520866905580306  0.5095816525878049  0.02366901700908392  1.0000
  C   C61       1.0  0.23476800985908147  0.5759174370128478  0.9417477309425949  1.0000
  C   C62       1.0  0.7652327822781829  0.4240916141483808  0.05825412400162835  1.0000
  C   C63       1.0  0.10710835687739732  0.5549671938676753  0.8912306756076234  1.0000
  C   C64       1.0  0.8928939602764815  0.4450409414159396  0.10877168525763652  1.0000
  S   S1        1.0  0.4185828730250165  0.3206496431243622  0.7455072912625127  1.0000
  S   S2        1.0  0.5814170270052587  0.6793474520424285  0.25449220038526493  1.0000
  S   S3        1.0  0.05138065845761731  0.6459902743126946  0.8422092146892554  1.0000
  S   S4        1.0  0.9486230017377011  0.35401418302853943  0.15778837529282444  1.0000
  N   N1        1.0  0.7489120155997996  0.6691583265873859  0.6444544595607199  1.0000
  N   N2        1.0  0.25108969572941225  0.3308433717713157  0.3555484713160483  1.0000
  N   N3        1.0  0.9908929118657497  0.96353114584322  0.5241187783835458  1.0000
  N   N4        1.0  0.009103814407147602  0.0364650228090326  0.475880139843305  1.0000
  N   N5        1.0  0.6889085650109763  0.3680620784859343  0.575233304050066  1.0000
  N   N6        1.0  0.31109241014845435  0.6319377778370028  0.4247671080900376  1.0000
  N   N7        1.0  0.7496169088018618  0.08183005707761741  0.2740999476975929  1.0000
  N   N8        1.0  0.25038145973946513  0.9181679535451225  0.7258984030041093  1.0000
  N   N9        1.0  0.727659987646156  0.9738604681059256  0.19546063677751846  1.0000
  N   N10       1.0  0.27233673215440046  0.02613570012466231  0.8045376464242935  1.0000
  N   N11       1.0  0.6932599475187331  0.7050218581420823  0.8553508277706285  1.0000
  N   N12       1.0  0.3067395747181508  0.29497431537432567  0.14464645197126202  1.0000
  N   N13       1.0  0.4802540801141788  0.428575941077149  0.7111497429773266  1.0000
  N   N14       1.0  0.5197443013718158  0.5714220703889268  0.2888498777744601  1.0000
  N   N15       1.0  0.8942972360103953  0.5517887677359425  0.7971001163029996  1.0000
  N   N16       1.0  0.10570421477722654  0.44821476682047756  0.20289952922169627  1.0000
  O   O1        1.0  0.4070011259042872  0.5341460265416985  0.635084895196009  1.0000
  O   O2        1.0  0.5929972555817146  0.46585198492437035  0.3649147255557781  1.0000
  O   O3        1.0  0.46584488069174074  0.36571936635718333  0.8477298467116016  1.0000
  O   O4        1.0  0.5341551495350176  0.6342804875010375  0.15226984154007547  1.0000
  O   O5        1.0  0.43479459393861225  0.20724725371326974  0.6865228553626963  1.0000
  O   O6        1.0  0.5652066094007112  0.7927507643036196  0.31347766700428553  1.0000
  O   O7        1.0  0.7580474952169852  0.36996972369246367  0.7894471039032568  1.0000
  O   O8        1.0  0.24195336254201305  0.6300347283629508  0.21055148953874445  1.0000
  O   O9        1.0  0.11245887475254797  0.6553586978238499  0.7675093178341186  1.0000
  O   O10       1.0  0.8875452482749112  0.34464208332695284  0.23248912762675644  1.0000
  O   O11       1.0  0.06371549025886496  0.7627973837467013  0.9174710959495443  1.0000
  O   O12       1.0  0.936288867272211  0.23720891310029654  0.08252520261896018  1.0000
