data_image0
_chemical_formula_structural       Cd4H28C44N16O8
_chemical_formula_sum              "Cd4 H28 C44 N16 O8"
_cell_length_a       8.470771349620794
_cell_length_b       10.179911445000489
_cell_length_c       12.539942641592898
_cell_angle_alpha    89.99997227671352
_cell_angle_beta     97.36069190455744
_cell_angle_gamma    90.00002527662333

_space_group_name_H-M_alt    "P 1"
_space_group_IT_number       1

loop_
  _space_group_symop_operation_xyz
  'x, y, z'

loop_
  _atom_site_type_symbol
  _atom_site_label
  _atom_site_symmetry_multiplicity
  _atom_site_fract_x
  _atom_site_fract_y
  _atom_site_fract_z
  _atom_site_occupancy
  Cd  Cd1       1.0  0.767164198890633  0.6771963569580921  0.8237788264543652  1.0000
  Cd  Cd2       1.0  0.7328358312245625  0.17719710466396782  0.17622134471079678  1.0000
  Cd  Cd3       1.0  0.23283559749404498  0.32280240550642975  0.17622157174913158  1.0000
  Cd  Cd4       1.0  0.267163969600098  0.8228026401271367  0.8237798513230175  1.0000
  H   H1        1.0  0.6184356503029492  0.4965309353337306  0.0665600843723695  1.0000
  H   H2        1.0  0.8815680946698307  0.9965321291758972  0.9334394757449828  1.0000
  H   H3        1.0  0.3815665267437183  0.5034678271311677  0.9334405139102487  1.0000
  H   H4        1.0  0.118434082377064  0.0034676156158184005  0.06656112253745759  1.0000
  H   H5        1.0  0.11153356553880658  0.23823562513567254  0.875617262063379  1.0000
  H   H6        1.0  0.38846832518419205  0.7382363185756378  0.12438119977966976  1.0000
  H   H7        1.0  0.8884697973990967  0.761763137329652  0.12438263842830109  1.0000
  H   H8        1.0  0.611531466760951  0.2617634262159358  0.8756184005931615  1.0000
  H   H9        1.0  0.9801594415378359  0.6008293870522226  0.6207864065541315  1.0000
  H   H10       1.0  0.5198405442312648  0.10082797186444033  0.3792121960540342  1.0000
  H   H11       1.0  0.01984154073876  0.39917232239317013  0.37921329385790864  1.0000
  H   H12       1.0  0.4801604380446491  0.8991707906005079  0.6207875043585318  1.0000
  H   H13       1.0  0.1292431648667716  0.03989800627132921  0.6863746107765892  1.0000
  H   H14       1.0  0.37075627084128376  0.539895634113755  0.3136269127024036  1.0000
  H   H15       1.0  0.870756640398099  0.9601037031731678  0.31362738308737187  1.0000
  H   H16       1.0  0.6292447158746127  0.4601041106777687  0.6863735855404798  1.0000
  H   H17       1.0  0.2580635038159684  0.25501285967724385  0.7135019039523625  1.0000
  H   H18       1.0  0.24193719992764073  0.7550124210985347  0.2864956540663782  1.0000
  H   H19       1.0  0.7419374740206452  0.7449878674415658  0.2864969986293602  1.0000
  H   H20       1.0  0.7580625964572647  0.24498732369280424  0.7135047441369409  1.0000
  H   H21       1.0  0.20646654231336467  0.17362025074175597  0.5328373424241163  1.0000
  H   H22       1.0  0.29353413250989746  0.6736207063237386  0.46716184014272943  1.0000
  H   H23       1.0  0.7935356258540195  0.8263794940504356  0.46716166019734107  1.0000
  H   H24       1.0  0.7064668497666985  0.3263810031216608  0.5328378602693106  1.0000
  H   H25       1.0  0.1834267262343161  0.43617654391868405  0.5803201744568937  1.0000
  H   H26       1.0  0.31657526085474075  0.9361740890888298  0.4196790149654531  1.0000
  H   H27       1.0  0.8165742560425073  0.5638261478535257  0.4196795259549759  1.0000
  H   H28       1.0  0.6834257258609284  0.06382467337588342  0.5803214832776078  1.0000
  C   C1        1.0  0.7101662533053029  0.44972112637835693  0.027043230395342673  1.0000
  C   C2        1.0  0.7898374788077261  0.9497222632299724  0.9729579419964053  1.0000
  C   C3        1.0  0.2898347289708383  0.5502786184134011  0.9729564700170528  1.0000
  C   C4        1.0  0.21016351234792546  0.0502774815613236  0.027043354076965894  1.0000
  C   C5        1.0  0.8808962169543335  0.40437766877656867  0.9226222358197302  1.0000
  C   C6        1.0  0.6191074807808333  0.904377309151485  0.0773765591737714  1.0000
  C   C7        1.0  0.11910357943034457  0.5956210936879531  0.0773781623837664  1.0000
  C   C8        1.0  0.3808923067247818  0.09562341796713983  0.9226222433683872  1.0000
  C   C9        1.0  0.0868678805081231  0.3160889676299092  0.8165188783240609  1.0000
  C   C10       1.0  0.41313642703278924  0.8160876704265121  0.18347975596731908  1.0000
  C   C11       1.0  0.9131354779904868  0.6839117594892841  0.18348022433678315  1.0000
  C   C12       1.0  0.5868633604723712  0.18391109203848546  0.8165190465751949  1.0000
  C   C13       1.0  0.9095465238307484  0.8441664450167606  0.676185046298606  1.0000
  C   C14       1.0  0.5904511987263277  0.34416705315331353  0.32381406769714977  1.0000
  C   C15       1.0  0.09045208222315891  0.15583329977439325  0.323815251865156  1.0000
  C   C16       1.0  0.4095462081175256  0.6558346562917521  0.676184534765717  1.0000
  C   C17       1.0  0.0124427887410974  0.5184571611691312  0.6745533985776504  1.0000
  C   C18       1.0  0.48755900879199726  0.0184549667047804  0.32544673692907367  1.0000
  C   C19       1.0  0.9875593927460073  0.481544548275977  0.32544799753493686  1.0000
  C   C20       1.0  0.5124407831529182  0.9815437957599757  0.6745528634439282  1.0000
  C   C21       1.0  0.07362799531833988  0.022578616274692806  0.6044237137177149  1.0000
  C   C22       1.0  0.4263678524740228  0.5225771982406826  0.3955759201283228  1.0000
  C   C23       1.0  0.9263694248450066  0.9774240754964795  0.3955772822364594  1.0000
  C   C24       1.0  0.5736307491405839  0.4774245112043404  0.6044235802046031  1.0000
  C   C25       1.0  0.1656594560383127  0.32552425785308264  0.7262864084548466  1.0000
  C   C26       1.0  0.3343436699932454  0.8255228783440673  0.2737129202787756  1.0000
  C   C27       1.0  0.8343439113398076  0.6744764692656349  0.27371428986698726  1.0000
  C   C28       1.0  0.665656121951443  0.17447490179387873  0.7262866800944039  1.0000
  C   C29       1.0  0.9579340018335216  0.9241612827236739  0.5854132685609058  1.0000
  C   C30       1.0  0.5420637711935113  0.4241608370363181  0.4145882105353279  1.0000
  C   C31       1.0  0.042063422769359704  0.07584042672044691  0.4145885252239338  1.0000
  C   C32       1.0  0.4579348348606231  0.5758398900816531  0.5854120876282636  1.0000
  C   C33       1.0  0.9723246642452494  0.41100645371001593  0.8320124026530493  1.0000
  C   C34       1.0  0.5276778417976613  0.9110060069308975  0.16798549211777913  1.0000
  C   C35       1.0  0.0276763180306716  0.5889923087549321  0.1679872977595167  1.0000
  C   C36       1.0  0.47232075537650076  0.08899275553390852  0.8320132103851703  1.0000
  C   C37       1.0  0.11567704695626449  0.09756161959438003  0.5197628508242715  1.0000
  C   C38       1.0  0.38432241109241266  0.5975611183320383  0.48023785435835015  1.0000
  C   C39       1.0  0.8843227494290956  0.9024400898505861  0.4802375473787066  1.0000
  C   C40       1.0  0.6156761905219668  0.40243960878616775  0.5197616459747465  1.0000
  C   C41       1.0  0.12568816591804927  0.42663517157525654  0.6525857408075311  1.0000
  C   C42       1.0  0.3743126219688691  0.9266317983720074  0.3474125541312745  1.0000
  C   C43       1.0  0.8743128163587741  0.5733675201969605  0.3474139596043385  1.0000
  C   C44       1.0  0.6256871655362916  0.07336696409298332  0.6525862484112324  1.0000
  N   N1        1.0  0.7806616841676686  0.3360285882619892  0.06063571727740678  1.0000
  N   N2        1.0  0.7193407959341653  0.8360297192163559  0.9393637997647275  1.0000
  N   N3        1.0  0.2193393025480077  0.6639701742027243  0.939364780965654  1.0000
  N   N4        1.0  0.28066019078173804  0.16397002557517484  0.06063669847815588  1.0000
  N   N5        1.0  0.8912120492506687  0.3061891725569552  0.9941248167663588  1.0000
  N   N6        1.0  0.608790412553148  0.8061888515240272  0.005873913035927097  1.0000
  N   N7        1.0  0.10878893746500042  0.6938095899077583  0.0058756814767023016  1.0000
  N   N8        1.0  0.3912105697227659  0.19380991094092082  0.9941257873766316  1.0000
  N   N9        1.0  0.9382829414036706  0.5118845557459153  0.7627535031707353  1.0000
  N   N10       1.0  0.5617193881595242  0.011882257679985705  0.23724612891486166  1.0000
  N   N11       1.0  0.06171804531245331  0.4881161713724327  0.2372469950719776  1.0000
  N   N12       1.0  0.4382792090146452  0.9881165047848204  0.7627525735880879  1.0000
  N   N13       1.0  0.7696151499731912  0.496348973799954  0.9398849089260181  1.0000
  N   N14       1.0  0.7303874045839719  0.9963496474606333  0.060114551216450665  1.0000
  N   N15       1.0  0.2303846419719591  0.5036507709916196  0.060114691446813084  1.0000
  N   N16       1.0  0.26961239180093344  0.0036500973306985017  0.9398858469868755  1.0000
  O   O1        1.0  0.992136419565533  0.8484130315025884  0.7688560438268012  1.0000
  O   O2        1.0  0.5078613138434777  0.3484146466475764  0.23114466432259914  1.0000
  O   O3        1.0  0.007862186488147  0.15158573096174882  0.23114425433713853  1.0000
  O   O4        1.0  0.49213610187988627  0.6515870627970132  0.7688555338012578  1.0000
  O   O5        1.0  0.7835374122185285  0.7749615033905857  0.6571385777669008  1.0000
  O   O6        1.0  0.7164614685298644  0.2749631286895706  0.3428606608299489  1.0000
  O   O7        1.0  0.21646237972638718  0.2250372590741706  0.3428610226061011  1.0000
  O   O8        1.0  0.283537128644987  0.7250385807556796  0.657138041672475  1.0000
