data_image0
_chemical_formula_structural       Ag4H24C20N28O12
_chemical_formula_sum              "Ag4 H24 C20 N28 O12"
_cell_length_a       7.250196648008548
_cell_length_b       9.003281592015297
_cell_length_c       14.294417692008976
_cell_angle_alpha    90.00012517273638
_cell_angle_beta     89.99997046979358
_cell_angle_gamma    89.99982826148698

_space_group_name_H-M_alt    "P 1"
_space_group_IT_number       1

loop_
  _space_group_symop_operation_xyz
  'x, y, z'

loop_
  _atom_site_type_symbol
  _atom_site_label
  _atom_site_symmetry_multiplicity
  _atom_site_fract_x
  _atom_site_fract_y
  _atom_site_fract_z
  _atom_site_occupancy
  Ag  Ag1       1.0  0.11773118358934197  0.998726832239491  0.6543826986063336  1.0000
  Ag  Ag2       1.0  0.8822673876168705  0.49872989687027325  0.3456169664684268  1.0000
  Ag  Ag3       1.0  0.3822700129579956  0.49873017556449634  0.1543829384441864  1.0000
  Ag  Ag4       1.0  0.6177299375191011  0.9987276642497136  0.8456167266311567  1.0000
  H   H1        1.0  0.02172477842908189  0.5938182584994394  0.8493284632795903  1.0000
  H   H2        1.0  0.9782766636426385  0.09381819280096691  0.1506713430542206  1.0000
  H   H3        1.0  0.4782763307084536  0.09382025698958071  0.349327978651921  1.0000
  H   H4        1.0  0.5217251113588119  0.5938184157242857  0.650672527257214  1.0000
  H   H5        1.0  0.10589098370666508  0.4563217616587922  0.9292287791666282  1.0000
  H   H6        1.0  0.8941105022631888  0.9563203371177807  0.07077222658159599  1.0000
  H   H7        1.0  0.39411008746967713  0.9563226778705458  0.429227606641703  1.0000
  H   H8        1.0  0.6058927777680552  0.4563227530190873  0.570771300387257  1.0000
  H   H9        1.0  0.231063139528608  0.3491822840810954  0.5754801063099819  1.0000
  H   H10       1.0  0.7689387411087267  0.8491857213781203  0.4245207517112063  1.0000
  H   H11       1.0  0.2689400680163345  0.8491857269556747  0.07547896623891151  1.0000
  H   H12       1.0  0.7310631918929571  0.34918338920434894  0.9245197930614779  1.0000
  H   H13       1.0  0.11512021473672719  0.19844563945889604  0.8494764882349699  1.0000
  H   H14       1.0  0.8848711869981684  0.6984478456074684  0.1505227627944166  1.0000
  H   H15       1.0  0.3848749917325307  0.6984487995994825  0.34947671725273477  1.0000
  H   H16       1.0  0.6151191685458315  0.19844579617085156  0.650523233350853  1.0000
  H   H17       1.0  0.6565045294514603  0.7007754077613981  0.9970434610718754  1.0000
  H   H18       1.0  0.34349789788686985  0.20077637877543003  0.0029557931676507  1.0000
  H   H19       1.0  0.8434951174079757  0.2007744028202794  0.497044410533185  1.0000
  H   H20       1.0  0.15650317211661496  0.7007740516068568  0.5029569424259606  1.0000
  H   H21       1.0  0.2932067804730707  0.7725070840524283  0.7719395996047211  1.0000
  H   H22       1.0  0.7067953826250175  0.2725068375743618  0.2280597535419346  1.0000
  H   H23       1.0  0.20679374970414696  0.2725086338937218  0.2719405845093874  1.0000
  H   H24       1.0  0.7932070341154756  0.7725075091518362  0.7280615669341586  1.0000
  C   C1        1.0  0.13813278123853925  0.5208325357501025  0.86625948280318  1.0000
  C   C2        1.0  0.8618689296924558  0.020833806033635906  0.1337409224682133  1.0000
  C   C3        1.0  0.3618685794142635  0.020834818120270895  0.3662590283558557  1.0000
  C   C4        1.0  0.638133131513001  0.520833745074505  0.6337406773432832  1.0000
  C   C5        1.0  0.20199630757191037  0.34698213977258524  0.6500630697541682  1.0000
  C   C6        1.0  0.7980042018986139  0.8469852480227332  0.34993638608568745  1.0000
  C   C7        1.0  0.2980054523919334  0.8469855117682455  0.15006402086869738  1.0000
  C   C8        1.0  0.7019950570761965  0.34698298673441036  0.8499361345457217  1.0000
  C   C9        1.0  0.1436407231005887  0.2681811836467247  0.7887906048155884  1.0000
  C   C10       1.0  0.8563545595678403  0.7681814479876793  0.21120804279371438  1.0000
  C   C11       1.0  0.356358426474003  0.7681833026296161  0.2887915408001973  1.0000
  C   C12       1.0  0.643638235464948  0.2681804397104414  0.7112078063834844  1.0000
  C   C13       1.0  0.5397863587740233  0.6905825188608361  0.9501727246341786  1.0000
  C   C14       1.0  0.4602147268380961  0.19058447818329682  0.0498258159778544  1.0000
  C   C15       1.0  0.960213373647825  0.190584561402467  0.4501743434107722  1.0000
  C   C16       1.0  0.03978633268751959  0.6905835463555263  0.5498276950711585  1.0000
  C   C17       1.0  0.35886987457605096  0.7292884262850523  0.8345080421728283  1.0000
  C   C18       1.0  0.6411310684544416  0.22928923407017973  0.16549125138224244  1.0000
  C   C19       1.0  0.14113075070525127  0.22929013625663697  0.3345090441015373  1.0000
  C   C20       1.0  0.8588729508700367  0.729287524098858  0.6654923481745527  1.0000
  N   N1        1.0  0.5382413465869362  0.9154465628962781  0.5838144794827969  1.0000
  N   N2        1.0  0.46175891068077124  0.41544756515558146  0.41618507075849454  1.0000
  N   N3        1.0  0.9617606913806894  0.41544749095877626  0.083814698710178  1.0000
  N   N4        1.0  0.038239565884261084  0.9154477478016222  0.916186250679459  1.0000
  N   N5        1.0  0.1668467160626435  0.4167525402840226  0.7897575152185042  1.0000
  N   N6        1.0  0.8331521571159897  0.9167561899865505  0.21024273639934418  1.0000
  N   N7        1.0  0.3331532644912869  0.9167558265612852  0.2897570580726594  1.0000
  N   N8        1.0  0.6668469879585925  0.4167540144125184  0.7102424939719825  1.0000
  N   N9        1.0  0.2031063711499357  0.4688577900380508  0.7020932548972708  1.0000
  N   N10       1.0  0.7968964479071232  0.9688596101915224  0.2979077681384368  1.0000
  N   N11       1.0  0.29689626582288037  0.9688600540299536  0.20209210757733587  1.0000
  N   N12       1.0  0.7031051739626832  0.46885734619645797  0.7979061171633787  1.0000
  N   N13       1.0  0.16478372982103906  0.22108484417157115  0.7006029968644114  1.0000
  N   N14       1.0  0.835211726335707  0.7210865760344732  0.29939698495420686  1.0000
  N   N15       1.0  0.3352129250503281  0.7210870147158275  0.20060253918337884  1.0000
  N   N16       1.0  0.6647825311047342  0.22108551619513153  0.7993967430622178  1.0000
  N   N17       1.0  0.3000785593785551  0.6105896404841573  0.8833717982357783  1.0000
  N   N18       1.0  0.6999242001819395  0.11059124646207151  0.11662663207681588  1.0000
  N   N19       1.0  0.1999224530986652  0.110591207084056  0.38337348449577036  1.0000
  N   N20       1.0  0.8000775479138084  0.6105896798728023  0.6166291432599351  1.0000
  N   N21       1.0  0.41449615692499714  0.5838227223507602  0.9574811146851658  1.0000
  N   N22       1.0  0.5855067012363903  0.08382546153863052  0.0425172787203607  1.0000
  N   N23       1.0  0.08550487822824947  0.08382456797581742  0.45748213103570373  1.0000
  N   N24       1.0  0.9144952213858417  0.5838236159217799  0.5425190606653558  1.0000
  N   N25       1.0  0.5100297925598197  0.7829476367094229  0.8756381015694572  1.0000
  N   N26       1.0  0.4899709528007675  0.2829497814606655  0.12436056640130032  1.0000
  N   N27       1.0  0.9899682967009723  0.28294960668549146  0.375639013057679  1.0000
  N   N28       1.0  0.0100296901140027  0.782946700787889  0.6243631527816333  1.0000
  O   O1        1.0  0.4711175773628469  0.9321051569315058  0.6657129040129561  1.0000
  O   O2        1.0  0.5288812392640381  0.43210682272388123  0.3342873687726424  1.0000
  O   O3        1.0  0.028883852999335595  0.43210602992952835  0.16571323546875763  1.0000
  O   O4        1.0  0.9711177221713709  0.9321070604286205  0.8342870373172461  1.0000
  O   O5        1.0  0.6615169394898287  0.0032367507469218  0.5545212807474798  1.0000
  O   O6        1.0  0.33848069844150064  0.5032379782088796  0.44547840068850053  1.0000
  O   O7        1.0  0.8384838884261752  0.5032378026145637  0.054521521791968994  1.0000
  O   O8        1.0  0.1615137494996333  0.0032391477583289  0.9454809579407097  1.0000
  O   O9        1.0  0.4800307313306361  0.8106203215839758  0.5319724988463221  1.0000
  O   O10       1.0  0.5199685328190852  0.31062136133403573  0.4680269068544192  1.0000
  O   O11       1.0  0.01997128357503899  0.3106201056113705  0.0319728326121407  1.0000
  O   O12       1.0  0.9800293598533969  0.810618245187797  0.9680272726599171  1.0000
