data_image0
_chemical_formula_structural       Mg2H44C20O4
_chemical_formula_sum              "Mg2 H44 C20 O4"
_cell_length_a       7.338641232985474
_cell_length_b       7.73892414162262
_cell_length_c       12.135441376214057
_cell_angle_alpha    104.63889772045883
_cell_angle_beta     90.00544277474343
_cell_angle_gamma    118.30732684800016

_space_group_name_H-M_alt    "P 1"
_space_group_IT_number       1

loop_
  _space_group_symop_operation_xyz
  'x, y, z'

loop_
  _atom_site_type_symbol
  _atom_site_label
  _atom_site_symmetry_multiplicity
  _atom_site_fract_x
  _atom_site_fract_y
  _atom_site_fract_z
  _atom_site_occupancy
  Mg  Mg1       1.0  0.28521091197232806  1.3006904914901169e-05  0.7499609322981442  1.0000
  Mg  Mg2       1.0  0.7147887141975389  0.9999872405481511  0.2500416429522403  1.0000
  H   H1        1.0  0.43442238855034526  0.42336890362106755  0.8435364149066444  1.0000
  H   H2        1.0  0.010852116919544172  0.5766584799897387  0.6562846702146885  1.0000
  H   H3        1.0  0.5655695068776154  0.5766267848975986  0.15645964838232373  1.0000
  H   H4        1.0  0.9891520268816053  0.4233371767631127  0.343716332454342  1.0000
  H   H5        1.0  0.15195083183045452  0.2558287914823509  0.956762675105459  1.0000
  H   H6        1.0  0.8964238637685468  0.744647114208817  0.5431257379329892  1.0000
  H   H7        1.0  0.8480501702353821  0.7441714831380962  0.043235784423920585  1.0000
  H   H8        1.0  0.10359016074838222  0.2553546770726811  0.4568754414067016  1.0000
  H   H9        1.0  0.9627867977068688  0.1324099613073457  0.8326092548251014  1.0000
  H   H10       1.0  0.8306311474986287  0.8679883079833459  0.6672604252751243  1.0000
  H   H11       1.0  0.03720661682599073  0.8675887644769064  0.16739142402164484  1.0000
  H   H12       1.0  0.16937938812233  0.13201195637596894  0.33273968091617695  1.0000
  H   H13       1.0  0.08370874157748892  0.4007067238222746  0.8903008804667679  1.0000
  H   H14       1.0  0.6830702372826422  0.5997010980890635  0.6094278471673533  1.0000
  H   H15       1.0  0.9162867991603248  0.599293528802292  0.10970087147789088  1.0000
  H   H16       1.0  0.3169397097252045  0.40030071461524847  0.3905700394037268  1.0000
  H   H17       1.0  0.37029164950296695  0.3712760121314106  0.6359508277026934  1.0000
  H   H18       1.0  0.9986446335246624  0.6284577163489117  0.8638203375583943  1.0000
  H   H19       1.0  0.6297017755938585  0.6287227353212546  0.36404655852686574  1.0000
  H   H20       1.0  0.0013540568714348578  0.37153793465935786  0.13618148806303046  1.0000
  H   H21       1.0  0.194683348682247  0.45117587622934247  0.6982859768608236  1.0000
  H   H22       1.0  0.7431854623581844  0.5487623807574664  0.8014145076314634  1.0000
  H   H23       1.0  0.8053129714154468  0.5488259356562964  0.3017119092055012  1.0000
  H   H24       1.0  0.2568153621658382  0.4512348133424381  0.19858592162498923  1.0000
  H   H25       1.0  0.1041662469930884  0.19062593781821852  0.626852778735369  1.0000
  H   H26       1.0  0.9133246860803367  0.8092164200548382  0.8730006910218222  1.0000
  H   H27       1.0  0.8958253937774501  0.8093774167497116  0.373143710713599  1.0000
  H   H28       1.0  0.08667809502979651  0.1907792366161445  0.1270003115967313  1.0000
  H   H29       1.0  0.24899192810548945  0.6860246956844802  0.537897856811071  1.0000
  H   H30       1.0  0.5629954472896374  0.3140065170139721  0.9621390286715867  1.0000
  H   H31       1.0  0.75100174372578  0.3139663694676075  0.4621015727213732  1.0000
  H   H32       1.0  0.4370115064738088  0.6860029344903468  0.037863399730028426  1.0000
  H   H33       1.0  0.5156947933218489  0.760943776755809  0.5176791583961916  1.0000
  H   H34       1.0  0.7547265870486582  0.23891378747626393  0.9821820338613564  1.0000
  H   H35       1.0  0.48429981692417085  0.23905189025816748  0.48232019761091743  1.0000
  H   H36       1.0  0.24528190430663002  0.7610987392133738  0.017819248017950422  1.0000
  H   H37       1.0  0.6810333708110363  0.2945917269785383  0.6663313490318289  1.0000
  H   H38       1.0  0.3859341712942808  0.7053462832050598  0.8336577293744227  1.0000
  H   H39       1.0  0.31895698174310644  0.7054008755206098  0.33366750708803755  1.0000
  H   H40       1.0  0.6140732146683946  0.2946585827705448  0.1663423031401194  1.0000
  H   H41       1.0  0.7735244793448641  0.12471841255780447  0.5944907799194823  1.0000
  H   H42       1.0  0.648492411498573  0.8752222943703812  0.9053131140536621  1.0000
  H   H43       1.0  0.22646799149125482  0.8752757005303379  0.4055116187612029  1.0000
  H   H44       1.0  0.35151497182310715  0.12478256618812371  0.094687741615175  1.0000
  C   C1        1.0  0.2856042142307018  0.2891057244723854  0.796209765307353  1.0000
  C   C2        1.0  0.9964060507252696  0.7109825666847199  0.7036572329080927  1.0000
  C   C3        1.0  0.714387082020174  0.710891490722858  0.2037873709785885  1.0000
  C   C4        1.0  0.0035980930758797358  0.28901309006813136  0.296343769760945  1.0000
  C   C5        1.0  0.11461760985493903  0.2693715386484286  0.8725871947633834  1.0000
  C   C6        1.0  0.8453817209475575  0.7309858046431685  0.6272605222150959  1.0000
  C   C7        1.0  0.8853787049607716  0.7306302624029964  0.12741233761153128  1.0000
  C   C8        1.0  0.15462744934139747  0.26901445421717796  0.3727404070800304  1.0000
  C   C9        1.0  0.23738356398236252  0.32801055569085946  0.6851920678390401  1.0000
  C   C10       1.0  0.9091348500873696  0.6719044070956884  0.8146001221928715  1.0000
  C   C11       1.0  0.7626092645783731  0.6719897238554964  0.3148055682331901  1.0000
  C   C12       1.0  0.09086946069163569  0.32809430850928584  0.185402203366273  1.0000
  C   C13       1.0  0.3931443596797237  0.8048118077745627  0.5188004791032483  1.0000
  C   C14       1.0  0.5882719997705265  0.1951808590623116  0.9811885898881414  1.0000
  C   C15       1.0  0.60685008094746  0.1951807949701845  0.4811983771680559  1.0000
  C   C16       1.0  0.4117404100389593  0.8048286036036885  0.018812192406777183  1.0000
  C   C17       1.0  0.6445876368736876  0.15976066427165148  0.5939896528767221  1.0000
  C   C18       1.0  0.4844886917128903  0.8401675697916529  0.905956673292728  1.0000
  C   C19       1.0  0.35540484188540233  0.8402334650678113  0.406010276341064  1.0000
  C   C20       1.0  0.5155258416605618  0.1598434142975549  0.0940460052544054  1.0000
  O   O1        1.0  0.4577255966617243  0.9895791126361143  0.6128981663174997  1.0000
  O   O2        1.0  0.46776926022999277  0.0103759785130109  0.8871607107710205  1.0000
  O   O3        1.0  0.5422639870964899  0.010411952270367002  0.3871012630635208  1.0000
  O   O4        1.0  0.5322375291965925  0.9896304195562846  0.1128395715861856  1.0000
