data_image0
_chemical_formula_structural       Zn3H26C42N4O14
_chemical_formula_sum              "Zn3 H26 C42 N4 O14"
_cell_length_a       7.809409792814708
_cell_length_b       10.661336036423016
_cell_length_c       12.012264796079442
_cell_angle_alpha    88.91076477233912
_cell_angle_beta     78.46339469634756
_cell_angle_gamma    68.71130204958125

_space_group_name_H-M_alt    "P 1"
_space_group_IT_number       1

loop_
  _space_group_symop_operation_xyz
  'x, y, z'

loop_
  _atom_site_type_symbol
  _atom_site_label
  _atom_site_symmetry_multiplicity
  _atom_site_fract_x
  _atom_site_fract_y
  _atom_site_fract_z
  _atom_site_occupancy
  Zn  Zn1       1.0  0.4999998917670538  0.500001057408788  0.5000001569716022  1.0000
  Zn  Zn2       1.0  0.811723931812438  0.7341007020787416  0.7174486638770149  1.0000
  Zn  Zn3       1.0  0.1882742450565402  0.2658994003704933  0.2825510801774557  1.0000
  H   H1        1.0  0.48797851950890686  0.6498036089995838  0.6557046780247405  1.0000
  H   H2        1.0  0.5120214771616106  0.35019548657463406  0.3442956811131098  1.0000
  H   H3        1.0  0.27227284475091557  0.6686470925997838  0.6816995991249116  1.0000
  H   H4        1.0  0.7277274464457409  0.33135401386113733  0.31830067188004574  1.0000
  H   H5        1.0  0.7014272812764658  0.3934096990229535  0.14806906786105867  1.0000
  H   H6        1.0  0.2985758404712228  0.6065883692331157  0.851930068288745  1.0000
  H   H7        1.0  0.43306637035871626  0.986965970206555  0.8415617701731579  1.0000
  H   H8        1.0  0.566931305711087  0.013035162524119001  0.15844051291261968  1.0000
  H   H9        1.0  0.24301165749826498  0.8439753586515762  0.16459820159140295  1.0000
  H   H10       1.0  0.7569896535990422  0.15602374571254535  0.835403647599094  1.0000
  H   H11       1.0  0.19906115774885086  0.027208340869982802  0.027524831279087905  1.0000
  H   H12       1.0  0.8009367291695713  0.9727897653090736  0.9724766649703229  1.0000
  H   H13       1.0  0.4376015414482098  0.6070500609037454  0.21123928203073922  1.0000
  H   H14       1.0  0.5624050067661557  0.3929490128456551  0.7887610390911705  1.0000
  H   H15       1.0  0.19243174322311063  0.24226714175890862  0.8085107448143846  1.0000
  H   H16       1.0  0.8075703631995028  0.7577329432104775  0.1914884772119124  1.0000
  H   H17       1.0  0.9811579088697259  0.25542957943586936  0.001966019905125909  1.0000
  H   H18       1.0  0.018842883126104975  0.7445704967436128  0.9980317120685245  1.0000
  H   H19       1.0  0.12545703233319472  0.444979372377432  0.6932658531010959  1.0000
  H   H20       1.0  0.8745458785658826  0.5550217224302544  0.30673406988507423  1.0000
  H   H21       1.0  0.34116479840831465  0.9034982506904969  0.6971738122221682  1.0000
  H   H22       1.0  0.6588338906987802  0.0965008580186009  0.3028275529560959  1.0000
  H   H23       1.0  0.8081660086948406  0.14285641282597794  0.6199069211825121  1.0000
  H   H24       1.0  0.19183166051160339  0.857144697979912  0.3800928658102053  1.0000
  H   H25       1.0  0.47762028172508764  0.0671348799115563  0.6062989813758792  1.0000
  H   H26       1.0  0.5223779042950413  0.9328652517707213  0.39370409080267177  1.0000
  C   C1        1.0  0.6146983359233149  0.6925177693196363  0.9462025523098206  1.0000
  C   C2        1.0  0.3853045726879786  0.3074833181797914  0.05379653864532942  1.0000
  C   C3        1.0  0.6754885806667872  0.4768880835192562  0.09234013539476396  1.0000
  C   C4        1.0  0.3245130203810831  0.523113017115044  0.9076599616007929  1.0000
  C   C5        1.0  0.44519778049254205  0.9086321196161223  0.9024694085328167  1.0000
  C   C6        1.0  0.5547987942868745  0.09136598508128911  0.09753142969497473  1.0000
  C   C7        1.0  0.3398395385531218  0.8297073467079344  0.0826678126056066  1.0000
  C   C8        1.0  0.6601630801076086  0.1702917445213146  0.9173330305444767  1.0000
  C   C9        1.0  0.31544903037104194  0.930748777376877  0.006669644780515713  1.0000
  C   C10       1.0  0.6845499532621845  0.06925234221891693  0.9933316322648482  1.0000
  C   C11       1.0  0.528307958921381  0.5956761170185132  0.12712933496192144  1.0000
  C   C12       1.0  0.47169495426548746  0.4043249850974391  0.8728714200552689  1.0000
  C   C13       1.0  0.07132005694791131  0.33276433539572287  0.8415419543373094  1.0000
  C   C14       1.0  0.928683359325923  0.6672357437470495  0.15845709367959432  1.0000
  C   C15       1.0  0.4930273827882345  0.7059655374196652  0.0541603796528705  1.0000
  C   C16       1.0  0.5069781409499043  0.29403552381000964  0.9458366992214525  1.0000
  C   C17       1.0  0.9559215160603076  0.3396758477288486  0.9464503722877426  1.0000
  C   C18       1.0  0.044079278223307504  0.6603242357588927  0.05354819171692781  1.0000
  C   C19       1.0  0.03402782069318995  0.4460318644840058  0.7749668221016182  1.0000
  C   C20       1.0  0.9659742880172146  0.5539682277936464  0.22503323195569894  1.0000
  C   C21       1.0  0.8006345122054485  0.4601929960214833  0.9845405126818465  1.0000
  C   C22       1.0  0.19936940944313622  0.539806067456368  0.015457660365790113  1.0000
  C   C23       1.0  0.7719102027464544  0.5683994809147068  0.9115148447794044  1.0000
  C   C24       1.0  0.22809008616241042  0.4316016182379556  0.0884845941945258  1.0000
  C   C25       1.0  0.9006714075714937  0.331884598617954  0.5095445790084556  1.0000
  C   C26       1.0  0.09932727924780947  0.6681145027828849  0.4904559541387884  1.0000
  C   C27       1.0  0.2227798436361114  0.1927992168306574  0.5545904415662406  1.0000
  C   C28       1.0  0.7772175333319782  0.8071998903967954  0.44541026559039676  1.0000
  C   C29       1.0  0.989204683112476  0.9083196347883131  0.7146290400430433  1.0000
  C   C30       1.0  0.010790876341864904  0.09168048662241551  0.28537188406123454  1.0000
  C   C31       1.0  0.2543628347036276  0.9922839393231304  0.6609713075213508  1.0000
  C   C32       1.0  0.7456371619668901  0.007715156251087802  0.3390290516165067  1.0000
  C   C33       1.0  0.955462060363118  0.12527504600455333  0.6168255215728211  1.0000
  C   C34       1.0  0.04453611879365121  0.8747250637529478  0.3831750545126767  1.0000
  C   C35       1.0  0.33087207712932104  0.08290026269206412  0.608372733876344  1.0000
  C   C36       1.0  0.6691247944640184  0.9170998602003025  0.39162884824956024  1.0000
  C   C37       1.0  0.3236075137140163  0.2803760512579814  0.4959944232689752  1.0000
  C   C38       1.0  0.6763921884303628  0.7196210334295403  0.5040060240017754  1.0000
  C   C39       1.0  0.03162755136858661  0.21550105876392683  0.5609212955216594  1.0000
  C   C40       1.0  0.9683732474906037  0.7844990393403395  0.4390789325450443  1.0000
  C   C41       1.0  0.06578229450281732  0.011979741227889902  0.6648366178971586  1.0000
  C   C42       1.0  0.9342140694279879  0.9880213900211459  0.3351650071669924  1.0000
  N   N1        1.0  0.5899696871603269  0.7928664383172972  0.8728919604244042  1.0000
  N   N2        1.0  0.4100313970738513  0.20713564144062255  0.1271048513853188  1.0000
  N   N3        1.0  0.8880502715801201  0.5603365208013855  0.8092205655134423  1.0000
  N   N4        1.0  0.11195132717995901  0.43966457252465574  0.19077869945109438  1.0000
  O   O1        1.0  0.8264249888265172  0.9190409331714237  0.6978537291937174  1.0000
  O   O2        1.0  0.17357581232046473  0.08095917224110141  0.3021473309040133  1.0000
  O   O3        1.0  0.08651594617682418  0.8133047008713208  0.7666768233989174  1.0000
  O   O4        1.0  0.913480916265364  0.18669539278801042  0.23332143060290636  1.0000
  O   O5        1.0  0.7337255565626961  0.3839967009758284  0.5668783372519217  1.0000
  O   O6        1.0  0.26627393244528014  0.6160034029550518  0.43312206482418264  1.0000
  O   O7        1.0  0.9591798607564217  0.3688649133896576  0.41260689617516993  1.0000
  O   O8        1.0  0.04081912058902047  0.6311361988978775  0.5873935488391739  1.0000
  O   O9        1.0  0.3598975122850946  0.2771261455429439  0.38598317131529586  1.0000
  O   O10       1.0  0.6400990579187464  0.7228719445379498  0.6140160028504484  1.0000
  O   O11       1.0  0.38012127982714367  0.3442958736598314  0.5575668039641644  1.0000
  O   O12       1.0  0.6198810374440881  0.6557011847579305  0.44243163122576606  1.0000
  O   O13       1.0  0.4002647492685157  0.5996827458110802  0.6611629810966378  1.0000
  O   O14       1.0  0.5997329222257123  0.4003183723030688  0.3388376379271066  1.0000
