data_image0
_chemical_formula_structural       Zn16H32C104S16O68
_chemical_formula_sum              "Zn16 H32 C104 S16 O68"
_cell_length_a       19.662632762858436
_cell_length_b       19.651463541872392
_cell_length_c       33.340372451151076
_cell_angle_alpha    79.10696896721699
_cell_angle_beta     79.04939164384852
_cell_angle_gamma    63.79527512186067

_space_group_name_H-M_alt    "P 1"
_space_group_IT_number       1

loop_
  _space_group_symop_operation_xyz
  'x, y, z'

loop_
  _atom_site_type_symbol
  _atom_site_label
  _atom_site_symmetry_multiplicity
  _atom_site_fract_x
  _atom_site_fract_y
  _atom_site_fract_z
  _atom_site_occupancy
  Zn  Zn1       1.0  0.05521449066509379  0.4013707459489595  0.4781894297736216  1.0000
  Zn  Zn2       1.0  0.9832227678200027  0.48461996548361  0.5612485427275473  1.0000
  Zn  Zn3       1.0  0.05876595215470809  0.561634745626989  0.48459521720702975  1.0000
  Zn  Zn4       1.0  0.900138914245872  0.5530326083117458  0.47937621816882364  1.0000
  Zn  Zn5       1.0  0.6960050253319211  0.34905410003597126  0.2720002817203592  1.0000
  Zn  Zn6       1.0  0.6896772784130221  0.18956693117170448  0.2669132832429497  1.0000
  Zn  Zn7       1.0  0.7674024665699265  0.2644824066873569  0.18999041111298706  1.0000
  Zn  Zn8       1.0  0.8481908761114026  0.19411978357056356  0.2735422531212707  1.0000
  Zn  Zn9       1.0  0.26480337530558984  0.7674084465032252  0.690100455042483  1.0000
  Zn  Zn10      1.0  0.34780729728652204  0.6969431267165476  0.7723816522184633  1.0000
  Zn  Zn11      1.0  0.1936251680054326  0.849431872056641  0.7724609743242964  1.0000
  Zn  Zn12      1.0  0.1908329960331798  0.6877262656621567  0.7665751432907371  1.0000
  Zn  Zn13      1.0  0.560566711370555  0.059657343486939914  0.9839959901591656  1.0000
  Zn  Zn14      1.0  0.4006660279639362  0.055476716108493855  0.9785123157521127  1.0000
  Zn  Zn15      1.0  0.5538392068488915  0.901246438780383  0.9781742438345589  1.0000
  Zn  Zn16      1.0  0.4833822940514807  0.9835353699249723  0.0607833550573886  1.0000
  H   H1        1.0  0.7986237952757449  0.5041714724437868  0.3976274863275933  1.0000
  H   H2        1.0  0.9560519773020104  0.248841500555912  0.3492490099900394  1.0000
  H   H3        1.0  0.7494584453206554  0.4562808947085202  0.3499720471099367  1.0000
  H   H4        1.0  0.0043125318242261  0.29590257945866943  0.3977790790310038  1.0000
  H   H5        1.0  0.14782588640562014  0.6573015121578151  0.5497371229336494  1.0000
  H   H6        1.0  0.09671745422678407  0.5977300984805963  0.7013431120539194  1.0000
  H   H7        1.0  0.19578189299149074  0.7054740105907555  0.5979212107883995  1.0000
  H   H8        1.0  0.05119952819661929  0.5472214504164654  0.6531738457882028  1.0000
  H   H9        1.0  0.46538432455216844  0.2396006947816359  0.3430449845608692  1.0000
  H   H10       1.0  0.47829755256812934  0.7066468914183659  0.6024273625177727  1.0000
  H   H11       1.0  0.19653164302984996  0.9795584179075617  0.6025057164888069  1.0000
  H   H12       1.0  0.9465052355339335  0.9695838947179495  0.34963843136295475  1.0000
  H   H13       1.0  0.7054535904513558  0.1955515957850123  0.09793465994927429  1.0000
  H   H14       1.0  0.5485020287358466  0.04969633851351326  0.153028978600517  1.0000
  H   H15       1.0  0.655349985751606  0.1496704655618471  0.0496990429183768  1.0000
  H   H16       1.0  0.5978140275371828  0.09639342530826406  0.2012385091080802  1.0000
  H   H17       1.0  0.5447134098819645  0.7695677132068968  0.14856659265108615  1.0000
  H   H18       1.0  0.16202452807222298  0.1445794410809143  0.0412475599667843  1.0000
  H   H19       1.0  0.24499110562713614  0.9562256925280646  0.8520311112324421  1.0000
  H   H20       1.0  0.501174606817969  0.7972004855884263  0.8985771286981644  1.0000
  H   H21       1.0  0.2936776629994213  0.0035365349445938524  0.9002837555345167  1.0000
  H   H22       1.0  0.45312847365781295  0.7505476609213632  0.8497256331813716  1.0000
  H   H23       1.0  0.30164230623574173  0.28073604191762763  0.9026629402422514  1.0000
  H   H24       1.0  0.7868010813151046  0.008314959823479701  0.9097996652583689  1.0000
  H   H25       1.0  0.36456858061558955  0.506212025568594  0.43124185979964846  1.0000
  H   H26       1.0  0.7524646433684409  0.6042056027108131  0.6866113425307817  1.0000
  H   H27       1.0  0.9697351566508701  0.2610075395100394  0.6796688807801985  1.0000
  H   H28       1.0  0.714924364525885  0.8590683059395654  0.4208442498428795  1.0000
  H   H29       1.0  0.6379790232227266  0.5016879821719085  0.06359287417056689  1.0000
  H   H30       1.0  0.1499237366563406  0.006809923592470582  0.21208962036493517  1.0000
  H   H31       1.0  0.47401522053888095  0.45830775292319703  0.9003813093185187  1.0000
  H   H32       1.0  0.9496512133311511  0.6844058543212482  0.8911802899694125  1.0000
  C   C1        1.0  0.060441456510915315  0.3173989460291224  0.5615063250536139  1.0000
  C   C2        1.0  0.0681073637356562  0.5712875514779794  0.5700871045939736  1.0000
  C   C3        1.0  0.18336098991413513  0.44077522291924953  0.43944266101130575  1.0000
  C   C4        1.0  0.9367519772113936  0.6816396521590347  0.43905291390130696  1.0000
  C   C5        1.0  0.9321306468968517  0.42997786985371517  0.43011124048150146  1.0000
  C   C6        1.0  0.8158975487853013  0.559563231130504  0.5625196883950849  1.0000
  C   C7        1.0  0.5650621575044567  0.3130588590583513  0.310361881026644  1.0000
  C   C8        1.0  0.6837145882493231  0.176424557783136  0.1810154343366293  1.0000
  C   C9        1.0  0.6885903440210797  0.43184037034409767  0.18815854593567144  1.0000
  C   C10       1.0  0.9334856662734694  0.19022288968056952  0.19031907030656467  1.0000
  C   C11       1.0  0.8200602270046177  0.32058898651245465  0.3192668345262391  1.0000
  C   C12       1.0  0.8100510606943844  0.06520333875194234  0.3123578313699795  1.0000
  C   C13       1.0  0.43216961665204684  0.6861898885773314  0.6889582625108872  1.0000
  C   C14       1.0  0.31744001938916705  0.8222813323480337  0.8195640124939914  1.0000
  C   C15       1.0  0.1892971425275647  0.9352610585330295  0.6894208768198666  1.0000
  C   C16       1.0  0.0669774445332223  0.809069734215171  0.811657422328949  1.0000
  C   C17       1.0  0.17743719322860582  0.683031823762505  0.6808920981344073  1.0000
  C   C18       1.0  0.3135623062918782  0.5663985370361146  0.8111327737662818  1.0000
  C   C19       1.0  0.4395680441982678  0.1833484978886445  0.9383807646795432  1.0000
  C   C20       1.0  0.42878413830209894  0.9308616392206659  0.9311553302136772  1.0000
  C   C21       1.0  0.6830604683944941  0.9384087947656633  0.9382337117444167  1.0000
  C   C22       1.0  0.5625061356294766  0.8159200988835378  0.06174567082953793  1.0000
  C   C23       1.0  0.5696652451385589  0.06928703635604444  0.06997407978515473  1.0000
  C   C24       1.0  0.31529115948319497  0.06342759360997965  0.0617447420936728  1.0000
  C   C25       1.0  0.9038414812118275  0.40227884652632195  0.4008251503948372  1.0000
  C   C26       1.0  0.8496118479853935  0.34951215647683403  0.34725034479826883  1.0000
  C   C27       1.0  0.8322245371020714  0.4480998027964489  0.3871731930620755  1.0000
  C   C28       1.0  0.921787179323985  0.30425328907436006  0.36034807445994227  1.0000
  C   C29       1.0  0.8051390488412196  0.4216532713739411  0.3606352644034772  1.0000
  C   C30       1.0  0.9486040062057699  0.33045775605395955  0.38714288290249493  1.0000
  C   C31       1.0  0.09656647445736871  0.5998800513384025  0.5987713070013143  1.0000
  C   C32       1.0  0.1489454005792084  0.6542937066501222  0.652318775221474  1.0000
  C   C33       1.0  0.1372722933986807  0.6444351437880939  0.582957261985122  1.0000
  C   C34       1.0  0.1079850403772014  0.6099949096311404  0.6681300125227452  1.0000
  C   C35       1.0  0.1636860420362183  0.6712076029591572  0.6096298900569295  1.0000
  C   C36       1.0  0.0823209505995095  0.5824259690445146  0.6414394370011962  1.0000
  C   C37       1.0  0.29981526329150643  0.46022212493153336  0.3980962777906996  1.0000
  C   C38       1.0  0.4464858811583595  0.2979612896072227  0.3493314867929058  1.0000
  C   C39       1.0  0.2569257102069926  0.41826896550768555  0.4127062846064078  1.0000
  C   C40       1.0  0.48960748335396437  0.33924814216452126  0.33499297853256144  1.0000
  C   C41       1.0  0.37755823278159534  0.34166840517052327  0.3724141347679577  1.0000
  C   C42       1.0  0.3694052320346941  0.4157832593569494  0.37523482276394304  1.0000
  C   C43       1.0  0.725719450762348  0.5662841721766939  0.6301509344996816  1.0000
  C   C44       1.0  0.5230042229334445  0.6735841279402378  0.6221637320861291  1.0000
  C   C45       1.0  0.741000891871252  0.5811372375106033  0.5877705210474744  1.0000
  C   C46       1.0  0.507558319868096  0.6594605587542404  0.6643555867073516  1.0000
  C   C47       1.0  0.6023161215581965  0.6399908997383931  0.6096477433936373  1.0000
  C   C48       1.0  0.6459161266660872  0.6007570571390344  0.6427109528640145  1.0000
  C   C49       1.0  0.0808849758388064  0.22869275056221736  0.6297636560455615  1.0000
  C   C50       1.0  0.1708053377401058  0.024968297426340786  0.6222299351007692  1.0000
  C   C51       1.0  0.0871811783430587  0.24289048798959104  0.5870783486713905  1.0000
  C   C52       1.0  0.16441299905017812  0.010522150490089588  0.6646905874617914  1.0000
  C   C53       1.0  0.13996897945023792  0.10424274174985018  0.6094248642601698  1.0000
  C   C54       1.0  0.110623780642932  0.148911424170862  0.6425104801147015  1.0000
  C   C55       1.0  0.844255337638046  0.7951635907601042  0.39467635487721964  1.0000
  C   C56       1.0  0.9030834956040151  0.948135851714852  0.353032787907715  1.0000
  C   C57       1.0  0.9123698320787667  0.7546973792951804  0.41192530685759005  1.0000
  C   C58       1.0  0.835056227237601  0.989177557505087  0.3363017345783703  1.0000
  C   C59       1.0  0.9066225365828798  0.8775547002080015  0.3742927949514794  1.0000
  C   C60       1.0  0.8409057284767344  0.8660997646975513  0.37335228820366956  1.0000
  C   C61       1.0  0.654455724126869  0.14853542258101976  0.15230867805526324  1.0000
  C   C62       1.0  0.5990992534591868  0.09706072130032334  0.0986322968729993  1.0000
  C   C63       1.0  0.6709737171309057  0.1636567412719784  0.10962057248271864  1.0000
  C   C64       1.0  0.5827659354077143  0.08178803366163821  0.141315221484156  1.0000
  C   C65       1.0  0.6432490794708912  0.1382088684599978  0.0829099870958387  1.0000
  C   C66       1.0  0.6101456683414385  0.10757613243222139  0.1680240278444955  1.0000
  C   C67       1.0  0.6806418787409997  0.5218108667140129  0.12012515898092599  1.0000
  C   C68       1.0  0.5762558959379831  0.7248994839109102  0.12859560575547851  1.0000
  C   C69       1.0  0.667217176786643  0.5065542724896515  0.1626334056934269  1.0000
  C   C70       1.0  0.5887317829733051  0.7404636221963654  0.08633405835653464  1.0000
  C   C71       1.0  0.609314986687437  0.6454532436945115  0.14095679821618026  1.0000
  C   C72       1.0  0.6466607566406068  0.6017330982207836  0.10774767646691434  1.0000
  C   C73       1.0  0.0807169255463691  0.13065804763289887  0.1796520881616317  1.0000
  C   C74       1.0  0.1695267532749796  0.12872582458593476  0.07369865334467819  1.0000
  C   C75       1.0  0.009185765280143704  0.168783423774741  0.1658629129141787  1.0000
  C   C76       1.0  0.2407376005455077  0.08975104268994724  0.0872086963433816  1.0000
  C   C77       1.0  0.11112848900543779  0.14350560204788107  0.1072282781348903  1.0000
  C   C78       1.0  0.13915841542261384  0.11553896986215045  0.1458178074014143  1.0000
  C   C79       1.0  0.3462041222977703  0.8506526769191113  0.8482710941312703  1.0000
  C   C80       1.0  0.40003096197197147  0.9029126257798479  0.9022820595468275  1.0000
  C   C81       1.0  0.3009514278917251  0.921975494611814  0.8624122267223271  1.0000
  C   C82       1.0  0.4452535290268003  0.8315354887121768  0.8881600167904438  1.0000
  C   C83       1.0  0.3278741153792383  0.9481213628795401  0.8891754671448026  1.0000
  C   C84       1.0  0.41859427312823533  0.8056483284062566  0.8611455559093103  1.0000
  C   C85       1.0  0.41119196199385044  0.4471031575967711  0.8498413009266558  1.0000
  C   C86       1.0  0.34695610587124287  0.300025424566897  0.8972534555566726  1.0000
  C   C87       1.0  0.3413469588750573  0.4895996760563362  0.8345537248449801  1.0000
  C   C88       1.0  0.4160154250884389  0.25776225467774344  0.9128074023017518  1.0000
  C   C89       1.0  0.3449674943313923  0.36895574866863257  0.8744111720368863  1.0000
  C   C90       1.0  0.4128092163644937  0.37801061897584987  0.8729978709014644  1.0000
  C   C91       1.0  0.9439894694798099  0.7949135949758742  0.846331395045766  1.0000
  C   C92       1.0  0.8032253279027586  0.9521182741107312  0.9010024490310826  1.0000
  C   C93       1.0  0.9899723191529902  0.8342499756510829  0.8348701510147478  1.0000
  C   C94       1.0  0.7576215544303723  0.9129769463051074  0.9127607745500441  1.0000
  C   C95       1.0  0.8711420485043888  0.9092551094441882  0.876937078907588  1.0000
  C   C96       1.0  0.8759935244923581  0.8380005618143822  0.870780293121662  1.0000
  C   C97       1.0  0.27590181130098296  0.5424542544209672  0.40263345419192825  1.0000
  C   C98       1.0  0.7834252991616778  0.5154368307391977  0.6588443727004217  1.0000
  C   C99       1.0  0.055017531390184594  0.28708711240827267  0.6591776444914288  1.0000
  C   C100      1.0  0.7836270364293155  0.7680775109321232  0.395613270318826  1.0000
  C   C101      1.0  0.7284633429569638  0.4641824001073259  0.09084708361593391  1.0000
  C   C102      1.0  0.0965570306902066  0.11176148487785298  0.22359470849909258  1.0000
  C   C103      1.0  0.4783293149485744  0.4669614452041342  0.8412938197191977  1.0000
  C   C104      1.0  0.9593630482888997  0.7201235066601581  0.8331199648444995  1.0000
  S   S1        1.0  0.2998030186518506  0.3267918541762995  0.3981922500532775  1.0000
  S   S2        1.0  0.4468077761763212  0.43138037320989747  0.3490418932188035  1.0000
  S   S3        1.0  0.6596726502858985  0.6346145345208142  0.5633465869714344  1.0000
  S   S4        1.0  0.5886144722254087  0.6047974058015912  0.6891426933449054  1.0000
  S   S5        1.0  0.1300187437848024  0.1606419116695221  0.5627397340983791  1.0000
  S   S6        1.0  0.12148010972349968  0.09264327043339896  0.68937679324209  1.0000
  S   S7        1.0  0.9721678576594144  0.8011347600341663  0.4015221956940138  1.0000
  S   S8        1.0  0.7752753310114783  0.9423357116235205  0.3457433507719969  1.0000
  S   S9        1.0  0.6155865905518922  0.5880092455259458  0.18722598903293894  1.0000
  S   S10       1.0  0.6411886701630535  0.6591940455129475  0.061302468052737424  1.0000
  S   S11       1.0  0.012910867448169898  0.18776015987447883  0.11271035956852418  1.0000
  S   S12       1.0  0.23763875674836038  0.07150713739977729  0.1405480062436837  1.0000
  S   S13       1.0  0.2793111150458714  0.4456455241146244  0.8473589054820181  1.0000
  S   S14       1.0  0.4792919601619801  0.30068706705559106  0.8995526219018685  1.0000
  S   S15       1.0  0.9504913558656224  0.9227833042421951  0.8528185998000097  1.0000
  S   S16       1.0  0.7960857023110818  0.8245307668034982  0.8944494293040393  1.0000
  O   O1        1.0  0.9998271941941467  0.4997627117723694  0.5005839734650479  1.0000
  O   O2        1.0  0.0833910870447241  0.31624876389309264  0.5229211453414493  1.0000
  O   O3        1.0  0.036085503298672  0.526831517799863  0.5861518122273209  1.0000
  O   O4        1.0  0.15993984159754146  0.5018491200093252  0.45589712950393146  1.0000
  O   O5        1.0  0.016516817169787108  0.3752983440869641  0.5800704666676211  1.0000
  O   O6        1.0  0.15094800181411466  0.39547861543990576  0.4438420134943186  1.0000
  O   O7        1.0  0.07791257418178789  0.5938255410634523  0.5317364822888493  1.0000
  O   O8        1.0  0.0062047364817203994  0.6520656654283314  0.4463978608480446  1.0000
  O   O9        1.0  0.8894626613469043  0.49670250184922765  0.44035316354686677  1.0000
  O   O10       1.0  0.8865664725810731  0.6560486762476644  0.4531141183583714  1.0000
  O   O11       1.0  0.9964473041659402  0.3846123029167572  0.4426933708422283  1.0000
  O   O12       1.0  0.8740635186815098  0.5361828990998557  0.5814901264355825  1.0000
  O   O13       1.0  0.8147207727307445  0.5677892152045132  0.5236259125146887  1.0000
  O   O14       1.0  0.7501102591429074  0.2496260352261999  0.2504864899420412  1.0000
  O   O15       1.0  0.5947454470795464  0.3611513901519672  0.3007681209853245  1.0000
  O   O16       1.0  0.6623011884207131  0.1654770554258249  0.2193717434747668  1.0000
  O   O17       1.0  0.7129312046870736  0.3731487421297501  0.16945331863266938  1.0000
  O   O18       1.0  0.5937526588230713  0.24502398203816958  0.30096310131605714  1.0000
  O   O19       1.0  0.6791860313682321  0.43388077817056103  0.22700988393600605  1.0000
  O   O20       1.0  0.7276705136410727  0.20906438440276523  0.16483146414383046  1.0000
  O   O21       1.0  0.8764672162324274  0.23295743190882937  0.1705321077299331  1.0000
  O   O22       1.0  0.8639437921678449  0.255068161635279  0.30767086665628085  1.0000
  O   O23       1.0  0.9318126570655493  0.16330655267712058  0.2281455180391277  1.0000
  O   O24       1.0  0.7530566437242641  0.36337832775404166  0.30930224641360843  1.0000
  O   O25       1.0  0.7446966045075242  0.09176153480692766  0.29948120348248614  1.0000
  O   O26       1.0  0.8554554846845334  0.09749856336426879  0.3066898960788649  1.0000
  O   O27       1.0  0.24881803578962547  0.7506958008876978  0.7505139755189632  1.0000
  O   O28       1.0  0.3743595865678487  0.7256277991903485  0.6694121123320613  1.0000
  O   O29       1.0  0.3641505739519104  0.7601690837371533  0.8051574422017681  1.0000
  O   O30       1.0  0.1761394025398815  0.9354077166349692  0.7285206269704075  1.0000
  O   O31       1.0  0.43200895424656943  0.6673618982715368  0.7278549140131432  1.0000
  O   O32       1.0  0.22157742345579828  0.8770562304119167  0.669693403420581  1.0000
  O   O33       1.0  0.24859516580185206  0.862276735576934  0.8118373759815185  1.0000
  O   O34       1.0  0.09170871738967888  0.8608434485352633  0.799978478948475  1.0000
  O   O35       1.0  0.15992915200127564  0.6680623015989937  0.7193825024660399  1.0000
  O   O36       1.0  0.10175502321705207  0.738910338862425  0.806111682898738  1.0000
  O   O37       1.0  0.21724711447595269  0.7201806986564562  0.6645788151018408  1.0000
  O   O38       1.0  0.3519728850041873  0.6048645684219807  0.8095863117193431  1.0000
  O   O39       1.0  0.252102417311832  0.5872382902896119  0.7951937295174787  1.0000
  O   O40       1.0  0.49953546010973343  0.9999896166138811  0.00038772666149360546  1.0000
  O   O41       1.0  0.5065855315860617  0.15501559936966908  0.9493565675116855  1.0000
  O   O42       1.0  0.3860533910195016  0.9974119221793598  0.9417592895997019  1.0000
  O   O43       1.0  0.6507406586237537  0.8926372443996726  0.9450518816198609  1.0000
  O   O44       1.0  0.3912815641912529  0.1541371164600848  0.9472547661289781  1.0000
  O   O45       1.0  0.657737137118623  0.003386129767925265  0.9511522915768539  1.0000
  O   O46       1.0  0.4938169611448232  0.885988486034719  0.9429801398060249  1.0000
  O   O47       1.0  0.5800098395283797  0.8159974355913985  0.022758896232161936  1.0000
  O   O48       1.0  0.531461119643417  0.030552812434123774  0.0862603239268296  1.0000
  O   O49       1.0  0.5248862257536545  0.8739140393099374  0.08140831938838741  1.0000
  O   O50       1.0  0.5851040708498801  0.08640089515277065  0.031468379563946804  1.0000
  O   O51       1.0  0.31471232803668403  0.07905305376819176  0.02283363747557129  1.0000
  O   O52       1.0  0.37385077213396306  0.02713086370845015  0.0811957381485939  1.0000
  O   O53       1.0  0.3250561628280765  0.5550819361805208  0.4211942715644099  1.0000
  O   O54       1.0  0.2208680286922799  0.5953356749640192  0.3892862623618072  1.0000
  O   O55       1.0  0.7858036856873625  0.5495829615786008  0.6903175566031052  1.0000
  O   O56       1.0  0.8225638619360397  0.448060821002052  0.6565972114615803  1.0000
  O   O57       1.0  0.9940286110787468  0.28990449111147854  0.687300241026918  1.0000
  O   O58       1.0  0.08863958460240438  0.32536150999325025  0.6605068796530773  1.0000
  O   O59       1.0  0.7118559950048464  0.8173643056396571  0.41038397820415895  1.0000
  O   O60       1.0  0.7934935121583423  0.7105041568174071  0.38264062893793493  1.0000
  O   O61       1.0  0.6917686924923672  0.4659766090538042  0.059332609273468506  1.0000
  O   O62       1.0  0.7951782314552672  0.42157999429682746  0.09239476804668811  1.0000
  O   O63       1.0  0.14133561223209062  0.036193296438867206  0.2346295905300124  1.0000
  O   O64       1.0  0.0764622101112877  0.15803607371142897  0.2476471353672451  1.0000
  O   O65       1.0  0.5070782494957058  0.46625682214212083  0.8758257033470612  1.0000
  O   O66       1.0  0.5089313639092551  0.47892341618508283  0.8073548603745806  1.0000
  O   O67       1.0  0.9559376123212502  0.6657770051450529  0.8649121289733798  1.0000
  O   O68       1.0  0.9698799891075963  0.7076903808295896  0.7977605189593078  1.0000
