data_image0
_chemical_formula_structural       ZnNiH32C24N12
_chemical_formula_sum              "Zn1 Ni1 H32 C24 N12"
_cell_length_a       8.679489708121933
_cell_length_b       9.16090464685622
_cell_length_c       11.128389839000924
_cell_angle_alpha    110.94442190209209
_cell_angle_beta     110.13493823067788
_cell_angle_gamma    104.668359907717

_space_group_name_H-M_alt    "P 1"
_space_group_IT_number       1

loop_
  _space_group_symop_operation_xyz
  'x, y, z'

loop_
  _atom_site_type_symbol
  _atom_site_label
  _atom_site_symmetry_multiplicity
  _atom_site_fract_x
  _atom_site_fract_y
  _atom_site_fract_z
  _atom_site_occupancy
  Zn  Zn1       1.0  0.9999987597318025  0.4999970741074264  0.9999972578063563  1.0000
  Ni  Ni1       1.0  0.4999886065995014  0.9999756468618058  0.5000030079911753  1.0000
  H   H1        1.0  0.0024148822923209267  0.2496946534453457  0.6820489994058789  1.0000
  H   H2        1.0  0.997592919729847  0.7503082106237355  0.3179531305884566  1.0000
  H   H3        1.0  0.2522343930883791  0.10614967549084746  0.7003662998465855  1.0000
  H   H4        1.0  0.7477732531226379  0.8938564861833312  0.29962947408428425  1.0000
  H   H5        1.0  0.35917212010459554  0.43815550656621827  0.12722250359752252  1.0000
  H   H6        1.0  0.6408394085426677  0.561851010251928  0.8727761510620696  1.0000
  H   H7        1.0  0.4365401936760092  0.07296018150232438  0.9399981218993146  1.0000
  H   H8        1.0  0.5634867625525003  0.927058082762848  0.0599994950424191  1.0000
  H   H9        1.0  0.595624047049  0.25093064127311476  0.952856463563954  1.0000
  H   H10       1.0  0.40439377504785756  0.7490950900523924  0.04714802907291464  1.0000
  H   H11       1.0  0.6969433473085686  0.2573782615700749  0.1945113532706131  1.0000
  H   H12       1.0  0.303071275515599  0.7426360586792528  0.805491074281619  1.0000
  H   H13       1.0  0.4969586194164677  0.2640988922596676  0.19716057059200412  1.0000
  H   H14       1.0  0.50304075418979  0.7359017852603386  0.8028325351180214  1.0000
  H   H15       1.0  0.6572411748091581  0.4412270216396265  0.2067813699773852  1.0000
  H   H16       1.0  0.34276583895366736  0.5587832907166613  0.7932216521808685  1.0000
  H   H17       1.0  0.8672962602328055  0.09863694147307461  0.9496024720630062  1.0000
  H   H18       1.0  0.13271796329442506  0.9013573832610005  0.05039720531810587  1.0000
  H   H19       1.0  0.9646499104827554  0.02777482920604511  0.18226307356878388  1.0000
  H   H20       1.0  0.035357436721547265  0.9722268066338129  0.8177395122030474  1.0000
  H   H21       1.0  0.15579018744061562  0.5679946457124884  0.35051291013130037  1.0000
  H   H22       1.0  0.844202188466319  0.4320034381676407  0.6494831233605183  1.0000
  H   H23       1.0  0.05468325750619131  0.2568291279016961  0.46937996935069753  1.0000
  H   H24       1.0  0.9453081525110745  0.743181783176986  0.5306237487549196  1.0000
  H   H25       1.0  0.20049042490987998  0.4713733489680861  0.5303133784364107  1.0000
  H   H26       1.0  0.7995014602784208  0.5286297417755107  0.46968386959874653  1.0000
  H   H27       1.0  0.3822887332490694  0.31768246084015317  0.6106947673758754  1.0000
  H   H28       1.0  0.617705947842424  0.682327391129334  0.3893094982826923  1.0000
  H   H29       1.0  0.4335107550904026  0.37139360622099094  0.4861457499763305  1.0000
  H   H30       1.0  0.5664755856673336  0.6286078861147286  0.5138496622831782  1.0000
  H   H31       1.0  0.2879835268007723  0.15589449722215684  0.42626258257098465  1.0000
  H   H32       1.0  0.7120080234800381  0.8441103027797963  0.5737422360709701  1.0000
  C   C1        1.0  0.3482570893083547  0.8289419500335737  0.3086546332446146  1.0000
  C   C2        1.0  0.651716694912423  0.17102325660163586  0.6913431812247737  1.0000
  C   C3        1.0  0.35084511054518697  0.8883612749722118  0.5543311816917864  1.0000
  C   C4        1.0  0.649108923654836  0.11158993068537629  0.44567406818155314  1.0000
  C   C5        1.0  0.11494056986123272  0.2699003812926292  0.777881914892781  1.0000
  C   C6        1.0  0.8850649066232206  0.7300997632513953  0.2221179972277625  1.0000
  C   C7        1.0  0.23771560676630807  0.19882584566281739  0.7841610682584631  1.0000
  C   C8        1.0  0.762293245888145  0.801176847417011  0.21583768360702055  1.0000
  C   C9        1.0  0.29593134910108887  0.3695572470913149  0.008637986891805834  1.0000
  C   C10       1.0  0.7040788680069596  0.6304491306761832  0.9913593976411832  1.0000
  C   C11       1.0  0.4980535733922976  0.21481590903857747  0.9905606269741369  1.0000
  C   C12       1.0  0.5019675556795491  0.7852025280850511  0.009443654449839306  1.0000
  C   C13       1.0  0.5913693525864687  0.29978716776356856  0.1565332078660902  1.0000
  C   C14       1.0  0.40864058252849117  0.7002244648993068  0.843469109814599  1.0000
  C   C15       1.0  0.9418555757947967  0.18595362674970056  0.06701103606323497  1.0000
  C   C16       1.0  0.058152209946761936  0.8140429402187122  0.9329894055141635  1.0000
  C   C17       1.0  0.9890291762955954  0.14861429008143998  0.18020988275402772  1.0000
  C   C18       1.0  0.010971367120319516  0.8513856703078628  0.8197905267666384  1.0000
  C   C19       1.0  0.08947332573335127  0.43167706420765467  0.2697242016039354  1.0000
  C   C20       1.0  0.910516828998638  0.5683184241633794  0.7302714733162716  1.0000
  C   C21       1.0  0.162419969184306  0.33496808176403897  0.4583339796130659  1.0000
  C   C22       1.0  0.837573891086613  0.665036624291339  0.5416678013755528  1.0000
  C   C23       1.0  0.3256847596440835  0.2928620482497307  0.4969398785411343  1.0000
  C   C24       1.0  0.6743086458089705  0.7071414295764312  0.5030623582249873  1.0000
  N   N1        1.0  0.2495488080515643  0.7167586548856234  0.1874433619750988  1.0000
  N   N2        1.0  0.7504503390825263  0.28322851024373097  0.8125514709340109  1.0000
  N   N3        1.0  0.2516876344024651  0.8143895964897748  0.5847685005248237  1.0000
  N   N4        1.0  0.748291464437159  0.1855825254566739  0.4152370125190004  1.0000
  N   N5        1.0  0.15277639949825783  0.3762054389474016  0.9187045662995956  1.0000
  N   N6        1.0  0.8472297249819929  0.6237933683861384  0.08129335312069229  1.0000
  N   N7        1.0  0.3514780620381187  0.2631113865342697  0.9316394595969156  1.0000
  N   N8        1.0  0.6485360904205776  0.7368988920142169  0.06835816820569819  1.0000
  N   N9        1.0  0.005481774497560837  0.36296084248354527  0.12423127773812583  1.0000
  N   N10       1.0  0.9945136108436612  0.637032388618465  0.8757642221613794  1.0000
  N   N11       1.0  0.0822004257659614  0.3060818203632039  0.3079885555449948  1.0000
  N   N12       1.0  0.9177938730422069  0.6939178168207362  0.6920110812491914  1.0000
