data_image0
_chemical_formula_structural       Co3H32C52N4O12
_chemical_formula_sum              "Co3 H32 C52 N4 O12"
_cell_length_a       10.280849613997106
_cell_length_b       10.858955807582735
_cell_length_c       14.077113847214054
_cell_angle_alpha    101.02786065091317
_cell_angle_beta     107.76444445072379
_cell_angle_gamma    105.26491925314832

_space_group_name_H-M_alt    "P 1"
_space_group_IT_number       1

loop_
  _space_group_symop_operation_xyz
  'x, y, z'

loop_
  _atom_site_type_symbol
  _atom_site_label
  _atom_site_symmetry_multiplicity
  _atom_site_fract_x
  _atom_site_fract_y
  _atom_site_fract_z
  _atom_site_occupancy
  Co  Co1       1.0  0.4999949758668977  1.1275765672002026e-06  1.801457329756228e-07  1.0000
  Co  Co2       1.0  0.7065064845504594  0.8525430035556523  0.044387664370077545  1.0000
  Co  Co3       1.0  0.2934920941881103  0.14745990631649866  0.95561427999899  1.0000
  H   H1        1.0  0.31517428761024746  0.4923027485711555  0.7214554648378027  1.0000
  H   H2        1.0  0.6848375565015773  0.5076999631386272  0.2785535718807921  1.0000
  H   H3        1.0  0.22039484650227334  0.43429128554027585  0.5273772773517819  1.0000
  H   H4        1.0  0.779611589265599  0.5656974578413454  0.4726269759300905  1.0000
  H   H5        1.0  0.9819291233713869  0.8690041892037214  0.019437540114566224  1.0000
  H   H6        1.0  0.0180766875415159  0.131001693087434  0.9805635895191784  1.0000
  H   H7        1.0  0.5549885623791795  0.8928301466139528  0.7453247166472535  1.0000
  H   H8        1.0  0.44501171866178885  0.10716680410961031  0.2546709743566851  1.0000
  H   H9        1.0  0.12363946412985881  0.16740789243021234  0.2045840514689985  1.0000
  H   H10       1.0  0.8763492486005474  0.8325881671679627  0.7954097150278017  1.0000
  H   H11       1.0  0.8047770727501985  0.34382363337583405  0.23433337675909624  1.0000
  H   H12       1.0  0.1952270479404916  0.6561833283854455  0.7656632954087711  1.0000
  H   H13       1.0  0.46918137843751145  0.8361579283576006  0.5522105970303456  1.0000
  H   H14       1.0  0.5308167225075806  0.163836045474909  0.4477834453227416  1.0000
  H   H15       1.0  0.3225581285950057  0.37762366558001054  0.32780248257785155  1.0000
  H   H16       1.0  0.6774405065730918  0.6223662313616316  0.6721952966660324  1.0000
  H   H17       1.0  0.12087697150162308  0.7188778027078654  0.9997115208244408  1.0000
  H   H18       1.0  0.8791284540782129  0.2811270804430351  0.0002893686176080118  1.0000
  H   H19       1.0  0.271290164784169  0.8392946627641251  0.18111292972604082  1.0000
  H   H20       1.0  0.7287055898552239  0.1607111597477058  0.8188980993156036  1.0000
  H   H21       1.0  0.16533395055803624  0.7287239022920319  0.29463714396274543  1.0000
  H   H22       1.0  0.8346647239473485  0.2712788701332585  0.7053747456773961  1.0000
  H   H23       1.0  0.554026705043519  0.6375248494424994  0.41987463002330117  1.0000
  H   H24       1.0  0.4459689177981759  0.3624601606862896  0.5801146267977941  1.0000
  H   H25       1.0  0.6553492572519276  0.7413605884622143  0.301453968966527  1.0000
  H   H26       1.0  0.3446399212966114  0.258631492421422  0.6985364306560057  1.0000
  H   H27       1.0  0.0027217614188898526  0.5516282024126083  0.3637324438980656  1.0000
  H   H28       1.0  0.9972832719873851  0.4483756914156841  0.6362674949757832  1.0000
  H   H29       1.0  0.7712723386958656  0.40576140353459067  0.015866958962952475  1.0000
  H   H30       1.0  0.2287347155417976  0.5942424885048823  0.9841319945564206  1.0000
  H   H31       1.0  0.6472745457998884  0.5677994508834203  0.03296254855114002  1.0000
  H   H32       1.0  0.35273507033264906  0.4322003526587323  0.967039866881066  1.0000
  C   C1        1.0  0.44060773365825406  0.6959785050873606  0.7458549645256695  1.0000
  C   C2        1.0  0.5593969075744738  0.30402439941832426  0.254144023779979  1.0000
  C   C3        1.0  0.8319229548961858  0.12182573618986228  0.1364142384095857  1.0000
  C   C4        1.0  0.1680716525177672  0.8781802835690371  0.8635830757791892  1.0000
  C   C5        1.0  0.523205706204699  0.8444706290542  0.15685103420507565  1.0000
  C   C6        1.0  0.4767853869289951  0.15553132720911123  0.8431512772069283  1.0000
  C   C7        1.0  0.9523758445985424  0.2442282223413557  0.2120104579836166  1.0000
  C   C8        1.0  0.047622061173996054  0.7557757562888767  0.7879872466188471  1.0000
  C   C9        1.0  0.3468379872350483  0.5668148865117502  0.683030863675917  1.0000
  C   C10       1.0  0.6531715106759179  0.4331818794447244  0.3169731800099882  1.0000
  C   C11       1.0  0.46831607563515126  0.7947035264640689  0.23362243947104835  1.0000
  C   C12       1.0  0.5316770451704187  0.2052984181927826  0.7663795969629915  1.0000
  C   C13       1.0  0.3537549413105268  0.6764468693416248  0.36329575376361584  1.0000
  C   C14       1.0  0.6462424573732974  0.32354500803406694  0.6367049119711368  1.0000
  C   C15       1.0  0.3390023834214375  0.630848471445475  0.5258949559224035  1.0000
  C   C16       1.0  0.6609974214268419  0.3691444032816449  0.4741049646495696  1.0000
  C   C17       1.0  0.294955719301484  0.534357268636711  0.5750856073686064  1.0000
  C   C18       1.0  0.7050519906871671  0.4656375097513177  0.42491773823464024  1.0000
  C   C19       1.0  0.49165601875206016  0.7279211197917163  0.8605685323439258  1.0000
  C   C20       1.0  0.5083446853584873  0.27208484551254497  0.13942937766395147  1.0000
  C   C21       1.0  0.9396159537917871  0.7651150915311575  0.017825008411591615  1.0000
  C   C22       1.0  0.06038720436661997  0.2348918024011013  0.9821771290690434  1.0000
  C   C23       1.0  0.4836331699512613  0.7920612182919414  0.696884974512237  1.0000
  C   C24       1.0  0.5163689126929968  0.20793770036480191  0.3031128353273687  1.0000
  C   C25       1.0  0.17330952050878068  0.47650229214875833  0.35227630802037163  1.0000
  C   C26       1.0  0.8266897774784426  0.5234946201986902  0.6477227171668218  1.0000
  C   C27       1.0  0.0981985361226307  0.25244489689277577  0.23887673560071218  1.0000
  C   C28       1.0  0.9017962596233957  0.7475511278860266  0.7611162059621819  1.0000
  C   C29       1.0  0.9182883696021875  0.35208521431831485  0.2566937145867171  1.0000
  C   C30       1.0  0.0817136325570118  0.6479186821932146  0.7433077023188446  1.0000
  C   C31       1.0  0.4353702913330367  0.7604717809389712  0.5890227204183489  1.0000
  C   C32       1.0  0.5646249307889805  0.2395251840742816  0.4109747235952668  1.0000
  C   C33       1.0  0.2086998890495266  0.3690487053543734  0.30802555661980335  1.0000
  C   C34       1.0  0.7912968708706956  0.6309441916912419  0.691974421230867  1.0000
  C   C35       1.0  0.959998549827624  0.5463238295215047  0.005436033338348442  1.0000
  C   C36       1.0  0.04000864315307236  0.4536830706507401  0.9945634230568388  1.0000
  C   C37       1.0  0.016507714437622705  0.6797451535626351  0.006762185793561972  1.0000
  C   C38       1.0  0.9834944059431481  0.3202617805345653  0.9932376028582935  1.0000
  C   C39       1.0  0.3318381522275545  0.7943387497856236  0.23339876521311706  1.0000
  C   C40       1.0  0.6681560337176009  0.20566311543575466  0.7666084615557337  1.0000
  C   C41       1.0  0.27372685108192474  0.7340158251808971  0.29706457570478756  1.0000
  C   C42       1.0  0.7262688452994936  0.26598201134337524  0.7029423433950939  1.0000
  C   C43       1.0  0.4937891269850212  0.6835697771484064  0.3683533982069917  1.0000
  C   C44       1.0  0.5062046411302674  0.31641820363145706  0.6316401883504029  1.0000
  C   C45       1.0  0.5498801125138328  0.7409571706069259  0.3027942993750585  1.0000
  C   C46       1.0  0.4501119122561264  0.2590368282273161  0.697201278288432  1.0000
  C   C47       1.0  0.02806885293993127  0.46732481636546197  0.3279043951583702  1.0000
  C   C48       1.0  0.9719329762738056  0.5326761211014456  0.6720929669888561  1.0000
  C   C49       1.0  0.824061853821341  0.506479174662104  0.015309336236114737  1.0000
  C   C50       1.0  0.1759472486096598  0.4935246763180174  0.9846914734348075  1.0000
  C   C51       1.0  0.7526401923251953  0.5970022240856068  0.02563603177519264  1.0000
  C   C52       1.0  0.24736792021157333  0.4030015983360257  0.9743674017024802  1.0000
  N   N1        1.0  0.28674821824467495  0.599757412876194  0.4182818567243629  1.0000
  N   N2        1.0  0.7132565478224465  0.4002323805226595  0.5817200702211522  1.0000
  N   N3        1.0  0.8091814753358904  0.725169645643099  0.027166147189611058  1.0000
  N   N4        1.0  0.19082399128686936  0.2748351786020108  0.9728390045114707  1.0000
  O   O1        1.0  0.5776717877919283  0.8540817273620078  0.9134837944293606  1.0000
  O   O2        1.0  0.4223299335747939  0.1459242272302177  0.08651433327779048  1.0000
  O   O3        1.0  0.86760229936683  0.023312002767397595  0.09952664955874721  1.0000
  O   O4        1.0  0.1323956064057014  0.9766919758628344  0.9004710550437164  1.0000
  O   O5        1.0  0.7021106551128115  0.1206951534806748  0.1136225257804712  1.0000
  O   O6        1.0  0.2978832021564629  0.8793088385448302  0.8863764391544322  1.0000
  O   O7        1.0  0.44805400221599007  0.8933615782699889  0.09529158713391443  1.0000
  O   O8        1.0  0.5519361815085304  0.10663537158005452  0.904709741018898  1.0000
  O   O9        1.0  0.6440838591994194  0.8313352559283446  0.1572820832451569  1.0000
  O   O10       1.0  0.3559100185913167  0.16866870664426867  0.8427190128192592  1.0000
  O   O11       1.0  0.46299569822000564  0.6428895245011148  0.9063531231528754  1.0000
  O   O12       1.0  0.5370056446541369  0.35711542113322986  0.09364547473908397  1.0000
