data_image0
_chemical_formula_structural       Cd2H60C56N8O10
_chemical_formula_sum              "Cd2 H60 C56 N8 O10"
_cell_length_a       10.630315254446622
_cell_length_b       10.630309827448775
_cell_length_c       13.552200846633024
_cell_angle_alpha    102.84473644071099
_cell_angle_beta     102.84472181137305
_cell_angle_gamma    108.93127740332773

_space_group_name_H-M_alt    "P 1"
_space_group_IT_number       1

loop_
  _space_group_symop_operation_xyz
  'x, y, z'

loop_
  _atom_site_type_symbol
  _atom_site_label
  _atom_site_symmetry_multiplicity
  _atom_site_fract_x
  _atom_site_fract_y
  _atom_site_fract_z
  _atom_site_occupancy
  Cd  Cd1       1.0  0.8669809294072477  0.13301628172252586  0.750000031978594  1.0000
  Cd  Cd2       1.0  0.13301838722023257  0.866983362826929  0.2500002497893234  1.0000
  H   H1        1.0  0.9323051236502664  0.8305413607447394  0.4472151301333725  1.0000
  H   H2        1.0  0.16945980352122092  0.06769533638833992  0.05278499301024201  1.0000
  H   H3        1.0  0.0676979222543537  0.16946036982095342  0.5527854429071724  1.0000
  H   H4        1.0  0.8305414380012266  0.9323042960523156  0.9472156272771243  1.0000
  H   H5        1.0  0.8566744890245417  0.6011055358697989  0.3031268048441618  1.0000
  H   H6        1.0  0.3988960886519237  0.14332726685496774  0.19687214510253173  1.0000
  H   H7        1.0  0.14332621912132026  0.3988951628184694  0.6968724339461331  1.0000
  H   H8        1.0  0.6011050323577294  0.8566744758195244  0.8031280894185571  1.0000
  H   H9        1.0  0.5388981687744376  0.6819814202124663  0.5077234261469883  1.0000
  H   H10       1.0  0.318015239342067  0.46110040130302116  0.9922738757518061  1.0000
  H   H11       1.0  0.46110446426639834  0.31801926636700983  0.4922761511627627  1.0000
  H   H12       1.0  0.681983246155461  0.5388971498716515  0.007725150543905067  1.0000
  H   H13       1.0  0.7839216851846158  0.18447437340486064  0.9885952142775167  1.0000
  H   H14       1.0  0.815527364878008  0.21607715110346257  0.5114044698518825  1.0000
  H   H15       1.0  0.21607805511139586  0.8155263259354727  0.011404591242431612  1.0000
  H   H16       1.0  0.18447333786548367  0.7839235421824712  0.48859550492779397  1.0000
  H   H17       1.0  0.5285461258648851  0.19993196827653753  0.9962254503204448  1.0000
  H   H18       1.0  0.8000693147406323  0.47145410202593746  0.5037751518299132  1.0000
  H   H19       1.0  0.47145457147623654  0.8000687196070688  0.0037752604486130346  1.0000
  H   H20       1.0  0.1999313771981193  0.5285465804553483  0.49622629492852605  1.0000
  H   H21       1.0  0.4614983762985431  0.4533443987121971  0.3629313432975395  1.0000
  H   H22       1.0  0.5466546340312985  0.5385018433794214  0.13706393764784508  1.0000
  H   H23       1.0  0.5385031737820113  0.546658404155501  0.637067678986206  1.0000
  H   H24       1.0  0.453344698803292  0.46149781737700835  0.8629341361519279  1.0000
  H   H25       1.0  0.3287231479103808  0.19355656279549294  0.8676311249813722  1.0000
  H   H26       1.0  0.8064425472042203  0.6712756770055607  0.6323688545919025  1.0000
  H   H27       1.0  0.6712761633147294  0.8064430763516341  0.13236989277592676  1.0000
  H   H28       1.0  0.1935577318707402  0.32872396148949434  0.36763159643574284  1.0000
  H   H29       1.0  0.34674991363301183  0.22473251016585044  0.7477979060363538  1.0000
  H   H30       1.0  0.7752681917439614  0.6532506196070217  0.7522033962042016  1.0000
  H   H31       1.0  0.6532503600395785  0.7752671229268772  0.2522032809806731  1.0000
  H   H32       1.0  0.22473154314967297  0.3467500743309841  0.24779714530512106  1.0000
  H   H33       1.0  0.13218168729746788  0.0160427207547542  0.7258161472732283  1.0000
  H   H34       1.0  0.9839576276035941  0.8678182145931717  0.7741835051719619  1.0000
  H   H35       1.0  0.8678180475961667  0.9839579731832518  0.27418439423610164  1.0000
  H   H36       1.0  0.016042107290047604  0.13218247934483432  0.2258170363373679  1.0000
  H   H37       1.0  0.2314240359552714  0.9769842689321568  0.6461507549971941  1.0000
  H   H38       1.0  0.02301682747924619  0.7685761132969307  0.8538483815568156  1.0000
  H   H39       1.0  0.7685756989383633  0.0230164250058493  0.35384978651213567  1.0000
  H   H40       1.0  0.9769838698618757  0.2314245745866828  0.14615232921224217  1.0000
  H   H41       1.0  0.26527136638691207  0.9258174501258338  0.8629005714439727  1.0000
  H   H42       1.0  0.07418194260978339  0.7347278063901045  0.6370988241630755  1.0000
  H   H43       1.0  0.7347284944218869  0.07418113898066991  0.1370996198422603  1.0000
  H   H44       1.0  0.9258173740176973  0.2652718381593503  0.3629014576048419  1.0000
  H   H45       1.0  0.3345768588526424  0.8669976642294444  0.7637818487015551  1.0000
  H   H46       1.0  0.1330023765711914  0.6654230240688862  0.7362170425594102  1.0000
  H   H47       1.0  0.6654228814433694  0.13300303511088882  0.23621795681839336  1.0000
  H   H48       1.0  0.8669969400562891  0.33457662048056147  0.2637832392085073  1.0000
  H   H49       1.0  0.5829442725856778  0.17996161734256333  0.6188508627145025  1.0000
  H   H50       1.0  0.8200387259658797  0.4170543593107824  0.8811485488160855  1.0000
  H   H51       1.0  0.4170554677103269  0.82003908199777  0.381148942805453  1.0000
  H   H52       1.0  0.1799601723954325  0.5829442358501212  0.11885147321041958  1.0000
  H   H53       1.0  0.4091353752910933  0.08366159558472931  0.6128203571175704  1.0000
  H   H54       1.0  0.9163372386421287  0.5908634835052313  0.8871795695214003  1.0000
  H   H55       1.0  0.5908633971550615  0.9163391044076763  0.38718001513203143  1.0000
  H   H56       1.0  0.08366111553786479  0.409136167098616  0.11282054298678901  1.0000
  H   H57       1.0  0.5288814297025014  0.9990394387142706  0.6052720370755154  1.0000
  H   H58       1.0  0.0009609861490531702  0.4711192277255023  0.8947292696179118  1.0000
  H   H59       1.0  0.4711183051911405  0.0009612552237357003  0.3947285044338145  1.0000
  H   H60       1.0  0.9990387487445888  0.5288814662125036  0.10527127189141797  1.0000
  C   C1        1.0  0.7408007036132602  0.76839822916579  0.48706444464816906  1.0000
  C   C2        1.0  0.23159979376039527  0.2591985450206522  0.012934177139861362  1.0000
  C   C3        1.0  0.25920054871392745  0.2316014140795204  0.5129347036604415  1.0000
  C   C4        1.0  0.7683999465356164  0.7408021543196811  0.987065628380094  1.0000
  C   C5        1.0  0.7864165816786368  0.8999151627964469  0.5780279801545589  1.0000
  C   C6        1.0  0.1000818289246084  0.21358394202989936  0.921972676310574  1.0000
  C   C7        1.0  0.2135865847387706  0.10008445753541655  0.4219729786522635  1.0000
  C   C8        1.0  0.8999169381191762  0.7864167525601786  0.07802843192840918  1.0000
  C   C9        1.0  0.8306954492432864  0.7460780039121602  0.42976931426983356  1.0000
  C   C10       1.0  0.2539216662042918  0.169304022895524  0.07023037051993698  1.0000
  C   C11       1.0  0.1693068914465456  0.25391952844725557  0.5702296530754083  1.0000
  C   C12       1.0  0.7460791624543646  0.8306945655589077  0.9297692540366428  1.0000
  C   C13       1.0  0.788926543000393  0.6184402693784107  0.3496854237910512  1.0000
  C   C14       1.0  0.38156265758117763  0.21107436992372192  0.1503128740985673  1.0000
  C   C15       1.0  0.2110741651454688  0.38156042930985024  0.6503138149992438  1.0000
  C   C16       1.0  0.6184390076098011  0.788926317307812  0.8496872699408371  1.0000
  C   C17       1.0  0.5662236561360814  0.1296404650721854  0.7610465630445307  1.0000
  C   C18       1.0  0.87035890364821  0.43377619433338327  0.7389536277798143  1.0000
  C   C19       1.0  0.43377607875755325  0.8703602288658203  0.2389539784647994  1.0000
  C   C20       1.0  0.12963987420031486  0.5662245110613499  0.261046008480406  1.0000
  C   C21       1.0  0.6561839357823303  0.5146639957576582  0.3271821376593564  1.0000
  C   C22       1.0  0.48533724324989436  0.3438171872571019  0.172815162326458  1.0000
  C   C23       1.0  0.3438181638819202  0.48533775706941645  0.6728160581533231  1.0000
  C   C24       1.0  0.5146644219410844  0.6561834999744393  0.8271849817129463  1.0000
  C   C25       1.0  0.6071348380815705  0.6629355436022735  0.4621778107342465  1.0000
  C   C26       1.0  0.33706245965232284  0.3928644568772556  0.037820079369730274  1.0000
  C   C27       1.0  0.39286640884323987  0.3370640942407094  0.5378220735637456  1.0000
  C   C28       1.0  0.6629378248250077  0.6071351870201269  0.9621796356685337  1.0000
  C   C29       1.0  0.6934647915254216  0.17141368423125417  0.9251176042084666  1.0000
  C   C30       1.0  0.8285883415405664  0.3065347085514319  0.574882990294647  1.0000
  C   C31       1.0  0.30653590581569995  0.828587003652352  0.07488310656059127  1.0000
  C   C32       1.0  0.17141235580055533  0.6934659793321813  0.425117720474411  1.0000
  C   C33       1.0  0.5686712784941861  0.17952514241629564  0.9301487346839323  1.0000
  C   C34       1.0  0.8204741000222738  0.4313288257232273  0.5698514812227913  1.0000
  C   C35       1.0  0.43132900058077434  0.8204744960787596  0.06985171634371312  1.0000
  C   C36       1.0  0.17952466702151068  0.5686718688668507  0.430149627016185  1.0000
  C   C37       1.0  0.5642973402944804  0.5364419875606076  0.38236261142075983  1.0000
  C   C38       1.0  0.4635582690568042  0.435702220608924  0.1176335063876621  1.0000
  C   C39       1.0  0.4357043302988686  0.4635587050732539  0.6176367966292631  1.0000
  C   C40       1.0  0.536442565004215  0.564296373247835  0.8823653821795361  1.0000
  C   C41       1.0  0.3477492609425353  0.15149963898301172  0.793520219953308  1.0000
  C   C42       1.0  0.8485011748271774  0.6522510103689996  0.7064803138847607  1.0000
  C   C43       1.0  0.652250055684938  0.8485000055664428  0.2064800618146094  1.0000
  C   C44       1.0  0.15149730526798066  0.34774653540334555  0.2935194484003318  1.0000
  C   C45       1.0  0.232980305495694  0.0062752277586924  0.7297578416109403  1.0000
  C   C46       1.0  0.9937256667637725  0.7670193450574205  0.7702411192278261  1.0000
  C   C47       1.0  0.767019853066479  0.993726520970192  0.2702422236504205  1.0000
  C   C48       1.0  0.006273231597546704  0.23297925010348317  0.22975890279867883  1.0000
  C   C49       1.0  0.24418658030761253  0.8899017353329557  0.7756814082819687  1.0000
  C   C50       1.0  0.11009793944134567  0.7558124849011776  0.7243172795117515  1.0000
  C   C51       1.0  0.7558136987673477  0.1100979031620994  0.22431904274567674  1.0000
  C   C52       1.0  0.8899023450359846  0.2441871589962048  0.27568243552651234  1.0000
  C   C53       1.0  0.5182339392050537  0.09618550637408421  0.643055685324633  1.0000
  C   C54       1.0  0.9038145767906869  0.4817668173205761  0.8569440551630549  1.0000
  C   C55       1.0  0.4817658010909582  0.9038151929662493  0.35694412019531535  1.0000
  C   C56       1.0  0.09618516350531794  0.5182338820197574  0.1430557503568934  1.0000
  N   N1        1.0  0.6906886529551882  0.14040794328980874  0.8200646280279428  1.0000
  N   N2        1.0  0.8595928390557858  0.30931076987556594  0.6799357312444485  1.0000
  N   N3        1.0  0.30931150560698467  0.8595938054390756  0.17993543723341787  1.0000
  N   N4        1.0  0.14040550972183743  0.6906888753259538  0.32006511725312237  1.0000
  N   N5        1.0  0.48969183528351573  0.1536526266353917  0.8261211936457116  1.0000
  N   N6        1.0  0.8463491215969724  0.5103089128584203  0.6738803204162309  1.0000
  N   N7        1.0  0.5103084437914448  0.8463470118596635  0.1738792573819339  1.0000
  N   N8        1.0  0.15365157574414914  0.489691775025193  0.3261203903528198  1.0000
  O   O1        1.0  0.6146423462513367  0.3853583416784262  0.24999708458879874  1.0000
  O   O2        1.0  0.3853587855630565  0.6146434118007209  0.7500016779535342  1.0000
  O   O3        1.0  0.9027988616885095  0.0014321359614513018  0.5968903067130498  1.0000
  O   O4        1.0  0.9985676522692726  0.0971998922505932  0.9031097395664175  1.0000
  O   O5        1.0  0.09720376594994919  0.99856854521569  0.40311000658608254  1.0000
  O   O6        1.0  0.001432208539526329  0.9027986968559034  0.09689045171981545  1.0000
  O   O7        1.0  0.7069595005729852  0.9040637585481904  0.6360500148909338  1.0000
  O   O8        1.0  0.09593313967167212  0.2930413794532998  0.8639506925347932  1.0000
  O   O9        1.0  0.293045579934656  0.09593583887022564  0.36395275441410757  1.0000
  O   O10       1.0  0.9040641099385666  0.7069603658294669  0.13605180890490942  1.0000
