data_image0
_chemical_formula_structural       CoH24C24S2N6O8
_chemical_formula_sum              "Co1 H24 C24 S2 N6 O8"
_cell_length_a       5.662713112514374
_cell_length_b       7.0128978040020655
_cell_length_c       15.512850850237754
_cell_angle_alpha    102.33225991907965
_cell_angle_beta     100.9164000546165
_cell_angle_gamma    93.74747732502942

_space_group_name_H-M_alt    "P 1"
_space_group_IT_number       1

loop_
  _space_group_symop_operation_xyz
  'x, y, z'

loop_
  _atom_site_type_symbol
  _atom_site_label
  _atom_site_symmetry_multiplicity
  _atom_site_fract_x
  _atom_site_fract_y
  _atom_site_fract_z
  _atom_site_occupancy
  Co  Co1       1.0  0.4999993207886818  0.5000017015735025  0.5000008435712289  1.0000
  H   H1        1.0  0.762663207151256  0.354066631964024  0.750076821332776  1.0000
  H   H2        1.0  0.23733796400895094  0.6459188999257817  0.24991959449314288  1.0000
  H   H3        1.0  0.8496949760783606  0.30639731402722253  0.5557592912223583  1.0000
  H   H4        1.0  0.15030724519093036  0.693606005245428  0.44424198750675703  1.0000
  H   H5        1.0  0.1188435213735062  0.2857951774837915  0.45026589748375306  1.0000
  H   H6        1.0  0.8811530743179005  0.7142067279477331  0.5497342288586964  1.0000
  H   H7        1.0  0.3349274726132521  0.1497037582021861  0.4226713530736389  1.0000
  H   H8        1.0  0.6650695895650216  0.8503010833216675  0.577329063795176  1.0000
  H   H9        1.0  0.6794067700809947  0.38785155118640086  0.18914052110136476  1.0000
  H   H10       1.0  0.3205889108739229  0.6121445393456427  0.8108603199831492  1.0000
  H   H11       1.0  0.7124370192425432  0.19475622836348802  0.45995289854069193  1.0000
  H   H12       1.0  0.2875636317462735  0.8052485579286143  0.5400477578121752  1.0000
  H   H13       1.0  0.3151464798556347  0.1491077575228559  0.11756662943152918  1.0000
  H   H14       1.0  0.6848498825923315  0.8508926798624968  0.8824333516477408  1.0000
  H   H15       1.0  0.4809102960891495  0.1554962448667254  0.27909848860810627  1.0000
  H   H16       1.0  0.5190898792941779  0.8445055766904445  0.7209012293209938  1.0000
  H   H17       1.0  0.9248838522496711  0.3787503646405668  0.9143267259536926  1.0000
  H   H18       1.0  0.07512712501255689  0.6212290434415237  0.08566788357943977  1.0000
  H   H19       1.0  0.2285583149631307  0.1473967649258299  0.9426052390600078  1.0000
  H   H20       1.0  0.7714477374787662  0.8526079958038294  0.057397072313740645  1.0000
  H   H21       1.0  0.8475386942751231  0.4023435634471468  0.3504678404209399  1.0000
  H   H22       1.0  0.1524526981389442  0.5976481781781545  0.6495323253899629  1.0000
  H   H23       1.0  0.0678190694004144  0.1113940054615483  0.7770311558715548  1.0000
  H   H24       1.0  0.9321740363785267  0.8886198131147154  0.22297171704249757  1.0000
  C   C1        1.0  0.6487496377030767  0.305017891064182  0.7922036028530783  1.0000
  C   C2        1.0  0.35125092350628506  0.6949750659575217  0.2077947153415423  1.0000
  C   C3        1.0  0.17322995600969904  0.2765280451065308  0.32480458221643005  1.0000
  C   C4        1.0  0.8267717896540958  0.7234723094312018  0.6751957580889112  1.0000
  C   C5        1.0  0.8540231195460992  0.33658562953354476  0.2095354543135315  1.0000
  C   C6        1.0  0.1459727855336297  0.6634119004020744  0.7904648841367603  1.0000
  C   C7        1.0  0.40793006301539253  0.22721295926812965  0.7546717264490538  1.0000
  C   C8        1.0  0.5920662994325738  0.7727874781172303  0.24532825463020902  1.0000
  C   C9        1.0  0.5891137603074269  0.25574824455271994  0.9365240183413233  1.0000
  C   C10       1.0  0.4108879580004796  0.7442520240572178  0.06347437827182029  1.0000
  C   C11       1.0  0.21246361796243457  0.2009061221369279  0.16910418460176402  1.0000
  C   C12       1.0  0.7875365665395151  0.7990957280628381  0.8308961812247375  1.0000
  C   C13       1.0  0.3059913681873568  0.2065021963204927  0.2593583085600031  1.0000
  C   C14       1.0  0.6940092828014669  0.7935025899716095  0.740642347792864  1.0000
  C   C15       1.0  0.7391804877087581  0.31844659374098677  0.8830693497254956  1.0000
  C   C16       1.0  0.2608251961171105  0.6815447264591368  0.11692723873981237  1.0000
  C   C17       1.0  0.9833187865364721  0.2617700124885545  0.14326730762665815  1.0000
  C   C18       1.0  0.016681622090288752  0.7382332771147873  0.8567325555656281  1.0000
  C   C19       1.0  0.3447221793450836  0.18778767294748627  0.8992883617595382  1.0000
  C   C20       1.0  0.6552820604542903  0.8122170581128643  0.10071253407738107  1.0000
  C   C21       1.0  0.9490141642819553  0.34446596561970466  0.2995134738510714  1.0000
  C   C22       1.0  0.05098352608441557  0.6555315080574431  0.700486336443845  1.0000
  C   C23       1.0  0.2549880670928247  0.16943658728693833  0.807556537086306  1.0000
  C   C24       1.0  0.7450112650962167  0.8305711913559719  0.19244493794830925  1.0000
  S   S1        1.0  0.30109920895240794  0.19980289090617737  0.6372583008624488  1.0000
  S   S2        1.0  0.6988976199824322  0.800200482571512  0.3627419707431869  1.0000
  N   N1        1.0  0.2619182873422261  0.27883246911316917  0.41808711129546333  1.0000
  N   N2        1.0  0.738083467440191  0.7211679140671449  0.5819138769072794  1.0000
  N   N3        1.0  0.6713065058159274  0.2580803535674718  0.02836894314014418  1.0000
  N   N4        1.0  0.3286988013025293  0.7419198598107143  0.9716296929570517  1.0000
  N   N5        1.0  0.8973739525804021  0.24793570416682095  0.050571295758103874  1.0000
  N   N6        1.0  0.1026298298507342  0.7520661194437893  0.9494299574498443  1.0000
  O   O1        1.0  0.4007334057571939  0.023315514394525408  0.5929168851535493  1.0000
  O   O2        1.0  0.5992674420005457  0.976690625373358  0.4070813248729124  1.0000
  O   O3        1.0  0.0352914332975089  0.17425008378936724  0.6206896600146693  1.0000
  O   O4        1.0  0.9647046776697651  0.8257488282646291  0.37930888000661156  1.0000
  O   O5        1.0  0.4029243791526653  0.3781823359838228  0.6157235401665204  1.0000
  O   O6        1.0  0.5970711401010219  0.6218240584872702  0.38427819801825785  1.0000
  O   O7        1.0  0.7684250714051475  0.33204861865196716  0.4971565120705108  1.0000
  O   O8        1.0  0.23157513133406127  0.6679532888329902  0.5028451495507866  1.0000
