data_image0
_chemical_formula_structural       Cd2H20C28N24O8
_chemical_formula_sum              "Cd2 H20 C28 N24 O8"
_cell_length_a       8.587458988841288
_cell_length_b       8.878494327616597
_cell_length_c       13.72002125975722
_cell_angle_alpha    95.29126361606168
_cell_angle_beta     89.99530864792612
_cell_angle_gamma    118.92753867127738

_space_group_name_H-M_alt    "P 1"
_space_group_IT_number       1

loop_
  _space_group_symop_operation_xyz
  'x, y, z'

loop_
  _atom_site_type_symbol
  _atom_site_label
  _atom_site_symmetry_multiplicity
  _atom_site_fract_x
  _atom_site_fract_y
  _atom_site_fract_z
  _atom_site_occupancy
  Cd  Cd1       1.0  0.19579042841922267  0.9999259938177689  0.25005515104209763  1.0000
  Cd  Cd2       1.0  0.8042085273278446  7.335993635850001e-05  0.7499437877293007  1.0000
  H   H1        1.0  0.3634237060230916  0.6977624298683908  0.7239789638688664  1.0000
  H   H2        1.0  0.6658313509649573  0.3023356142557888  0.7760381774694096  1.0000
  H   H3        1.0  0.6365770613645977  0.30223821817027396  0.2760207808577064  1.0000
  H   H4        1.0  0.3341720048255894  0.6976702102290703  0.2239626045715397  1.0000
  H   H5        1.0  0.16110278696219635  0.37704418585114746  0.658934125382757  1.0000
  H   H6        1.0  0.7843177677243105  0.6230479554712361  0.8410855610967332  1.0000
  H   H7        1.0  0.8388950043148783  0.6229551681295364  0.34106627115595245  1.0000
  H   H8        1.0  0.2156877874654626  0.3769552812005231  0.15891579551389165  1.0000
  H   H9        1.0  0.31193830439963216  0.21509874447615124  0.5868927013780051  1.0000
  H   H10       1.0  0.09715402463005782  0.7849639035352142  0.9130990101584545  1.0000
  H   H11       1.0  0.6880583223057573  0.7849006091499363  0.41310623744599445  1.0000
  H   H12       1.0  0.9028502364726946  0.21503674556725372  0.08690510771226909  1.0000
  H   H13       1.0  0.2487818515532823  0.671336018881327  0.4966951468693992  1.0000
  H   H14       1.0  0.5773525139428841  0.3287417819477696  0.003499594785331796  1.0000
  H   H15       1.0  0.7512171042446312  0.3286633351633768  0.503305249643013  1.0000
  H   H16       1.0  0.4226482534193752  0.6712588659456035  0.9964994210707303  1.0000
  H   H17       1.0  0.37722497766426966  0.888083418028174  0.5567711133751203  1.0000
  H   H18       1.0  0.489157100630024  0.11206005299619902  0.9434103817422114  1.0000
  H   H19       1.0  0.6227746252280044  0.11191723009176263  0.44322936024826015  1.0000
  H   H20       1.0  0.5108448312276579  0.887940594815909  0.05658790521704301  1.0000
  C   C1        1.0  0.41410477243882576  0.616964200692074  0.6872772370741062  1.0000
  C   C2        1.0  0.7973473320154838  0.3831477320385376  0.8126857286684199  1.0000
  C   C3        1.0  0.5858930188128254  0.38303515314332515  0.3127224305940999  1.0000
  C   C4        1.0  0.2026540825174123  0.6168542103659292  0.18731555091013521  1.0000
  C   C5        1.0  0.3051946567127217  0.4430528031355366  0.6538507198479451  1.0000
  C   C6        1.0  0.8623999134710799  0.5570696659874557  0.8461497223246397  1.0000
  C   C7        1.0  0.6948024874445692  0.5569452566246298  0.3461488707092926  1.0000
  C   C8        1.0  0.13760331267700826  0.44293357055625665  0.1538516343385865  1.0000
  C   C9        1.0  0.3883582446177273  0.35339108654346774  0.6110936529977948  1.0000
  C   C10       1.0  0.035271187333449895  0.6466917657372946  0.8888711900236359  1.0000
  C   C11       1.0  0.6116395466339241  0.6466082672919243  0.3889060146704111  1.0000
  C   C12       1.0  0.9647325562665543  0.3533101769405108  0.1111308183728283  1.0000
  C   C13       1.0  0.6570943621997357  0.5985280100506571  0.6321007991771808  1.0000
  C   C14       1.0  0.05881361882602221  0.40152689597435653  0.8677680848935767  1.0000
  C   C15       1.0  0.34290278193213203  0.40147004956422455  0.3678980625095463  1.0000
  C   C16       1.0  0.9411865015435835  0.5984724584249508  0.13223376933355271  1.0000
  C   C17       1.0  0.8495991817715521  0.6910937744351102  0.6195880453499641  1.0000
  C   C18       1.0  0.15874391904487337  0.3089784997131062  0.8802597338097584  1.0000
  C   C19       1.0  0.15039796236031577  0.3089042851797714  0.38041081633676305  1.0000
  C   C20       1.0  0.8412555541795185  0.6910195603203989  0.11974058556538841  1.0000
  C   C21       1.0  0.2532630667627345  0.7964395568598022  0.5142263384239527  1.0000
  C   C22       1.0  0.4567388653142501  0.2036344950712774  0.9859448594383763  1.0000
  C   C23       1.0  0.7467358890097555  0.20355979703961685  0.485773329217956  1.0000
  C   C24       1.0  0.5432624194490715  0.7963648586656051  0.01405335040990961  1.0000
  C   C25       1.0  0.24169632635997126  0.8672028952743248  0.41813748074919493  1.0000
  C   C26       1.0  0.3742315313235025  0.13274686760276927  0.08196468715906491  1.0000
  C   C27       1.0  0.7583032765068792  0.13279775270032  0.581862264003675  1.0000
  C   C28       1.0  0.6257679418246199  0.8672511919948679  0.9180334456045501  1.0000
  N   N1        1.0  0.5906415500198534  0.6951956168601117  0.6769550159182245  1.0000
  N   N2        1.0  0.8956488547088667  0.30490294960633707  0.8229650600735354  1.0000
  N   N3        1.0  0.4093567586328533  0.30480244281879726  0.3230438457422053  1.0000
  N   N4        1.0  0.10435191272966904  0.6950976987229113  0.1770361423940585  1.0000
  N   N5        1.0  0.5644472682692054  0.43037987458600213  0.5990647314552149  1.0000
  N   N6        1.0  0.1343439397621751  0.569672804374008  0.9008445499490493  1.0000
  N   N7        1.0  0.43554987583723914  0.5696181848835878  0.4009334013610014  1.0000
  N   N8        1.0  0.8656578625801714  0.4303252562234051  0.09915795598502092  1.0000
  N   N9        1.0  0.9424418018512812  0.6379817834138424  0.5612270724348178  1.0000
  N   N10       1.0  0.3045569072183341  0.36207775372551515  0.9387311223451675  1.0000
  N   N11       1.0  0.05755650680142568  0.3620162762650594  0.43877178922560495  1.0000
  N   N12       1.0  0.6954432130749951  0.6379216002379239  0.0612685452704298  1.0000
  N   N13       1.0  0.10558375693026537  0.7732389471045311  0.5741920441712267  1.0000
  N   N14       1.0  0.3323762671014591  0.2267981282219793  0.9258731982860624  1.0000
  N   N15       1.0  0.8944145517224414  0.22675911257437062  0.425806817489196  1.0000
  N   N16       1.0  0.6676232060975169  0.7731999316662341  0.07412639221857382  1.0000
  N   N17       1.0  0.11691579256220314  0.9039794538871534  0.636274700705016  1.0000
  N   N18       1.0  0.21305691841404686  0.0960490884853087  0.8637520096384179  1.0000
  N   N19       1.0  0.8830819986894411  0.0960198999482458  0.3637249669631829  1.0000
  N   N20       1.0  0.7869443663746979  0.9039502653968584  0.1362469290803787  1.0000
  N   N21       1.0  0.9551472796779805  0.8517256384865919  0.6656393409801282  1.0000
  N   N22       1.0  0.10365826124927219  0.1483313032223066  0.8342557819254071  1.0000
  N   N23       1.0  0.04484986445388729  0.14827242112829003  0.33435952070660585  1.0000
  N   N24       1.0  0.8963418590440573  0.8516680507411326  0.16574388569019763  1.0000
  O   O1        1.0  0.09452736969300451  0.8588563949194352  0.3935928467474241  1.0000
  O   O2        1.0  0.23544774649326436  0.14115917184331295  0.1065206382949455  1.0000
  O   O3        1.0  0.905474174482336  0.14114813542617813  0.6064078582088613  1.0000
  O   O4        1.0  0.7645548325096172  0.8588427703345971  0.8934791835162912  1.0000
  O   O5        1.0  0.37926476378546436  0.9289838114688538  0.36878994747274874  1.0000
  O   O6        1.0  0.44993135456982  0.07084308900211063  0.1312643969419369  1.0000
  O   O7        1.0  0.6207365210287036  0.0710155425586052  0.6312097201165514  1.0000
  O   O8        1.0  0.5500655302008683  0.9291497942946167  0.868733427377812  1.0000
