data_image0
_chemical_formula_structural       Zn8C48N24O74
_chemical_formula_sum              "Zn8 C48 N24 O74"
_cell_length_a       18.302011710250934
_cell_length_b       18.30243659459739
_cell_length_c       18.302181140012213
_cell_angle_alpha    90.00000464175127
_cell_angle_beta     119.9989163618181
_cell_angle_gamma    120.00028467095339

_space_group_name_H-M_alt    "P 1"
_space_group_IT_number       1

loop_
  _space_group_symop_operation_xyz
  'x, y, z'

loop_
  _atom_site_type_symbol
  _atom_site_label
  _atom_site_symmetry_multiplicity
  _atom_site_fract_x
  _atom_site_fract_y
  _atom_site_fract_z
  _atom_site_occupancy
  Zn  Zn1       1.0  0.5876427601493006  0.631469218913253  0.04382454380559859  1.0000
  Zn  Zn2       1.0  0.4123712592910282  0.4561931822396519  0.8685484796653994  1.0000
  Zn  Zn3       1.0  0.4123525085036591  0.456184534924482  0.043825924865657825  1.0000
  Zn  Zn4       1.0  0.5876371845414211  0.45618458014148905  0.0438210530532999  1.0000
  Zn  Zn5       1.0  0.41236326216738944  0.8685441133824555  0.45619071857078813  1.0000
  Zn  Zn6       1.0  0.5876441178127437  0.043821878408493824  0.45617992137177765  1.0000
  Zn  Zn7       1.0  0.587641186594766  0.04382331665485146  0.6314641212482996  1.0000
  Zn  Zn8       1.0  0.4123571029274374  0.04382016354021091  0.4561841701674325  1.0000
  C   C1        1.0  0.5000071860110182  0.636462185903369  0.8635386776817741  1.0000
  C   C2        1.0  0.22707681695145254  0.36353996042890213  0.8635408457253247  1.0000
  C   C3        1.0  0.49998742276228825  0.6364594916523387  0.13646026276348522  1.0000
  C   C4        1.0  0.49998711376397154  0.36353511871563887  0.1364598643948511  1.0000
  C   C5        1.0  0.7729256846322841  0.6364655459133955  0.1364596116413851  1.0000
  C   C6        1.0  0.5000043400933833  0.3635466520441497  0.8635413819528707  1.0000
  C   C7        1.0  0.49999651787339167  0.8635317591408908  0.3635445053772983  1.0000
  C   C8        1.0  0.7729226413395126  0.13646221259576669  0.6364619832225101  1.0000
  C   C9        1.0  0.5000011590180338  0.8635376974866775  0.636463477877875  1.0000
  C   C10       1.0  0.5000123056468695  0.13646869330138867  0.63647441160699  1.0000
  C   C11       1.0  0.2270806125056809  0.863535346794855  0.3635426749403549  1.0000
  C   C12       1.0  0.5000022796905271  0.13646071590155642  0.3635374480346486  1.0000
  C   C13       1.0  0.8894718510984632  0.6947372379683259  0.1947358424817623  1.0000
  C   C14       1.0  0.11054190861215597  0.8052684405898917  0.30527290722372413  1.0000
  C   C15       1.0  0.9462157094491419  0.6579142721613069  0.22462387683892626  1.0000
  C   C16       1.0  0.053786369425275087  0.8420810931501354  0.2783977984498732  1.0000
  C   C17       1.0  0.05378479729647281  0.7117032504203848  0.2753825010838824  1.0000
  C   C18       1.0  0.9462166876514503  0.7883048459690158  0.22158604677094457  1.0000
  C   C19       1.0  0.11053729742700111  0.3052715694004036  0.8052679382860076  1.0000
  C   C20       1.0  0.8894670551071401  0.19473951281204901  0.6947318739081536  1.0000
  C   C21       1.0  0.05377566320487412  0.27538096779823473  0.8420761208831705  1.0000
  C   C22       1.0  0.9462165252458804  0.2216060043896776  0.6579137820194633  1.0000
  C   C23       1.0  0.9462161129083526  0.2246288347799563  0.7882980383103869  1.0000
  C   C24       1.0  0.05378817370093006  0.27841152600669267  0.7117028363948278  1.0000
  C   C25       1.0  0.4999948252338912  0.6947256258206239  0.19473630560491287  1.0000
  C   C26       1.0  0.49999134604392054  0.8052645097182636  0.3052679386826257  1.0000
  C   C27       1.0  0.4332958602036997  0.6579156919254815  0.22160438677270383  1.0000
  C   C28       1.0  0.5636729203390091  0.8420850680756261  0.27537716798364903  1.0000
  C   C29       1.0  0.4363179212891665  0.711698353044774  0.2784148522075611  1.0000
  C   C30       1.0  0.5666929819512206  0.7882945217395945  0.2246141130076112  1.0000
  C   C31       1.0  0.5000066439191216  0.30527282567730657  0.8052772951255561  1.0000
  C   C32       1.0  0.5000096771248225  0.19473416490821197  0.6947388824652022  1.0000
  C   C33       1.0  0.5667083704547693  0.278404322911399  0.8420963898220748  1.0000
  C   C34       1.0  0.43634334204499947  0.22463601317928542  0.6579239721729521  1.0000
  C   C35       1.0  0.5636769882407509  0.22159038636872455  0.7883071300776762  1.0000
  C   C36       1.0  0.43331280567706204  0.2753968071854376  0.7117098415717179  1.0000
  C   C37       1.0  0.4999974443492903  0.694732802470348  0.8052626621687792  1.0000
  C   C38       1.0  0.500002054998014  0.8052696111523406  0.6947257821386615  1.0000
  C   C39       1.0  0.436327963672014  0.6579164536428835  0.7116993311120724  1.0000
  C   C40       1.0  0.5666992372543762  0.8420816020712679  0.788296006626659  1.0000
  C   C41       1.0  0.4333059676813066  0.711707401946846  0.6579236053355615  1.0000
  C   C42       1.0  0.563686261434839  0.7883024025052665  0.8420911090781972  1.0000
  C   C43       1.0  0.4999776222434208  0.30525329910440757  0.19471752138975526  1.0000
  C   C44       1.0  0.4999912129068491  0.19472063892435904  0.30525913081672934  1.0000
  C   C45       1.0  0.5636500290685618  0.2753580953974364  0.22156288561312462  1.0000
  C   C46       1.0  0.4332868940080062  0.22158460884073616  0.2753778036211045  1.0000
  C   C47       1.0  0.5666868208173029  0.22460596317429804  0.2783833547256763  1.0000
  C   C48       1.0  0.4363098797880555  0.27839650033485713  0.22462013420706478  1.0000
  N   N1        1.0  0.8929747235774388  0.5596136919061864  0.2047484300781904  1.0000
  N   N2        1.0  0.10702865935122942  0.9403911377811199  0.3117624534940687  1.0000
  N   N3        1.0  0.10702776744631158  0.6666355793243215  0.29525717270569635  1.0000
  N   N4        1.0  0.892978875846062  0.8333654998906398  0.18821392395421557  1.0000
  N   N5        1.0  0.10701870761341338  0.29525532448670333  0.9403879869994966  1.0000
  N   N6        1.0  0.8929820660455051  0.18824101346552177  0.5596116601882885  1.0000
  N   N7        1.0  0.8929643248385872  0.2047377506709936  0.8333570615791428  1.0000
  N   N8        1.0  0.10703949643397702  0.3117759356361277  0.6666419533530571  1.0000
  N   N9        1.0  0.3548614555735627  0.5596061937998728  0.1882364382881577  1.0000
  N   N10       1.0  0.6286135326480109  0.9403826355819335  0.29525545580447965  1.0000
  N   N11       1.0  0.37137680666135253  0.6666354874830348  0.3117786488458806  1.0000
  N   N12       1.0  0.6451175015026042  0.83335558469922  0.20473041237192302  1.0000
  N   N13       1.0  0.6451378059406353  0.3117682829942297  0.9403999575547104  1.0000
  N   N14       1.0  0.37140408685573323  0.2047667466191214  0.5596208076826626  1.0000
  N   N15       1.0  0.6286103282775882  0.18821585696262133  0.8333742899457233  1.0000
  N   N16       1.0  0.3548968560987975  0.2952842138121243  0.6666509812095072  1.0000
  N   N17       1.0  0.37138840133698653  0.559617016224408  0.6666393237814816  1.0000
  N   N18       1.0  0.6451309815104626  0.9403912295193423  0.833362323387462  1.0000
  N   N19       1.0  0.3548675061890737  0.66664263172585  0.559611143179488  1.0000
  N   N20       1.0  0.6286195718875051  0.833358735440804  0.9403869527075485  1.0000
  N   N21       1.0  0.6285839029494157  0.29523007754135483  0.18819162149038965  1.0000
  N   N22       1.0  0.35485584442428564  0.18821415342561917  0.2952566106093997  1.0000
  N   N23       1.0  0.6451230961739258  0.20473609245917868  0.3117494010384334  1.0000
  N   N24       1.0  0.37137130271932506  0.3117626902538078  0.20475117737734647  1.0000
  O   O1        1.0  0.5000011463977786  0.5000269294232498  1.933100202939472e-05  1.0000
  O   O2        1.0  0.5825126118537868  0.6711254942790037  0.9418396547110959  1.0000
  O   O3        1.0  0.27072621751542414  0.3593446376456981  0.8288827255143615  1.0000
  O   O4        1.0  0.46952636559383637  0.5581563641334881  0.14066593242694136  1.0000
  O   O5        1.0  0.4174975940723728  0.558153701538018  0.8288686294865357  1.0000
  O   O6        1.0  0.5304335864860337  0.671115241543575  0.08860859287392502  1.0000
  O   O7        1.0  0.2707117736279161  0.4113822085018627  0.9418407746673337  1.0000
  O   O8        1.0  0.4174852716195332  0.35934445639292534  0.08863303075720816  1.0000
  O   O9        1.0  0.7292791314626328  0.5581599568985638  0.08862399617992624  1.0000
  O   O10       1.0  0.5824895213928302  0.4113680256016607  0.14065232978057915  1.0000
  O   O11       1.0  0.7292867453763353  0.6711418113274591  0.14065612910515318  1.0000
  O   O12       1.0  0.4695545841093677  0.4113948290348404  0.828884769811772  1.0000
  O   O13       1.0  0.530462495518755  0.3593386896352015  0.9418489431275461  1.0000
  O   O14       1.0  0.5000106936666389  0.9999995816106308  0.5000130461534198  1.0000
  O   O15       1.0  0.417493740185229  0.8288664611662001  0.35935077396602105  1.0000
  O   O16       1.0  0.7292846686074415  0.14066184960910996  0.5581562217242464  1.0000
  O   O17       1.0  0.5304552014412423  0.9418368623847398  0.6711250778260335  1.0000
  O   O18       1.0  0.5825042791861609  0.9418351942315369  0.41138529241744964  1.0000
  O   O19       1.0  0.469543635391979  0.8288780688047268  0.558161661695273  1.0000
  O   O20       1.0  0.7292834581456165  0.08862151319481637  0.6711284438074473  1.0000
  O   O21       1.0  0.5825123009647015  0.14066340428177426  0.6711406881380738  1.0000
  O   O22       1.0  0.27072350099478387  0.9418401145266061  0.3593427691750151  1.0000
  O   O23       1.0  0.41751160306810686  0.08863276066793449  0.55816649587711  1.0000
  O   O24       1.0  0.2707177414323282  0.8288711570654501  0.4113844050980758  1.0000
  O   O25       1.0  0.5304784685455246  0.08862855861666936  0.35933759219118133  1.0000
  O   O26       1.0  0.4695419420511869  0.1406556692755458  0.41138151945379786  1.0000
  O   O27       1.0  0.84719780837316  0.526295014185351  0.23991636567232888  1.0000
  O   O28       1.0  0.9019781803080635  0.5221217922791797  0.15723327535123122  1.0000
  O   O29       1.0  0.15280808224768108  0.9737107677979325  0.3927087084222408  1.0000
  O   O30       1.0  0.09801219440655742  0.9778757163607281  0.25523760214189645  1.0000
  O   O31       1.0  0.15280922741543895  0.6791040368050574  0.2600903980475024  1.0000
  O   O32       1.0  0.09800882004157792  0.6201254701117662  0.3427579506091618  1.0000
  O   O33       1.0  0.8472222352449709  0.8209127101237856  0.10727252197446563  1.0000
  O   O34       1.0  0.9019717339666119  0.8798598930389051  0.2447270471924982  1.0000
  O   O35       1.0  0.15279848602484952  0.2600870390103438  0.9736985060446626  1.0000
  O   O36       1.0  0.09800248566310195  0.3427585682261808  0.9778793829178339  1.0000
  O   O37       1.0  0.8472165399019856  0.10730001732447653  0.5262999676266276  1.0000
  O   O38       1.0  0.9019818126919575  0.24475957063805256  0.5221181299601199  1.0000
  O   O39       1.0  0.8471903870706756  0.23990739395549118  0.8209065397240211  1.0000
  O   O40       1.0  0.9019693694902744  0.1572174490569297  0.8798462418499823  1.0000
  O   O41       1.0  0.15281756801797292  0.39272057641927927  0.6790990168891681  1.0000
  O   O42       1.0  0.09803144553374211  0.255252947447147  0.6201478987246816  1.0000
  O   O43       1.0  0.2863791110751351  0.5262936414627363  0.10729444820066193  1.0000
  O   O44       1.0  0.36487704497034207  0.5221122838171866  0.2447570758293267  1.0000
  O   O45       1.0  0.5809882689346184  0.9737027645076638  0.26008625863519097  1.0000
  O   O46       1.0  0.7226219947079786  0.9778673605469878  0.342768466771453  1.0000
  O   O47       1.0  0.4190007091189687  0.6790811629217758  0.39272153197286735  1.0000
  O   O48       1.0  0.2773687149486718  0.6201406364669708  0.2552614237307864  1.0000
  O   O49       1.0  0.7135988052342911  0.8208912313501813  0.2398898661453118  1.0000
  O   O50       1.0  0.6350875401749932  0.8798543186141999  0.1572184623778625  1.0000
  O   O51       1.0  0.7136209175961099  0.3927128502200291  0.9737152634626792  1.0000
  O   O52       1.0  0.6351180701119077  0.25524488437935133  0.9778867230615234  1.0000
  O   O53       1.0  0.41903602771845533  0.23994111354880943  0.5263053926339084  1.0000
  O   O54       1.0  0.27739403215383623  0.1572523048307417  0.5221320260957327  1.0000
  O   O55       1.0  0.5809686853721132  0.10726796833044736  0.8209115802676267  1.0000
  O   O56       1.0  0.7226183177606345  0.24472802325028203  0.8798735412309993  1.0000
  O   O57       1.0  0.28641421773187403  0.26012535317863694  0.6791141032098692  1.0000
  O   O58       1.0  0.36493022472521386  0.3427993726768649  0.620155158594045  1.0000
  O   O59       1.0  0.419016849220867  0.5263005211946421  0.6790887773961245  1.0000
  O   O60       1.0  0.27737944017930277  0.5221277869545703  0.6201434283483068  1.0000
  O   O61       1.0  0.7136225595203386  0.9737087674877429  0.8209118652099008  1.0000
  O   O62       1.0  0.6350934788076547  0.9778749280513355  0.8798556085781399  1.0000
  O   O63       1.0  0.28638219344910715  0.6791023248179613  0.5263024695766987  1.0000
  O   O64       1.0  0.3648865843456335  0.6201388856115814  0.5221190393367151  1.0000
  O   O65       1.0  0.5809881345687983  0.8208925760333088  0.9737042789627137  1.0000
  O   O66       1.0  0.7226272780702278  0.8798570321861165  0.9778734663866756  1.0000
  O   O67       1.0  0.5809516910652235  0.2600469752824922  0.10724784172171556  1.0000
  O   O68       1.0  0.7225931131135256  0.34274452771912683  0.24470722119816193  1.0000
  O   O69       1.0  0.2863736637735386  0.10726916097529232  0.2600906247070895  1.0000
  O   O70       1.0  0.3648754318789146  0.24473956282636072  0.3427656513700654  1.0000
  O   O71       1.0  0.7136161857613105  0.23992838887773632  0.39268911587095084  1.0000
  O   O72       1.0  0.6350988060941206  0.1572129571003772  0.25523471855993324  1.0000
  O   O73       1.0  0.4190119155185671  0.3927077606868395  0.23993416123639127  1.0000
  O   O74       1.0  0.27736344263014007  0.25525332028803405  0.15724118230443912  1.0000
