data_image0
_chemical_formula_structural       Cu4H44C28Br4N8
_chemical_formula_sum              "Cu4 H44 C28 Br4 N8"
_cell_length_a       4.132331306620748
_cell_length_b       8.267863653038518
_cell_length_c       24.378409400522717
_cell_angle_alpha    89.99970429075736
_cell_angle_beta     92.38499540406005
_cell_angle_gamma    89.99982938893979

_space_group_name_H-M_alt    "P 1"
_space_group_IT_number       1

loop_
  _space_group_symop_operation_xyz
  'x, y, z'

loop_
  _atom_site_type_symbol
  _atom_site_label
  _atom_site_symmetry_multiplicity
  _atom_site_fract_x
  _atom_site_fract_y
  _atom_site_fract_z
  _atom_site_occupancy
  Cu  Cu1       1.0  0.2475507036756852  0.4592861063047238  0.05731868232380321  1.0000
  Cu  Cu2       1.0  0.2524225490721861  0.9592877875343362  0.44267645844188763  1.0000
  Cu  Cu3       1.0  0.7524041495089762  0.5407135814553212  0.9426785993828944  1.0000
  Cu  Cu4       1.0  0.7475710283705156  0.04071552868659009  0.557323162722561  1.0000
  H   H1        1.0  0.7023061209246749  0.5282291272577808  0.14898694768451293  1.0000
  H   H2        1.0  0.7976846049338278  0.02822895098620389  0.35101343575516364  1.0000
  H   H3        1.0  0.29771167120405556  0.47177176993645265  0.8510132640593682  1.0000
  H   H4        1.0  0.20230169510696785  0.9717743652341896  0.6489869515996177  1.0000
  H   H5        1.0  0.8363174354119495  0.42437828187302523  0.2097641779056971  1.0000
  H   H6        1.0  0.6636731308980545  0.9243836217604199  0.2902351017911329  1.0000
  H   H7        1.0  0.16368100873430083  0.5756153583382683  0.7902338387190684  1.0000
  H   H8        1.0  0.33631316349518414  0.0756184849545676  0.7097656957227941  1.0000
  H   H9        1.0  0.4702874669838977  0.5378093086716972  0.2087857646888693  1.0000
  H   H10       1.0  0.0297078694607862  0.03780559444100359  0.2912135588004858  1.0000
  H   H11       1.0  0.5297303364557421  0.4621891695242013  0.791213626741083  1.0000
  H   H12       1.0  0.9702832746775343  0.9621880457572871  0.7087868646468325  1.0000
  H   H13       1.0  0.5320322776925578  0.1302975207016317  0.2330807427203183  1.0000
  H   H14       1.0  0.9679432437309076  0.6302930966017755  0.26691975927934664  1.0000
  H   H15       1.0  0.4679637387218277  0.869710633535895  0.7669176660075506  1.0000
  H   H16       1.0  0.032038200972543486  0.3697005435978866  0.7330814123163947  1.0000
  H   H17       1.0  0.1723939938296084  0.8151550117369553  0.1346268175863443  1.0000
  H   H18       1.0  0.3275995030266828  0.31515457338701935  0.36537405848091714  1.0000
  H   H19       1.0  0.827604416383899  0.1848458854693645  0.8653736599802216  1.0000
  H   H20       1.0  0.6724110003931826  0.6848475333027365  0.6346277397683266  1.0000
  H   H21       1.0  0.839349854706569  0.8885190339290433  0.17047113775997502  1.0000
  H   H22       1.0  0.6606433452481256  0.3885169650435286  0.3295298650333295  1.0000
  H   H23       1.0  0.16064613347003132  0.11148307278146767  0.8295293217635873  1.0000
  H   H24       1.0  0.3393550536505217  0.6114875606634199  0.6704714328460781  1.0000
  H   H25       1.0  0.2107450300383249  0.8464648192831986  0.20694074538545243  1.0000
  H   H26       1.0  0.2892482623405143  0.3464631182632799  0.2930600744396301  1.0000
  H   H27       1.0  0.789253380179133  0.1535348684208344  0.7930597321822006  1.0000
  H   H28       1.0  0.7107573970173678  0.6535377789279906  0.7069416877268608  1.0000
  H   H29       1.0  0.8141313497906285  0.2178086030106883  0.051977223136212614  1.0000
  H   H30       1.0  0.6858654718441031  0.7178127188305155  0.4480179519780237  1.0000
  H   H31       1.0  0.1858767768280742  0.7821874561944709  0.9480212758121241  1.0000
  H   H32       1.0  0.31413539427191484  0.2822002734154836  0.5519800826712853  1.0000
  H   H33       1.0  0.7296869879866607  0.030524246466157496  0.08428004238632521  1.0000
  H   H34       1.0  0.7703207392805212  0.5305238929794381  0.4157159514855522  1.0000
  H   H35       1.0  0.27031630022551667  0.9694693937413347  0.9157180103222871  1.0000
  H   H36       1.0  0.22969709802471533  0.46948788976032313  0.5842809789841398  1.0000
  H   H37       1.0  0.31196711961967344  0.09339380643214669  0.013758526365954501  1.0000
  H   H38       1.0  0.18804964078153572  0.5933961279090951  0.4862416799622764  1.0000
  H   H39       1.0  0.6880554996244114  0.906605881246655  0.9862429519370153  1.0000
  H   H40       1.0  0.81196572930633  0.40660718829161613  0.513758513737514  1.0000
  H   H41       1.0  0.20633540573182063  0.9028458163881296  0.04210747650262191  1.0000
  H   H42       1.0  0.29368415514309015  0.40284280988496585  0.4578938506629342  1.0000
  H   H43       1.0  0.7936848027744148  0.09715629030338137  0.9578931634401542  1.0000
  H   H44       1.0  0.7063409369935698  0.5971580873222777  0.5421039542584012  1.0000
  C   C1        1.0  0.6223601391562923  0.4585519094393646  0.1842355940379363  1.0000
  C   C2        1.0  0.8776350480527954  0.9585517114366907  0.31576366035998404  1.0000
  C   C3        1.0  0.3776431490440402  0.541445359274995  0.8157624586674146  1.0000
  C   C4        1.0  0.12235366838525148  0.041446766769532  0.6842371551991209  1.0000
  C   C5        1.0  0.44325419175554265  0.3106167443307585  0.16598981664025564  1.0000
  C   C6        1.0  0.0567248138475449  0.8106155261440262  0.3340101390123849  1.0000
  C   C7        1.0  0.5567369410402633  0.6893889908841757  0.8340114271123085  1.0000
  C   C8        1.0  0.9432590641681886  0.18938537107369058  0.6659902303026541  1.0000
  C   C9        1.0  0.4156425284847884  0.16267023162648536  0.1939822431843368  1.0000
  C   C10       1.0  0.08434715410020742  0.6626633517558246  0.3060164097722904  1.0000
  C   C11       1.0  0.5843461992404786  0.83733308459513  0.8060177520543164  1.0000
  C   C12       1.0  0.9156343019023013  0.3373314979523555  0.693983941506261  1.0000
  C   C13       1.0  0.2155827426402226  0.06441187289699708  0.1608619438953625  1.0000
  C   C14       1.0  0.28440754772334736  0.564413873835143  0.33913934650781397  1.0000
  C   C15       1.0  0.7844108178558574  0.9355890243100047  0.839138907745415  1.0000
  C   C16       1.0  0.7155932618934032  0.4355942803705374  0.6608627897263659  1.0000
  C   C17       1.0  0.10446770012057982  0.894952927008141  0.1684098001860264  1.0000
  C   C18       1.0  0.39552285920770197  0.3949504849413187  0.3315905043382372  1.0000
  C   C19       1.0  0.8955282880639218  0.1050467606977961  0.8315906593397102  1.0000
  C   C20       1.0  0.6044731120064811  0.6050540407644078  0.6684111856573125  1.0000
  C   C21       1.0  0.9242915264874297  0.10630074966315557  0.0689052420725176  1.0000
  C   C22       1.0  0.5757180996654087  0.6063004453788919  0.4310926845105243  1.0000
  C   C23       1.0  0.07571901651667899  0.8936941000346933  0.9310936850768743  1.0000
  C   C24       1.0  0.42429484273009166  0.3937052898251778  0.568907901303227  1.0000
  C   C25       1.0  0.1084916088057781  0.017290773182423894  0.0253077619814377  1.0000
  C   C26       1.0  0.39152564862192923  0.5172917648074032  0.4746925810555211  1.0000
  C   C27       1.0  0.8915262002932709  0.9827052860120136  0.9746912192926375  1.0000
  C   C28       1.0  0.6084897045272161  0.48270671337481025  0.5253088431227724  1.0000
  Br  Br1       1.0  0.7450119106285626  0.6271586987038729  0.046227835146588306  1.0000
  Br  Br2       1.0  0.7549757527926318  0.12714492570643898  0.4537719423933879  1.0000
  Br  Br3       1.0  0.2549792221435466  0.37285429352478155  0.95377340859946  1.0000
  Br  Br4       1.0  0.24502024103941983  0.8728559715048971  0.546228106973203  1.0000
  N   N1        1.0  0.2698774112716933  0.30412100046405743  0.1177907066186563  1.0000
  N   N2        1.0  0.2301089028566352  0.8041187964339328  0.3822093148292467  1.0000
  N   N3        1.0  0.7301306983806415  0.6958786872386112  0.8822090228005808  1.0000
  N   N4        1.0  0.769879824864681  0.19588572928996228  0.6177906804083193  1.0000
  N   N5        1.0  0.1301515829456079  0.15425531724149982  0.11581557252323194  1.0000
  N   N6        1.0  0.3698405540049308  0.654254089308914  0.38418475421856624  1.0000
  N   N7        1.0  0.8698541046777067  0.8457431609607794  0.8841841388551615  1.0000
  N   N8        1.0  0.630157844889773  0.3457516459003215  0.6158165436597615  1.0000
