data_image0
_chemical_formula_structural       Zn4H72C82N22O8
_chemical_formula_sum              "Zn4 H72 C82 N22 O8"
_cell_length_a       19.851515918400306
_cell_length_b       20.039910962461864
_cell_length_c       20.092481498145766
_cell_angle_alpha    68.81267676155447
_cell_angle_beta     69.21056350616252
_cell_angle_gamma    106.7603627080116

_space_group_name_H-M_alt    "P 1"
_space_group_IT_number       1

loop_
  _space_group_symop_operation_xyz
  'x, y, z'

loop_
  _atom_site_type_symbol
  _atom_site_label
  _atom_site_symmetry_multiplicity
  _atom_site_fract_x
  _atom_site_fract_y
  _atom_site_fract_z
  _atom_site_occupancy
  Zn  Zn1       1.0  0.07140380789193317  0.4785681899908811  0.9172927426066975  1.0000
  Zn  Zn2       1.0  0.8663868811879498  0.49958667812993013  0.13214090549564614  1.0000
  Zn  Zn3       1.0  0.9610135708909127  0.37519271031209217  0.13169764685517274  1.0000
  Zn  Zn4       1.0  0.9793876680352654  0.5991832354460271  0.9144543167287723  1.0000
  H   H1        1.0  0.1168554984641262  0.3647348123224391  0.8656419815525496  1.0000
  H   H2        1.0  0.31891702418114004  0.9759663086691577  0.512098616694331  1.0000
  H   H3        1.0  0.6838070096106962  0.4546139345036481  0.13232590750543943  1.0000
  H   H4        1.0  0.2403940017321063  0.503132602006261  0.9116418428796463  1.0000
  H   H5        1.0  0.8188969016960995  0.2299813311220832  0.1480286367920129  1.0000
  H   H6        1.0  0.13513572207264712  0.7657423978146909  0.8043409990347996  1.0000
  H   H7        1.0  0.02120099130739589  0.6731942251390921  0.7133018229527722  1.0000
  H   H8        1.0  0.08242662896577005  0.4667045789098552  0.17408201489370612  1.0000
  H   H9        1.0  0.8482829469888105  0.45631640680900226  0.9201191175113265  1.0000
  H   H10       1.0  0.09404603914362046  0.31298954724803  0.1729716155322123  1.0000
  H   H11       1.0  0.01579696652348176  0.5005287765260037  0.5457150109499976  1.0000
  H   H12       1.0  0.007134556122132263  0.6506476095017392  0.11211059111745666  1.0000
  H   H13       1.0  0.2342520049999025  0.737062257414955  0.26899824807718886  1.0000
  H   H14       1.0  0.1020666164372487  0.42738994766651933  0.5429176090744717  1.0000
  H   H15       1.0  0.21047900105276823  0.4829068090834598  0.4729784009559949  1.0000
  H   H16       1.0  0.2000285272071309  0.38095604512508163  0.4262319372156541  1.0000
  H   H17       1.0  0.15968157502122432  0.33228581465046847  0.5357489045462671  1.0000
  H   H18       1.0  0.09195175654193129  0.32585035027283743  0.49639572844994717  1.0000
  H   H19       1.0  0.04427737982267399  0.7514314651252079  0.3361303666853388  1.0000
  H   H20       1.0  0.15208396514528744  0.817777159779503  0.27046560851037776  1.0000
  H   H21       1.0  0.13913586990437246  0.9064789131647759  0.3319263701826287  1.0000
  H   H22       1.0  0.07751874791628703  0.8974672817612446  0.28606613238135037  1.0000
  H   H23       1.0  0.9899223659810307  0.5959655481730552  0.4242192582473976  1.0000
  H   H24       1.0  0.03127895486930046  0.8405306983936995  0.39658297121332703  1.0000
  H   H25       1.0  0.39284830105017227  0.7721933039491943  0.5311854552246303  1.0000
  H   H26       1.0  0.4871507887016621  0.8159299141044444  0.4485840680131615  1.0000
  H   H27       1.0  0.46479433748093874  0.14785867940365457  0.3011795782643745  1.0000
  H   H28       1.0  0.37079267316917003  0.10318692657862281  0.3844637511196537  1.0000
  H   H29       1.0  0.22714839087684907  0.23304687621650572  0.8428995354743944  1.0000
  H   H30       1.0  0.25702213847211647  0.18957234683514904  0.7874383933729375  1.0000
  H   H31       1.0  0.05529701728499979  0.8364231778259494  0.1300155645451326  1.0000
  H   H32       1.0  0.034217264899766245  0.8821905422489139  0.18566255867408898  1.0000
  H   H33       1.0  0.13724485568746309  0.08741605220803463  0.7926762602652316  1.0000
  H   H34       1.0  0.2600817458408003  0.6416866143991413  0.38984358768589533  1.0000
  H   H35       1.0  0.09604940977831028  0.979599068494743  0.8495660826567716  1.0000
  H   H36       1.0  0.21006633550545234  0.9897675108300987  0.7310140521938279  1.0000
  H   H37       1.0  0.15388864858499565  0.03360216466273873  0.6958123388075279  1.0000
  H   H38       1.0  0.2516438675625707  0.09742651544389973  0.6745576104720924  1.0000
  H   H39       1.0  0.16914136796822996  0.13404938493901852  0.10013049931288978  1.0000
  H   H40       1.0  0.1727261510670246  0.04609266633077177  0.16161822636701828  1.0000
  H   H41       1.0  0.04108121287118389  0.008834554001978703  0.2858811678689932  1.0000
  H   H42       1.0  0.1237377582878239  0.10479628689381572  0.24631681167421246  1.0000
  H   H43       1.0  0.04494679433307885  0.10113953054796106  0.2227931912763239  1.0000
  H   H44       1.0  0.5647407542496056  0.2279291509735231  0.3359566892644708  1.0000
  H   H45       1.0  0.4511721417799707  0.28240751774738737  0.15761945948999304  1.0000
  H   H46       1.0  0.5795751262802397  0.29342887475241514  0.23820362541148654  1.0000
  H   H47       1.0  0.5569819068349845  0.3891741072954034  0.28702171006104743  1.0000
  H   H48       1.0  0.47234361150896126  0.28865110019298623  0.3570945594052474  1.0000
  H   H49       1.0  0.5462779000478903  0.3251777301811104  0.3831361445435491  1.0000
  H   H50       1.0  0.3609460693539788  0.6878482669189907  0.7538706019544179  1.0000
  H   H51       1.0  0.3661961774515917  0.7076092681689873  0.658087268478809  1.0000
  H   H52       1.0  0.3626378634488251  0.5710646233389698  0.6874340581188106  1.0000
  H   H53       1.0  0.4505543529257566  0.6405877997663794  0.6773940616813832  1.0000
  H   H54       1.0  0.36716226583997996  0.5588057320054106  0.7778502784484755  1.0000
  H   H55       1.0  0.18972378091273637  0.5379592759981764  0.6384870745205263  1.0000
  H   H56       1.0  0.458742406545426  0.42033367472974004  0.8916007072934986  1.0000
  H   H57       1.0  0.09734184571100007  0.46499027402364135  0.658527029988214  1.0000
  H   H58       1.0  0.11644294585348566  0.3511698993486336  0.7446311821876888  1.0000
  H   H59       1.0  0.19974739706211164  0.4147660466613275  0.6397969826641371  1.0000
  H   H60       1.0  0.21115253732140374  0.42562485033077746  0.7197770359384491  1.0000
  H   H61       1.0  0.9928472370576742  0.6550240231979673  0.24842801587399788  1.0000
  H   H62       1.0  0.9311500761632345  0.567593595163473  0.3504847979084714  1.0000
  H   H63       1.0  0.8093008156858019  0.5912857206851284  0.3670883255131017  1.0000
  H   H64       1.0  0.8923551484069778  0.676677248525934  0.34572143907698216  1.0000
  H   H65       1.0  0.8719870596035053  0.6799681682346305  0.26533340934407307  1.0000
  H   H66       1.0  0.9678869132413509  0.139933784303274  0.15584969044338226  1.0000
  H   H67       1.0  0.3250631987740462  0.2819320866018771  0.15992164269506043  1.0000
  H   H68       1.0  0.9020995458246118  0.17395858556498925  0.18947060825495038  1.0000
  H   H69       1.0  0.05872404105199585  0.8633281117019965  0.8525382968048517  1.0000
  H   H70       1.0  0.9894669892530176  0.7972835259470088  0.8462895255889574  1.0000
  H   H71       1.0  0.5846771354451832  0.42069508472751965  0.8894960184212478  1.0000
  H   H72       1.0  0.565399505649886  0.963018177002212  0.34992580955805846  1.0000
  C   C1        1.0  0.07379577068149266  0.3332944299272926  0.9319161544184453  1.0000
  C   C2        1.0  0.199844470437661  0.6310429004684934  0.39759361062806425  1.0000
  C   C3        1.0  0.06385579776195986  0.5521619357791607  0.48340560845000613  1.0000
  C   C4        1.0  0.18550618848436082  0.6844728279837184  0.3304918260032538  1.0000
  C   C5        1.0  0.10293783258593715  0.6147005831411649  0.6119298230566199  1.0000
  C   C6        1.0  0.06388365527865861  0.5572780100832517  0.2618330327716692  1.0000
  C   C7        1.0  0.11700603740166593  0.6852881519359929  0.4004319251952068  1.0000
  C   C8        1.0  0.13270206635839096  0.5517582524749471  0.414226305249528  1.0000
  C   C9        1.0  0.13080927561908623  0.6307132569078961  0.4685944342270288  1.0000
  C   C10       1.0  0.11771437949017391  0.6053953073306673  0.3466004272710991  1.0000
  C   C11       1.0  0.12652713640181196  0.6331998519107529  0.5396262856902823  1.0000
  C   C12       1.0  0.002788074344202781  0.6720829601788908  0.05675475260678548  1.0000
  C   C13       1.0  0.09843119030704647  0.5850771247354204  0.29264198692237636  1.0000
  C   C14       1.0  0.38201293569058253  0.31188057318415474  0.10081812474896876  1.0000
  C   C15       1.0  0.5275338162875658  0.38987183503910244  0.948581265816642  1.0000
  C   C16       1.0  0.735609827884069  0.4629449196898748  0.08089954201143014  1.0000
  C   C17       1.0  0.1935756728552463  0.4597594654239359  0.9767250845636043  1.0000
  C   C18       1.0  0.38399387460787443  0.3542235222961239  0.02596367993827905  1.0000
  C   C19       1.0  0.5276195886391408  0.35464092606189723  0.023463577391886932  1.0000
  C   C20       1.0  0.45723944524966964  0.3897982472746976  0.9497718683228057  1.0000
  C   C21       1.0  0.4523528429818811  0.31209389468883597  0.09949568167280622  1.0000
  C   C22       1.0  0.31664507762847904  0.36596614634196106  0.02812295062839347  1.0000
  C   C23       1.0  0.7357324311797626  0.43576254149999755  0.025078048424560916  1.0000
  C   C24       1.0  0.602034425389739  0.37082023136809994  0.023098594350685224  1.0000
  C   C25       1.0  0.6664468951230589  0.3973913616773573  0.021835658172619787  1.0000
  C   C26       1.0  0.2613499400204873  0.3828959434093804  0.03253396393208874  1.0000
  C   C27       1.0  0.510096710175148  0.96457272561198  0.3851494477098357  1.0000
  C   C28       1.0  0.37264701755229623  0.9732977234049044  0.47513040430451536  1.0000
  C   C29       1.0  0.5080287599568577  0.038826923831138054  0.35475052670108914  1.0000
  C   C30       1.0  0.3787445473242528  0.9019435199373901  0.5098511598107296  1.0000
  C   C31       1.0  0.4347252529478425  0.04097257740986756  0.39726046052918207  1.0000
  C   C32       1.0  0.4458666936458614  0.8953066791732027  0.46082127534746314  1.0000
  C   C33       1.0  0.5801098832535203  0.1128835161024853  0.2902062738185336  1.0000
  C   C34       1.0  0.1970361659591121  0.40113506081100786  0.03920928779838561  1.0000
  C   C35       1.0  0.3218613350950862  0.8389597446465019  0.5933689500799985  1.0000
  C   C36       1.0  0.2781556182750794  0.7863913714560271  0.6673773244416734  1.0000
  C   C37       1.0  0.6431535558162835  0.17803783600749054  0.24975110715270432  1.0000
  C   C38       1.0  0.17587324706263965  0.040379984011266815  0.9091609054605313  1.0000
  C   C39       1.0  0.11131566960859371  0.029284849194212433  0.06318876248090526  1.0000
  C   C40       1.0  0.7965061746900446  0.2652761483416199  0.17064177533514868  1.0000
  C   C41       1.0  0.15261856039045815  0.7182685769635243  0.8093974169765372  1.0000
  C   C42       1.0  0.13632428706375796  0.9640381752594892  0.9829269347446187  1.0000
  C   C43       1.0  0.14064255389657637  0.10271025392039242  0.9900961924652802  1.0000
  C   C44       1.0  0.10803665828866137  0.9594065077057224  0.06108510019979722  1.0000
  C   C45       1.0  0.7152103830887881  0.24978983878166625  0.2145642550347518  1.0000
  C   C46       1.0  0.17938226893951292  0.11021116202265811  0.9112083985271866  1.0000
  C   C47       1.0  0.11485273822803778  0.8914297706713014  0.981059885649742  1.0000
  C   C48       1.0  0.12266275966037915  0.16453523240867443  0.994511178426478  1.0000
  C   C49       1.0  0.09515513535761505  0.2120669466035282  0.9938864099309795  1.0000
  C   C50       1.0  0.08216012630120431  0.8258366875821537  0.9869959291907688  1.0000
  C   C51       1.0  0.03105431166596887  0.6215236552645323  0.7390482119399093  1.0000
  C   C52       1.0  0.03274852896016983  0.4815208561183653  0.19022911057386688  1.0000
  C   C53       1.0  0.7252228367311204  0.3187385454278699  0.22414723077675083  1.0000
  C   C54       1.0  0.2120220063152162  0.6434326705372301  0.7900054283213577  1.0000
  C   C55       1.0  0.06481185889232703  0.5227871107107165  0.761463286385961  1.0000
  C   C56       1.0  0.22195563293912818  0.7230987411036552  0.7502287508182021  1.0000
  C   C57       1.0  0.9451590944374645  0.5248140451766049  0.23523066259791378  1.0000
  C   C58       1.0  0.8192266402685395  0.46234012700382765  0.973060461677512  1.0000
  C   C59       1.0  0.11893070996082147  0.3625681153706993  0.11065283756514793  1.0000
  C   C60       1.0  0.995674726400985  0.2505819765940915  0.06905600469931268  1.0000
  C   C61       1.0  0.012584153558826753  0.7453529287953629  0.937186053656994  1.0000
  C   C62       1.0  0.059323659274497266  0.2622728303470297  0.9969308852780897  1.0000
  C   C63       1.0  0.03869720191365673  0.753239680326516  0.9923788378681733  1.0000
  C   C64       1.0  0.15163125536452787  0.44239783558709433  0.48339995575202005  1.0000
  C   C65       1.0  0.15080122124209086  0.3658628703968034  0.48544036609123276  1.0000
  C   C66       1.0  0.09813076134503991  0.7946961101806097  0.3308443723959513  1.0000
  C   C67       1.0  0.07118641998383192  0.5892933942698309  0.69653405385408  1.0000
  C   C68       1.0  0.08567474094629583  0.8638111781073051  0.3369169393221583  1.0000
  C   C69       1.0  0.15320647731715548  0.03769740340916886  0.8017601511875652  1.0000
  C   C70       1.0  0.19465443191326423  0.039601743212408475  0.721161963958778  1.0000
  C   C71       1.0  0.1315778289698031  0.07159326223811038  0.1545746859251835  1.0000
  C   C72       1.0  0.0820290651370499  0.07122125644762892  0.2319845469481621  1.0000
  C   C73       1.0  0.5856060526108494  0.29138886943484016  0.29130287052169007  1.0000
  C   C74       1.0  0.537925093721114  0.3261776364929646  0.3316717411518512  1.0000
  C   C75       1.0  0.345706150007672  0.6588867784796478  0.7202322969004769  1.0000
  C   C76       1.0  0.3834188090383466  0.6038374441819273  0.715790850658024  1.0000
  C   C77       1.0  0.13831064951587993  0.47563406430590055  0.6831053614719735  1.0000
  C   C78       1.0  0.018609895598921004  0.5252101433850741  0.23044470704483894  1.0000
  C   C79       1.0  0.16788776946938103  0.4129780420153395  0.6982167363856676  1.0000
  C   C80       1.0  0.9296189497682905  0.6063373198029185  0.2964840161357855  1.0000
  C   C81       1.0  0.8722466127192947  0.6404635455376778  0.31983726743167296  1.0000
  C   C82       1.0  0.04973121098775846  0.6061765731253674  0.41737693864902065  1.0000
  N   N1        1.0  0.023817764691095634  0.36117901874980873  0.9630059141688105  1.0000
  N   N2        1.0  0.14208843715752573  0.5964821149552508  0.864299055850047  1.0000
  N   N3        1.0  0.02431854231877394  0.5163977121564115  0.8351049180896767  1.0000
  N   N4        1.0  0.9195084745373023  0.4846216126382999  0.2008898305061778  1.0000
  N   N5        1.0  0.8645335797918323  0.5022673865101766  0.9962795330005461  1.0000
  N   N6        1.0  0.0742625921752024  0.3958663887408847  0.09032540990077814  1.0000
  N   N7        1.0  0.9754816969431134  0.3102706898055844  0.04878418799389554  1.0000
  N   N8        1.0  0.9649134995321591  0.6660940536223593  0.967067872678754  1.0000
  N   N9        1.0  0.4491820023087671  0.822338366695199  0.4925694837325096  1.0000
  N   N10       1.0  0.4292805074235134  0.11268528245210521  0.3643205420677518  1.0000
  N   N11       1.0  0.21190308955119974  0.1829607199792847  0.8377160279827719  1.0000
  N   N12       1.0  0.9583384182543426  0.620350555779801  0.042723438376946025  1.0000
  N   N13       1.0  0.07533484934758436  0.8865961549301886  0.13436600782300465  1.0000
  N   N14       1.0  0.9608020582545009  0.18953997403269074  0.1506736279044247  1.0000
  N   N15       1.0  0.03392975527979312  0.8068068272266089  0.8610132898607288  1.0000
  N   N16       1.0  0.812307650910313  0.5025370543330254  0.06314329734848204  1.0000
  N   N17       1.0  0.11947618884500616  0.4556670497250011  0.008034694211097777  1.0000
  N   N18       1.0  0.8487828119823037  0.33567985066832756  0.1568473567091503  1.0000
  N   N19       1.0  0.10433010908361248  0.6421105597619743  0.8765036123692055  1.0000
  N   N20       1.0  0.0037880658140638135  0.5782842654309094  0.8203617825122149  1.0000
  N   N21       1.0  0.9737826723067967  0.4572197010817761  0.17312093108736099  1.0000
  N   N22       1.0  0.8048367440802481  0.3692555749300652  0.18918785302340524  1.0000
  O   O1        1.0  0.14000783262231684  0.48459570050436457  0.41687294352950477  1.0000
  O   O2        1.0  0.10962428695089721  0.7523998939569055  0.39766806469167176  1.0000
  O   O3        1.0  0.20908868028966057  0.04613932853956034  0.8324823893318296  1.0000
  O   O4        1.0  0.07531005601503439  0.021596433345763395  0.1404887133422932  1.0000
  O   O5        1.0  0.6714454038089528  0.3404326603589425  0.2610419229950693  1.0000
  O   O6        1.0  0.2570031252414538  0.6085951594174617  0.7651802696737988  1.0000
  O   O7        1.0  0.09351721419153601  0.46901343623854796  0.7618137386249727  1.0000
  O   O8        1.0  0.8998576047970204  0.5574318014424336  0.2647993450435847  1.0000
