data_image0
_chemical_formula_structural       Cu4H28C28S4N16Cl4
_chemical_formula_sum              "Cu4 H28 C28 S4 N16 Cl4"
_cell_length_a       7.1193604211524795
_cell_length_b       7.920129384996281
_cell_length_c       22.289544497549866
_cell_angle_alpha    89.99864051399788
_cell_angle_beta     89.99999092440481
_cell_angle_gamma    96.2832158491642

_space_group_name_H-M_alt    "P 1"
_space_group_IT_number       1

loop_
  _space_group_symop_operation_xyz
  'x, y, z'

loop_
  _atom_site_type_symbol
  _atom_site_label
  _atom_site_symmetry_multiplicity
  _atom_site_fract_x
  _atom_site_fract_y
  _atom_site_fract_z
  _atom_site_occupancy
  Cu  Cu1       1.0  0.5974894101741058  0.421111873389961  0.7063975604482027  1.0000
  Cu  Cu2       1.0  0.9025146855406236  0.5788888219491921  0.2064028185628929  1.0000
  Cu  Cu3       1.0  0.40250702082275325  0.578892672340835  0.29359706508429895  1.0000
  Cu  Cu4       1.0  0.09748718419437812  0.4211133831280592  0.7935971906696795  1.0000
  H   H1        1.0  0.5484121114250017  0.3628978869789067  0.481843198024322  1.0000
  H   H2        1.0  0.9515722759022225  0.6370800144113459  0.9818468595253125  1.0000
  H   H3        1.0  0.45160053607725803  0.6370983680601083  0.5181514275435362  1.0000
  H   H4        1.0  0.0484069533967357  0.3629024090242368  0.0181482147425882  1.0000
  H   H5        1.0  0.6393382545765006  0.18005515298729338  0.5124125712056654  1.0000
  H   H6        1.0  0.8606514063897849  0.8199313454148723  0.012412180928038202  1.0000
  H   H7        1.0  0.3606783223162751  0.819937442730911  0.48758384894117784  1.0000
  H   H8        1.0  0.13933828866409934  0.18005904018512817  0.9875851365100207  1.0000
  H   H9        1.0  0.580282612180632  0.546839053007247  0.8384580442253551  1.0000
  H   H10       1.0  0.9197004412125268  0.4531685821786837  0.3384634791365002  1.0000
  H   H11       1.0  0.4196926877237601  0.45314702971919724  0.16153613274524767  1.0000
  H   H12       1.0  0.08030604374270921  0.5468565686338209  0.6615414650472858  1.0000
  H   H13       1.0  0.49823029210043046  0.8186197853872554  0.8862268143284027  1.0000
  H   H14       1.0  0.0017477556789912967  0.1813997988553808  0.38623592008174523  1.0000
  H   H15       1.0  0.5017663510900264  0.181369578600922  0.11376825990979003  1.0000
  H   H16       1.0  0.9982593279388184  0.8186329673546381  0.6137757536821342  1.0000
  H   H17       1.0  0.4227885006852858  0.0575532348520227  0.8185238819397188  1.0000
  H   H18       1.0  0.07720214783797989  0.9424624304705702  0.31854263564018487  1.0000
  H   H19       1.0  0.5772223381106232  0.9424378936187595  0.18146984636836558  1.0000
  H   H20       1.0  0.9227942704422817  0.05755983489950009  0.6814708327319539  1.0000
  H   H21       1.0  0.4242141925008697  0.014801338491381003  0.7081678390143581  1.0000
  H   H22       1.0  0.07578995454095146  0.985201882187482  0.2081911625506337  1.0000
  H   H23       1.0  0.5757940140687269  0.9852099497849948  0.29182499192592815  1.0000
  H   H24       1.0  0.9241993286777943  0.014801146045229502  0.7918227545445549  1.0000
  H   H25       1.0  0.4731136833503982  0.8146110637482237  0.6186210937429949  1.0000
  H   H26       1.0  0.026889977393182104  0.18538163601073174  0.11863240839312542  1.0000
  H   H27       1.0  0.5268865772547856  0.18538855339139804  0.3813753263739131  1.0000
  H   H28       1.0  0.9731075764173412  0.8146014307679009  0.8813738818930053  1.0000
  C   C1        1.0  0.544984642913434  0.6545747524989524  0.8118083181067849  1.0000
  C   C2        1.0  0.9550058992446752  0.3454374481698749  0.3118164678251817  1.0000
  C   C3        1.0  0.4550103911390764  0.345412023491683  0.18818496157910403  1.0000
  C   C4        1.0  0.045000386146213586  0.6545851641019027  0.6881884763694616  1.0000
  C   C5        1.0  0.4997779241154987  0.805690283663651  0.8375708730129933  1.0000
  C   C6        1.0  0.00021064348713649357  0.19431771425513486  0.3375816629188152  1.0000
  C   C7        1.0  0.5002205277711482  0.1943042068178684  0.16242734168918102  1.0000
  C   C8        1.0  0.9998028893563815  0.805707683991244  0.6624277676723125  1.0000
  C   C9        1.0  0.457219594699204  0.9374043682453532  0.8001433455463032  1.0000
  C   C10       1.0  0.042784916969026206  0.06260794266224681  0.30015615780283883  1.0000
  C   C11       1.0  0.5427947617252046  0.0625957440765532  0.19985262592759775  1.0000
  C   C12       1.0  0.9572151313775662  0.937406855740683  0.6998541701152947  1.0000
  C   C13       1.0  0.4587028984467665  0.9142330067078889  0.7382449162653872  1.0000
  C   C14       1.0  0.0412954377569577  0.0857692772025729  0.23825842787825746  1.0000
  C   C15       1.0  0.5412943434428216  0.08576397294740448  0.2617488120177428  1.0000
  C   C16       1.0  0.9587019038376212  0.9142289711539179  0.7617523487514293  1.0000
  C   C17       1.0  0.5042874151142415  0.7596801751640498  0.7153752121883914  1.0000
  C   C18       1.0  0.9957132685596835  0.2403311952683609  0.21539054063533314  1.0000
  C   C19       1.0  0.495721203211275  0.24031846989546324  0.28461851608759053  1.0000
  C   C20       1.0  0.0042787340525122786  0.7596706628173138  0.7846206846197961  1.0000
  C   C21       1.0  0.50518784636175  0.7208334036981227  0.6520030647111386  1.0000
  C   C22       1.0  0.994811203320545  0.2791719947752754  0.15201088302574567  1.0000
  C   C23       1.0  0.4948150338506565  0.2791637739941422  0.34799156085281174  1.0000
  C   C24       1.0  0.0051757723094140555  0.7208195607470812  0.8479958558649942  1.0000
  C   C25       1.0  0.598550365355962  0.3604879473412836  0.5740931866249356  1.0000
  C   C26       1.0  0.9014465958830726  0.6394871138145178  0.07409882416146021  1.0000
  C   C27       1.0  0.4014570429481168  0.6395131867122714  0.4259014389221037  1.0000
  C   C28       1.0  0.0985467292005779  0.3604958045487336  0.9259034283577494  1.0000
  S   S1        1.0  0.6715425094940528  0.24038734529803207  0.6327790620095473  1.0000
  S   S2        1.0  0.8284779704190299  0.7596036287307939  0.13278143062053263  1.0000
  S   S3        1.0  0.32846499858001005  0.7596150579360099  0.3672182553771109  1.0000
  S   S4        1.0  0.17153487664351988  0.24039516481899167  0.8672140922181629  1.0000
  N   N1        1.0  0.5483575239129478  0.6328202584993436  0.7523841370075389  1.0000
  N   N2        1.0  0.9516372861564123  0.3671897123061783  0.2523898576817629  1.0000
  N   N3        1.0  0.4516361005517524  0.3671664679296285  0.2476104886010902  1.0000
  N   N4        1.0  0.04836558138002539  0.6328251853249257  0.7476146379050025  1.0000
  N   N5        1.0  0.5447003559936049  0.5693098921035187  0.6372241366495929  1.0000
  N   N6        1.0  0.9552923782850372  0.43070386117680937  0.1372333524116485  1.0000
  N   N7        1.0  0.45530816254161277  0.4306874836257109  0.36277138619517774  1.0000
  N   N8        1.0  0.04469771586909838  0.5692916012949495  0.8627702459765064  1.0000
  N   N9        1.0  0.5441779948832491  0.5174071939341829  0.5801419895509882  1.0000
  N   N10       1.0  0.9558150819755726  0.48257239190876794  0.08014627558541322  1.0000
  N   N11       1.0  0.45582790404475293  0.4825926212424037  0.4198553278467331  1.0000
  N   N12       1.0  0.0441711952055783  0.5174102789157544  0.919854631012349  1.0000
  N   N13       1.0  0.5967817218902881  0.2966837414522702  0.518201783167804  1.0000
  N   N14       1.0  0.9031999407059885  0.7032906993588028  0.0182019404964819  1.0000
  N   N15       1.0  0.403236464138395  0.7033114422485055  0.4817968801721835  1.0000
  N   N16       1.0  0.09678452777287562  0.29668684492745  0.9817971715598265  1.0000
  Cl  Cl1       1.0  0.742516858503443  0.295889655211333  0.782245315578024  1.0000
  Cl  Cl2       1.0  0.7574801012327939  0.7041133437737557  0.28224771019792183  1.0000
  Cl  Cl3       1.0  0.2574808822909275  0.7041136707508502  0.21774975860051882  1.0000
  Cl  Cl4       1.0  0.24251240036339541  0.29589486120296016  0.7177473639597951  1.0000
