data_image0
_chemical_formula_structural       Al2H11C22S2N2ClO12
_chemical_formula_sum              "Al2 H11 C22 S2 N2 Cl1 O12"
_cell_length_a       6.651203963310056
_cell_length_b       12.741993980669204
_cell_length_c       16.95252943826597
_cell_angle_alpha    84.71814454101629
_cell_angle_beta     82.50618961901888
_cell_angle_gamma    74.75037834538973

_space_group_name_H-M_alt    "P 1"
_space_group_IT_number       1

loop_
  _space_group_symop_operation_xyz
  'x, y, z'

loop_
  _atom_site_type_symbol
  _atom_site_label
  _atom_site_symmetry_multiplicity
  _atom_site_fract_x
  _atom_site_fract_y
  _atom_site_fract_z
  _atom_site_occupancy
  Al  Al1       1.0  0.4992643204342499  0.5026824812290158  0.49901856865714206  1.0000
  Al  Al2       1.0  0.0004884138180969145  0.4993497201994472  0.499286784977116  1.0000
  H   H1        1.0  0.20952992535085  0.6198791336824955  0.4333344241568041  1.0000
  H   H2        1.0  0.7895782624756364  0.37388585782364464  0.5516265104004318  1.0000
  H   H3        1.0  0.8880816588162616  0.45560579842330656  0.7380445411827665  1.0000
  H   H4        1.0  0.8255245693732434  0.45227017028309296  0.886867364052591  1.0000
  H   H5        1.0  0.39191772281102993  0.5551337809152203  0.8916162908560279  1.0000
  H   H6        1.0  0.5953636858148883  0.4582152203507946  0.10571992890096739  1.0000
  H   H7        1.0  0.19115375153815248  0.530680082049969  0.11072431290458701  1.0000
  H   H8        1.0  0.1289652319441997  0.5293742635916061  0.25905333195778  1.0000
  H   H9        1.0  0.30578785136149383  0.8557236099088571  0.4507006267426021  1.0000
  H   H10       1.0  0.4955946159372928  0.5549101633940837  0.6805475910763688  1.0000
  H   H11       1.0  0.4962263111959757  0.45803667613884613  0.317174721199187  1.0000
  C   C1        1.0  0.6605369455365914  0.6957904330932082  0.5027253651042682  1.0000
  C   C2        1.0  0.7945024242642659  0.49708940752317693  0.35414768752720954  1.0000
  C   C3        1.0  0.34182979961170895  0.3057249550519998  0.49908405167202113  1.0000
  C   C4        1.0  0.2070169588125808  0.505020663575003  0.6432995921089457  1.0000
  C   C5        1.0  0.1751677599059035  0.5054202645909387  0.7306666569042759  1.0000
  C   C6        1.0  0.9977453690532769  0.4763228886054733  0.7725432072111572  1.0000
  C   C7        1.0  0.961560051517452  0.47501276088343763  0.8545368995074013  1.0000
  C   C8        1.0  0.10533914289513295  0.5044881736183058  0.8971363482724826  1.0000
  C   C9        1.0  0.2828209476908156  0.5329293416822126  0.8575185092360869  1.0000
  C   C10       1.0  0.32034856750039614  0.5336244698194436  0.774184072294531  1.0000
  C   C11       1.0  0.7107514571214323  0.47444350111891964  0.13985722822340554  1.0000
  C   C12       1.0  0.8956592905948001  0.49457571397569916  0.10018185716902649  1.0000
  C   C13       1.0  0.048302567881584844  0.5153370643840705  0.14294076177853296  1.0000
  C   C14       1.0  0.012128457012551126  0.5152308710687806  0.22489599283925088  1.0000
  C   C15       1.0  0.8267186385725652  0.4951610230964932  0.26681536510856313  1.0000
  C   C16       1.0  0.6741204862044371  0.47426602363091047  0.22319828860318577  1.0000
  C   C17       1.0  0.581203705323084  0.11512088972633451  0.5320491637429612  1.0000
  C   C18       1.0  0.42190080071732455  0.8845571664949646  0.47610449204348987  1.0000
  C   C19       1.0  0.4074711954834243  0.18642014300057502  0.5017266537562362  1.0000
  C   C20       1.0  0.5985842167660492  0.815008498030821  0.5041238575226145  1.0000
  C   C21       1.0  0.4174356592316498  0.9942198718639689  0.4849955641753708  1.0000
  C   C22       1.0  0.5888181991525343  0.005295276938134906  0.5215082447967843  1.0000
  S   S1        1.0  0.2512653958294848  0.1187194516117884  0.4624667355301425  1.0000
  S   S2        1.0  0.7589888358897312  0.8814723661284914  0.542491959425888  1.0000
  N   N1        1.0  0.08515597908714068  0.5076761579971318  0.9810684273331916  1.0000
  N   N2        1.0  0.9145017619492959  0.4918735980499137  0.0161655178037776  1.0000
  Cl  Cl1       1.0  0.7622070129225306  0.14942697865826204  0.5807597226238173  1.0000
  O   O1        1.0  0.523439991158362  0.6497116405624441  0.48639868736844954  1.0000
  O   O2        1.0  0.9342709499514755  0.5172300865022379  0.3907386032028483  1.0000
  O   O3        1.0  0.15434937735735593  0.35050807591776595  0.48333472685782647  1.0000
  O   O4        1.0  0.3772725764592335  0.527159611779105  0.6075194604603168  1.0000
  O   O5        1.0  0.47556280961806846  0.3555154457816912  0.5124892343271695  1.0000
  O   O6        1.0  0.07044700989772683  0.4817428633378142  0.606773625379901  1.0000
  O   O7        1.0  0.8472233810060246  0.6476094057424789  0.5171393551247049  1.0000
  O   O8        1.0  0.6201494853490174  0.4795345141274013  0.38979944485729584  1.0000
  O   O9        1.0  0.23751217836687746  0.5492573815957229  0.4621191553278551  1.0000
  O   O10       1.0  0.7618116516413167  0.4509538984272011  0.5352394617429396  1.0000
  O   O11       1.0  0.49451598076687736  0.5614609293914158  0.7389439603056189  1.0000
  O   O12       1.0  0.4933440362882849  0.453868692595286  0.2586424879223159  1.0000
