data_image0
_chemical_formula_structural       CoH24C30N4Cl2O6
_chemical_formula_sum              "Co1 H24 C30 N4 Cl2 O6"
_cell_length_a       7.513852133041842
_cell_length_b       9.741630931509295
_cell_length_c       9.878508429967475
_cell_angle_alpha    82.55061337646572
_cell_angle_beta     77.51500133934812
_cell_angle_gamma    73.75619012382812

_space_group_name_H-M_alt    "P 1"
_space_group_IT_number       1

loop_
  _space_group_symop_operation_xyz
  'x, y, z'

loop_
  _atom_site_type_symbol
  _atom_site_label
  _atom_site_symmetry_multiplicity
  _atom_site_fract_x
  _atom_site_fract_y
  _atom_site_fract_z
  _atom_site_occupancy
  Co  Co1       1.0  0.4999983185971073  0.5000005208920227  0.5000010556345985  1.0000
  H   H1        1.0  0.8679931565442797  0.42689966256440914  0.6230121056359865  1.0000
  H   H2        1.0  0.13200767689386342  0.5731014035970997  0.3769853290132803  1.0000
  H   H3        1.0  0.8003751915419386  0.557806781382453  0.5206806261563133  1.0000
  H   H4        1.0  0.19962324691135797  0.44219321377150306  0.479318298288135  1.0000
  H   H5        1.0  0.8464891277169855  0.5554759352793607  0.7937708555589396  1.0000
  H   H6        1.0  0.15350186906402996  0.4445262741350858  0.20622487355576172  1.0000
  H   H7        1.0  0.7966333852908603  0.24583303364840248  0.04262627114855634  1.0000
  H   H8        1.0  0.20336796409677763  0.7541658053145139  0.9573794397495451  1.0000
  H   H9        1.0  0.5157877910119453  0.3311976562984852  0.25631159652930086  1.0000
  H   H10       1.0  0.4842108799096747  0.6688012148720401  0.7436924835823648  1.0000
  H   H11       1.0  0.6754094328960603  0.2489199690358815  0.7324474183141519  1.0000
  H   H12       1.0  0.32459812095652296  0.7510767133068652  0.2675566023492878  1.0000
  H   H13       1.0  0.9185345245986624  0.7896180337012094  0.14202801996121658  1.0000
  H   H14       1.0  0.08147022451284157  0.21038294261236246  0.8579759310389081  1.0000
  H   H15       1.0  0.5332646442933748  0.09304884635198357  0.1650053962023464  1.0000
  H   H16       1.0  0.4667378373653576  0.906951110874672  0.8349949568789656  1.0000
  H   H17       1.0  0.6340308030352944  0.9314696257126939  0.25470096192128017  1.0000
  H   H18       1.0  0.36596449492591177  0.06853143217515616  0.7453003339546955  1.0000
  H   H19       1.0  0.8241502413288017  0.8306115253746426  0.4369720878325511  1.0000
  H   H20       1.0  0.1758519058359411  0.16938951429892765  0.5630271797527372  1.0000
  H   H21       1.0  0.8232337866883201  0.9992301450641317  0.8206390339520555  1.0000
  H   H22       1.0  0.17678040940588602  0.0007676534318860986  0.1793567852106861  1.0000
  H   H23       1.0  0.8975538667602051  0.7953670105333328  0.6753982745104711  1.0000
  H   H24       1.0  0.10246171957983562  0.2046307926271352  0.32459632495989155  1.0000
  C   C1        1.0  0.8924056129423333  0.5387668430175052  0.13282490927557697  1.0000
  C   C2        1.0  0.10757858564797831  0.46123540537947605  0.8671708130442186  1.0000
  C   C3        1.0  0.7891774449008649  0.5702296531872475  0.27870371581428804  1.0000
  C   C4        1.0  0.21081182588329025  0.42976932032581755  0.7212956740876353  1.0000
  C   C5        1.0  0.6663755267907587  0.17890820401322566  0.5354846528768178  1.0000
  C   C6        1.0  0.3336235806505312  0.8210896262469017  0.4645164425596776  1.0000
  C   C7        1.0  0.91462426820614  0.5315321248157472  0.8842180009784573  1.0000
  C   C8        1.0  0.085360164109531  0.46847331328165587  0.11577935041768232  1.0000
  C   C9        1.0  0.7084530961419657  0.06050227826531798  0.45355106065845535  1.0000
  C   C10       1.0  0.2915476607769278  0.939498756743802  0.546449426619212  1.0000
  C   C11       1.0  0.8092960494989679  0.5705098148395535  0.01421495929788822  1.0000
  C   C12       1.0  0.19069726574765158  0.42949343443006416  0.9857823326500256  1.0000
  C   C13       1.0  0.8353676816189831  0.019081327559703692  0.1040108300757936  1.0000
  C   C14       1.0  0.16463649927317184  0.9809175415003606  0.8959904063519636  1.0000
  C   C15       1.0  0.8849544465055741  0.13745520327786653  0.024783422342473257  1.0000
  C   C16       1.0  0.11505166734535534  0.8625457673160208  0.9752203265080727  1.0000
  C   C17       1.0  0.5766153592768646  0.2601592861660649  0.33772579804969644  1.0000
  C   C18       1.0  0.42338122690451024  0.7398417348497259  0.6622783483051011  1.0000
  C   C19       1.0  0.70812657101591  0.15855375829151794  0.6690699340190422  1.0000
  C   C20       1.0  0.2918820640949349  0.8414440215467138  0.3309307639131945  1.0000
  C   C21       1.0  0.9526251755710216  0.8819518713565129  0.0782367266720457  1.0000
  C   C22       1.0  0.04737859430788659  0.11804804899808366  0.9217664768880811  1.0000
  C   C23       1.0  0.6558779020128114  0.03646629347153409  0.21224870929970055  1.0000
  C   C24       1.0  0.34412769463160214  0.963532590637101  0.7877502898928769  1.0000
  C   C25       1.0  0.7917395783901924  0.9208464439449741  0.5006743182144788  1.0000
  C   C26       1.0  0.20826470452762888  0.07915246665159965  0.4993228480420768  1.0000
  C   C27       1.0  0.7900572531861269  0.019075759039843394  0.7168240273667623  1.0000
  C   C28       1.0  0.20995315767738265  0.9809209637841787  0.2831745012835258  1.0000
  C   C29       1.0  0.8315949980875172  0.9025271620726086  0.6341436568696965  1.0000
  C   C30       1.0  0.1684116288023246  0.09747279876326326  0.3658540546772785  1.0000
  N   N1        1.0  0.5843131522907116  0.3021971315562836  0.4589638014240337  1.0000
  N   N2        1.0  0.4156865488763443  0.697802816341479  0.5410389910420293  1.0000
  N   N3        1.0  0.6496801998570163  0.11645492950822235  0.3291572823206296  1.0000
  N   N4        1.0  0.35031643733719164  0.8835461122758157  0.6708448289485676  1.0000
  Cl  Cl1       1.0  0.5752200685318412  0.666251865475779  0.023285403061315397  1.0000
  Cl  Cl2       1.0  0.4247678885257216  0.33374713452522536  0.9767121539045863  1.0000
  O   O1        1.0  0.630623291757075  0.5387409680611198  0.31390804547152856  1.0000
  O   O2        1.0  0.36936487351942315  0.46126121125617875  0.6860921581135245  1.0000
  O   O3        1.0  0.7543666215567272  0.5014169050197027  0.6065102838586541  1.0000
  O   O4        1.0  0.2456345463754132  0.49858307869489227  0.39348823628663626  1.0000
  O   O5        1.0  0.8699027006154975  0.6176871674644032  0.355681711990279  1.0000
  O   O6        1.0  0.13008899065992804  0.38231288744034225  0.6443151705736697  1.0000
