data_image0
_chemical_formula_structural       Rb4H16C48N28O48
_chemical_formula_sum              "Rb4 H16 C48 N28 O48"
_cell_length_a       11.033373364268403
_cell_length_b       12.31096946465318
_cell_length_c       13.278302603000355
_cell_angle_alpha    90.00000983418319
_cell_angle_beta     90.00002383096184
_cell_angle_gamma    94.04568553616487

_space_group_name_H-M_alt    "P 1"
_space_group_IT_number       1

loop_
  _space_group_symop_operation_xyz
  'x, y, z'

loop_
  _atom_site_type_symbol
  _atom_site_label
  _atom_site_symmetry_multiplicity
  _atom_site_fract_x
  _atom_site_fract_y
  _atom_site_fract_z
  _atom_site_occupancy
  Rb  Rb1       1.0  0.15205459689347117  0.8968817352776026  0.9861961789661533  1.0000
  Rb  Rb2       1.0  0.3479448552784845  0.6031182946452417  0.4861955344582398  1.0000
  Rb  Rb3       1.0  0.8479458213457319  0.10311796722442067  0.0138038766885984  1.0000
  Rb  Rb4       1.0  0.6520547217911243  0.3968822230647787  0.513803768088124  1.0000
  H   H1        1.0  0.3637854530028121  0.5808913600942985  0.7789415374066948  1.0000
  H   H2        1.0  0.13621389173765408  0.9191086244308053  0.2789416228870607  1.0000
  H   H3        1.0  0.6362140589661321  0.4191083433033215  0.22105776513959088  1.0000
  H   H4        1.0  0.8637847790618947  0.08089189417489  0.7210576796591468  1.0000
  H   H5        1.0  0.5234492015931664  0.8812972152501782  0.797734653427348  1.0000
  H   H6        1.0  0.9765513860208725  0.6187031085103172  0.2977348088904677  1.0000
  H   H7        1.0  0.4765512817465094  0.11870330156416027  0.20226464911917216  1.0000
  H   H8        1.0  0.02345084475943079  0.38129659220075485  0.7022690123061323  1.0000
  H   H9        1.0  0.1082113174769077  0.41913104838798887  0.9855808441322296  1.0000
  H   H10       1.0  0.3917883021770549  0.0808697244345211  0.48558096434970827  1.0000
  H   H11       1.0  0.891787353322833  0.5808694702177915  0.0144192115222879  1.0000
  H   H12       1.0  0.6082121811630117  0.9191307923799812  0.5144198444134247  1.0000
  H   H13       1.0  0.19886209082147127  0.9450131493665308  0.6334952365188045  1.0000
  H   H14       1.0  0.30113808479610066  0.5549868024037962  0.1334953213480858  1.0000
  H   H15       1.0  0.801137421147473  0.05498655403108899  0.3665040660274883  1.0000
  H   H16       1.0  0.6988614922737071  0.4450137153063025  0.8665047343065808  1.0000
  C   C1        1.0  0.37197658334565625  0.1203328609907359  0.7894933028978669  1.0000
  C   C2        1.0  0.12802384093501468  0.379667867984267  0.2894926262046056  1.0000
  C   C3        1.0  0.6280229286236718  0.8796668424070475  0.21050750586503847  1.0000
  C   C4        1.0  0.8719775486751189  0.6203326479345462  0.7105081825586909  1.0000
  C   C5        1.0  0.18436963532420947  0.41659472763070926  0.9337240783470689  1.0000
  C   C6        1.0  0.3156298923488166  0.08340521952050038  0.4337241726738482  1.0000
  C   C7        1.0  0.8156299417455983  0.5834057900793894  0.0662759773076047  1.0000
  C   C8        1.0  0.6843696196203197  0.9165944838771976  0.5662758829807473  1.0000
  C   C9        1.0  0.4556847419461079  0.9368256845392793  0.7751760398780831  1.0000
  C   C10       1.0  0.044315507112529  0.5631742982653235  0.2751760373406924  1.0000
  C   C11       1.0  0.5443148351235011  0.06317483317073422  0.22482326266828065  1.0000
  C   C12       1.0  0.955685817397125  0.43682540334118153  0.7248255245308286  1.0000
  C   C13       1.0  0.23070983081519358  0.3176550872331204  0.9118681223298211  1.0000
  C   C14       1.0  0.2692896855286691  0.18234485513067963  0.411868216306388  1.0000
  C   C15       1.0  0.7692896811539429  0.6823446161645776  0.0881319333247745  1.0000
  C   C16       1.0  0.7307098264404672  0.8176548482670186  0.5881318393482076  1.0000
  C   C17       1.0  0.45867520671679773  0.040472461541341404  0.8149009265186463  1.0000
  C   C18       1.0  0.04132516563358729  0.45952745868672196  0.314900985633237  1.0000
  C   C19       1.0  0.541325276622878  0.9595280552729903  0.18509837602787368  1.0000
  C   C20       1.0  0.9586761588760667  0.5404722429197761  0.685100576238284  1.0000
  C   C21       1.0  0.27259750002905747  0.9731625067423973  0.6833796395454924  1.0000
  C   C22       1.0  0.22740179517631987  0.5268374568504725  0.18337969446743327  1.0000
  C   C23       1.0  0.7274020119400787  0.02683719665530759  0.3166204161091031  1.0000
  C   C24       1.0  0.7725986881637468  0.4731630599640226  0.8166211142957066  1.0000
  C   C25       1.0  0.2782430933663917  0.07885563103129559  0.7187545732219789  1.0000
  C   C26       1.0  0.22175541660544704  0.4211442699277298  0.2187531823388795  1.0000
  C   C27       1.0  0.7217555123326775  0.9211440732620915  0.2812454824324604  1.0000
  C   C28       1.0  0.7782431890932316  0.5788554343654866  0.781245367098947  1.0000
  C   C29       1.0  0.3309458725702186  0.3069316557185219  0.8426130519331849  1.0000
  C   C30       1.0  0.16905360787485077  0.19306827147539707  0.34261311300171116  1.0000
  C   C31       1.0  0.6690527331286588  0.6930680485747799  0.1573862506129444  1.0000
  C   C32       1.0  0.8309468103643526  0.8069314310266261  0.6573869426530408  1.0000
  C   C33       1.0  0.36084950817667044  0.9030054998044362  0.7102430225601353  1.0000
  C   C34       1.0  0.1391507072235569  0.5969944687770052  0.2102430581109758  1.0000
  C   C35       1.0  0.639150003792267  0.09699420359318368  0.2897562799861504  1.0000
  C   C36       1.0  0.8608515886570274  0.4030060462462971  0.7897592568690898  1.0000
  C   C37       1.0  0.2334804888067552  0.5110977678502094  0.8871338019611414  1.0000
  C   C38       1.0  0.26651891201582595  0.9889022403737328  0.3871339434640788  1.0000
  C   C39       1.0  0.7665181819929856  0.488902750755571  0.1128662536933689  1.0000
  C   C40       1.0  0.7334805999533103  0.011097463023972399  0.6128661121905169  1.0000
  C   C41       1.0  0.327307696701034  0.5075268260879326  0.8171105605501907  1.0000
  C   C42       1.0  0.172692574094448  0.9924731659020906  0.3171099171182377  1.0000
  C   C43       1.0  0.6726918803687738  0.4924736916221661  0.1828894951044759  1.0000
  C   C44       1.0  0.8273078441445562  0.007526536599847598  0.6828893854282043  1.0000
  C   C45       1.0  0.37436476934453106  0.40919888866955023  0.7968398976923723  1.0000
  C   C46       1.0  0.12563475247440437  0.09080184281044268  0.2968399275978442  1.0000
  C   C47       1.0  0.6256339014550109  0.590801629936152  0.2031594048538352  1.0000
  C   C48       1.0  0.8743657308652713  0.9091986740038962  0.703159374948676  1.0000
  N   N1        1.0  0.46850188911322727  0.41115970114297806  0.7208482734353012  1.0000
  N   N2        1.0  0.03149843448439071  0.08884019848344588  0.2208482705322652  1.0000
  N   N3        1.0  0.531498529125976  0.5888400013590384  0.2791517822194507  1.0000
  N   N4        1.0  0.968502048855285  0.9111603183308928  0.779151032014255  1.0000
  N   N5        1.0  0.3850099023631799  0.21778703510567252  0.8260845861910724  1.0000
  N   N6        1.0  0.1149904757843245  0.28221288757210766  0.3260846426939707  1.0000
  N   N7        1.0  0.6149896096059565  0.7822126682920327  0.17391546946352318  1.0000
  N   N8        1.0  0.8850100075555501  0.7177876292423091  0.6739154129608522  1.0000
  N   N9        1.0  0.5525125851152239  0.06569951587056981  0.8899850898618169  1.0000
  N   N10       1.0  0.9474872467472295  0.43430075771437515  0.3899845320957382  1.0000
  N   N11       1.0  0.4474869268539123  0.9343001875271282  0.1100149657927787  1.0000
  N   N12       1.0  0.05251407776223259  0.5656989438920447  0.6100162766674799  1.0000
  N   N13       1.0  0.1862953553170854  0.6144106322120492  0.9107264259354935  1.0000
  N   N14       1.0  0.3137040577348742  0.8855893811797059  0.4107265673886928  1.0000
  N   N15       1.0  0.8137042217527152  0.3855898854980495  0.0892736297191803  1.0000
  N   N16       1.0  0.6862955193349336  0.1144111365303928  0.5892734882659809  1.0000
  N   N17       1.0  0.1838827673366623  0.14516341421927587  0.6807210864315394  1.0000
  N   N18       1.0  0.31611669429123174  0.3548372918255538  0.1807204707457473  1.0000
  N   N19       1.0  0.8161167446324741  0.8548362891784222  0.3192789692230562  1.0000
  N   N20       1.0  0.6838828827781782  0.6451632258843815  0.8192780786923137  1.0000
  N   N21       1.0  0.17094482585927304  0.2230713667204398  0.9604827520009209  1.0000
  N   N22       1.0  0.32905555685366744  0.2769277710840115  0.46048288156861616  1.0000
  N   N23       1.0  0.8290546861098561  0.7769283366772585  0.0395173036536747  1.0000
  N   N24       1.0  0.6709448613855359  0.7230719314180051  0.5395171740861358  1.0000
  N   N25       1.0  0.3522264002608182  0.7944404967256488  0.6707131105336684  1.0000
  N   N26       1.0  0.1477738597495204  0.70556027750942  0.17071316623133728  1.0000
  N   N27       1.0  0.6477731768087979  0.20556002098437173  0.3292861920126954  1.0000
  N   N28       1.0  0.8522266235905464  0.2944402393050822  0.8292876425317957  1.0000
  O   O1        1.0  0.25683932520247044  0.7620728933346256  0.6260537688735965  1.0000
  O   O2        1.0  0.24316000538817664  0.7379278720136996  0.1260531095118154  1.0000
  O   O3        1.0  0.7431602518673301  0.2379276243754731  0.37394628678107017  1.0000
  O   O4        1.0  0.7568395716814323  0.2620726456963212  0.8739461930345485  1.0000
  O   O5        1.0  0.10622873131681129  0.23774840136465508  0.0353193105424552  1.0000
  O   O6        1.0  0.3937714310100732  0.26225064331042347  0.5353192640964011  1.0000
  O   O7        1.0  0.8937716869223848  0.7622513011373683  0.9646807451122967  1.0000
  O   O8        1.0  0.6062289221284586  0.7377482448791993  0.4646807915582727  1.0000
  O   O9        1.0  0.19754063788706588  0.24594043947812594  0.6893517179622463  1.0000
  O   O10       1.0  0.30245966938415586  0.2540594532491909  0.1893518347316387  1.0000
  O   O11       1.0  0.8024597803521374  0.7540592630238904  0.3106483376925055  1.0000
  O   O12       1.0  0.6975407488548556  0.7459402492527474  0.810647467814803  1.0000
  O   O13       1.0  0.0944715163024838  0.09758549135868579  0.6382465118002899  1.0000
  O   O14       1.0  0.4055287644780634  0.40241439017436426  0.1382466876144477  1.0000
  O   O15       1.0  0.9055289019365204  0.9024142111432525  0.3617527907461522  1.0000
  O   O16       1.0  0.5944708125915525  0.5975861275356564  0.8617526149319161  1.0000
  O   O17       1.0  0.4685200749366061  0.48385338673558914  0.6551764816632897  1.0000
  O   O18       1.0  0.0314793083495744  0.016146499401521904  0.1551764672571068  1.0000
  O   O19       1.0  0.5314794370325302  0.5161463166621088  0.3448235739913059  1.0000
  O   O20       1.0  0.9685202036195618  0.983853203996176  0.8448235883974887  1.0000
  O   O21       1.0  0.4408081081109854  0.737386483883668  0.6814290994199581  1.0000
  O   O22       1.0  0.05919209235337768  0.7626134783862637  0.1814291335602007  1.0000
  O   O23       1.0  0.5591923101280258  0.26261321861827  0.3185702031264839  1.0000
  O   O24       1.0  0.940807354515286  0.23738541069911887  0.8185716752026266  1.0000
  O   O25       1.0  0.0957065295560042  0.6147281943632378  0.9670762332169431  1.0000
  O   O26       1.0  0.40429297780570295  0.8852726456839052  0.46707565278521196  1.0000
  O   O27       1.0  0.9042921412437368  0.3852723242425426  0.0329238224375743  1.0000
  O   O28       1.0  0.5957075055339729  0.11472787113043377  0.5329236497613081  1.0000
  O   O29       1.0  0.5456878060106405  0.34257153114047156  0.724292245625108  1.0000
  O   O30       1.0  0.954311874863258  0.1574278918380969  0.22429164642694838  1.0000
  O   O31       1.0  0.4543117059584957  0.6574281722572265  0.2757078100294876  1.0000
  O   O32       1.0  0.04568763710568651  0.8425718115595231  0.7757076561193372  1.0000
  O   O33       1.0  0.532054067373025  0.12961004120363384  0.9591754109204373  1.0000
  O   O34       1.0  0.9679458003548405  0.3703902475370954  0.4591756032178366  1.0000
  O   O35       1.0  0.46794550969658394  0.8703904765063797  0.0408238916259265  1.0000
  O   O36       1.0  0.03205364651381612  0.6296086415482948  0.5408252055449907  1.0000
  O   O37       1.0  0.2389665219771189  0.6986335348271028  0.8748129658268268  1.0000
  O   O38       1.0  0.261032872458884  0.8013664706980277  0.3748130757765438  1.0000
  O   O39       1.0  0.7610329899920173  0.30136616857059545  0.1251870898277687  1.0000
  O   O40       1.0  0.7389667046109236  0.19863404701207088  0.6251869798781301  1.0000
  O   O41       1.0  0.6484433518066126  0.0180947804530689  0.8819479307984608  1.0000
  O   O42       1.0  0.8515564758899214  0.4819054913714637  0.3819481005518241  1.0000
  O   O43       1.0  0.3515561601623318  0.9819049229445512  0.11805137174782487  1.0000
  O   O44       1.0  0.14844394234908262  0.5180942111304673  0.6180512019946178  1.0000
  O   O45       1.0  0.1847566103704139  0.13138983791351677  0.9241520492724007  1.0000
  O   O46       1.0  0.3152446597803618  0.36860929103724516  0.42415218857176035  1.0000
  O   O47       1.0  0.8152438078687892  0.8686098645884996  0.0758480063823512  1.0000
  O   O48       1.0  0.6847566647289084  0.6313904105690894  0.575847867083148  1.0000
