data_image0
_chemical_formula_structural       Co2H28C28N8Cl4
_chemical_formula_sum              "Co2 H28 C28 N8 Cl4"
_cell_length_a       7.794094104866975
_cell_length_b       8.883180656259809
_cell_length_c       10.99068424100846
_cell_angle_alpha    90.0000072711315
_cell_angle_beta     90.0001380650782
_cell_angle_gamma    100.25603719497857

_space_group_name_H-M_alt    "P 1"
_space_group_IT_number       1

loop_
  _space_group_symop_operation_xyz
  'x, y, z'

loop_
  _atom_site_type_symbol
  _atom_site_label
  _atom_site_symmetry_multiplicity
  _atom_site_fract_x
  _atom_site_fract_y
  _atom_site_fract_z
  _atom_site_occupancy
  Co  Co1       1.0  0.7066581408182842  0.7862783342996381  0.48807216514405394  1.0000
  Co  Co2       1.0  0.2933419225480947  0.2137242149067617  0.98806886158841  1.0000
  H   H1        1.0  0.3131687630141328  0.5442073803924216  0.3758167502008619  1.0000
  H   H2        1.0  0.6868293846755974  0.45579394657582384  0.8758105023287615  1.0000
  H   H3        1.0  0.3818018303264665  0.1191598549411523  0.540885673030445  1.0000
  H   H4        1.0  0.6181892942610077  0.8808378086836299  0.04087882676868301  1.0000
  H   H5        1.0  0.1028587040641753  0.4006665738482695  0.2293297786727352  1.0000
  H   H6        1.0  0.8971433505153995  0.5993312081219956  0.7293257234763573  1.0000
  H   H7        1.0  0.17544347870802565  0.9753633662902812  0.3924680289753015  1.0000
  H   H8        1.0  0.824559499958994  0.024629954311166102  0.8924619726839327  1.0000
  H   H9        1.0  0.8806431057667294  0.03315585376370219  0.25440256563678093  1.0000
  H   H10       1.0  0.11935833449469169  0.966838514141792  0.7544026804141737  1.0000
  H   H11       1.0  0.9619440177021659  0.17147896611547253  0.14172175933576636  1.0000
  H   H12       1.0  0.03806798661364747  0.8285187367486628  0.6417180821974996  1.0000
  H   H13       1.0  0.9409233861032218  0.7762214089151486  0.23423830461850775  1.0000
  H   H14       1.0  0.059084864478620595  0.223775222290449  0.7342382421253152  1.0000
  H   H15       1.0  0.13061276883087908  0.6316394537088784  0.07189830536633221  1.0000
  H   H16       1.0  0.8693911815949561  0.36836393360312064  0.5719014585867656  1.0000
  H   H17       1.0  0.32668318564832066  0.8745683407431812  0.9471424448488012  1.0000
  H   H18       1.0  0.6733184838920961  0.12543646513317702  0.447141985855943  1.0000
  H   H19       1.0  0.47605410625939015  0.9011393112996304  0.6884407549852656  1.0000
  H   H20       1.0  0.5239446586699614  0.09886187958985458  0.18843548935602436  1.0000
  H   H21       1.0  0.21754360191862784  0.7063242732388701  0.8120506632386582  1.0000
  H   H22       1.0  0.7824572293390941  0.2936724259533392  0.3120440381556478  1.0000
  H   H23       1.0  0.24613790416523773  0.4223485067033934  0.7268130321659785  1.0000
  H   H24       1.0  0.753860528121308  0.5776504236333011  0.22681002624981522  1.0000
  H   H25       1.0  0.5417328762747786  0.34593514185454677  0.6172168281206469  1.0000
  H   H26       1.0  0.4582714695116293  0.654069421868897  0.1172105963277517  1.0000
  H   H27       1.0  0.6183592913812743  0.4771442930522271  0.49869834635664034  1.0000
  H   H28       1.0  0.38163136259621666  0.5228559901442295  0.9986997736365881  1.0000
  C   C1        1.0  0.3643386259600376  0.34046773345224324  0.4662779394543008  1.0000
  C   C2        1.0  0.6356568088399255  0.6595313743302995  0.9662707149072037  1.0000
  C   C3        1.0  0.28277861479663347  0.4195408736297068  0.3799174636410001  1.0000
  C   C4        1.0  0.7172154651912521  0.5804593184378746  0.8799112800773943  1.0000
  C   C5        1.0  0.322334514419289  0.18066118370344955  0.4711602122258044  1.0000
  C   C6        1.0  0.677661406626292  0.8193402155718915  0.9711548950381828  1.0000
  C   C7        1.0  0.16434467054901344  0.33911737908921685  0.29791609464898994  1.0000
  C   C8        1.0  0.8356535453113524  0.6608793141040435  0.7979101210703733  1.0000
  C   C9        1.0  0.20500358071192434  0.10010431812374071  0.3885119326699425  1.0000
  C   C10       1.0  0.7949944879439955  0.8998901518693361  0.8885050038753874  1.0000
  C   C11       1.0  0.1260281787528612  0.17900509261838246  0.300601964986413  1.0000
  C   C12       1.0  0.8739710947975536  0.8209904564409599  0.8005969826497649  1.0000
  C   C13       1.0  0.9997861214774203  0.09302517859376279  0.20970208657757894  1.0000
  C   C14       1.0  0.00021434635240782094  0.9069714473936517  0.7097001725017054  1.0000
  C   C15       1.0  0.03309645211581373  0.8221191719199654  0.16393344796014025  1.0000
  C   C16       1.0  0.9669032739550046  0.17788085538794013  0.6639367483334413  1.0000
  C   C17       1.0  0.13286704063237653  0.7531422250642167  0.08360641063499942  1.0000
  C   C18       1.0  0.8671369513685006  0.24686117062218932  0.5836095478294824  1.0000
  C   C19       1.0  0.23088161443587304  0.8744663344451598  0.018620555415225202  1.0000
  C   C20       1.0  0.7691249464571898  0.12553815464720944  0.5186207837579104  1.0000
  C   C21       1.0  0.43673298652581133  0.778026297638867  0.6805804221487934  1.0000
  C   C22       1.0  0.5632665641932705  0.22197259757368223  0.18057705562568327  1.0000
  C   C23       1.0  0.3070422056035439  0.6790476770203355  0.7437820131651736  1.0000
  C   C24       1.0  0.6929565213869253  0.3209524094526728  0.24377614809090897  1.0000
  C   C25       1.0  0.3164436081310598  0.5338776919518439  0.7009957787874515  1.0000
  C   C26       1.0  0.6835498365207255  0.46612237214084473  0.2009944615432674  1.0000
  C   C27       1.0  0.5019196739528695  0.4247376899009154  0.5501527297053672  1.0000
  C   C28       1.0  0.4980737039588873  0.5752645542974123  0.05014746774065772  1.0000
  N   N1        1.0  0.5201340715846143  0.6978961779305735  0.6028810502042108  1.0000
  N   N2        1.0  0.47986438952668914  0.3021049517612511  0.10287663966283131  1.0000
  N   N3        1.0  0.444071525516982  0.5486232591490962  0.6165953196541808  1.0000
  N   N4        1.0  0.5559259361442415  0.4513790264078494  0.11659196361948435  1.0000
  N   N5        1.0  0.19329096852239755  0.009443781290777099  0.05630512191753212  1.0000
  N   N6        1.0  0.8067105957699853  0.9905607429770954  0.5563036813542581  1.0000
  N   N7        1.0  0.07146449270438633  0.9748078047962351  0.14526313118105352  1.0000
  N   N8        1.0  0.9285379667236666  0.025193349045608205  0.6452636212491643  1.0000
  Cl  Cl1       1.0  0.5846553751116375  0.8340786682793749  0.31234142132912274  1.0000
  Cl  Cl2       1.0  0.4153481465095865  0.16592489306759722  0.8123410505703961  1.0000
  Cl  Cl3       1.0  0.9184507542788295  0.6517219605104287  0.4585236781950713  1.0000
  Cl  Cl4       1.0  0.08154698374841728  0.3482759936165608  0.9585209369053089  1.0000
