data_image0
_chemical_formula_structural       Mo8H16C16N8O24
_chemical_formula_sum              "Mo8 H16 C16 N8 O24"
_cell_length_a       7.4681415514078155
_cell_length_b       7.6743621918326905
_cell_length_c       13.90155594876458
_cell_angle_alpha    89.99678044091512
_cell_angle_beta     90.00174253928877
_cell_angle_gamma    90.00019584499145

_space_group_name_H-M_alt    "P 1"
_space_group_IT_number       1

loop_
  _space_group_symop_operation_xyz
  'x, y, z'

loop_
  _atom_site_type_symbol
  _atom_site_label
  _atom_site_symmetry_multiplicity
  _atom_site_fract_x
  _atom_site_fract_y
  _atom_site_fract_z
  _atom_site_occupancy
  Mo  Mo1       1.0  0.9183344352432598  0.46777318842934085  0.2727904107430064  1.0000
  Mo  Mo2       1.0  0.9183906052693303  0.9677185540350663  0.22720529142017648  1.0000
  Mo  Mo3       1.0  0.5816599262474681  0.4677573177377353  0.7727931093526549  1.0000
  Mo  Mo4       1.0  0.41837671389761505  0.032266817310286904  0.2727963840311602  1.0000
  Mo  Mo5       1.0  0.081669999167616  0.5322171616886064  0.727207489649004  1.0000
  Mo  Mo6       1.0  0.08161918519476788  0.032280917373825  0.7727911700428222  1.0000
  Mo  Mo7       1.0  0.4183445089531617  0.5322460625361674  0.2272119842086084  1.0000
  Mo  Mo8       1.0  0.5816263820624812  0.9677222295583974  0.7272079904963177  1.0000
  H   H1        1.0  0.13363657786425157  0.270043015876105  0.0966376809220577  1.0000
  H   H2        1.0  0.1336576054324894  0.7700676986569378  0.4033778701151434  1.0000
  H   H3        1.0  0.36639557121167604  0.2700466856483104  0.5966362850149808  1.0000
  H   H4        1.0  0.6336547878184148  0.2299632843417499  0.09662861805437468  1.0000
  H   H5        1.0  0.8663812465199499  0.7299733951417693  0.9033544640480711  1.0000
  H   H6        1.0  0.866338794680743  0.22993698507639948  0.5966164333380843  1.0000
  H   H7        1.0  0.6336115417471292  0.7299423612170416  0.4033673701295299  1.0000
  H   H8        1.0  0.36632688353886067  0.7700374901788793  0.9033714403745136  1.0000
  H   H9        1.0  0.7819746993102185  0.687959270313229  0.0777154817020005  1.0000
  H   H10       1.0  0.7819642637299039  0.1879360526414118  0.42224987240027895  1.0000
  H   H11       1.0  0.7180226604014094  0.6879571608858371  0.5777320750775061  1.0000
  H   H12       1.0  0.2819814987645514  0.812048588203929  0.07774726044902988  1.0000
  H   H13       1.0  0.21802705589972496  0.3120441107077312  0.9222680315671211  1.0000
  H   H14       1.0  0.2180147293023253  0.8120686311387147  0.5777465892538984  1.0000
  H   H15       1.0  0.28197507976688024  0.3120410072259788  0.42227445734473423  1.0000
  H   H16       1.0  0.718014902184123  0.18796130739747952  0.9222556750234145  1.0000
  C   C1        1.0  0.07440351414524568  0.3730671271861965  0.0533395283544564  1.0000
  C   C2        1.0  0.07442968056976439  0.8730940986392497  0.44666498934785887  1.0000
  C   C3        1.0  0.42560696862072694  0.373075194850273  0.5533398588873837  1.0000
  C   C4        1.0  0.57443021792605  0.12692466806488775  0.053346246717247  1.0000
  C   C5        1.0  0.9255915463061583  0.6269323446154049  0.9466483011243837  1.0000
  C   C6        1.0  0.9255560073597024  0.1269092821278335  0.5533293142364641  1.0000
  C   C7        1.0  0.5744068391194544  0.6269138520905031  0.44666019947237595  1.0000
  C   C8        1.0  0.42554475943437337  0.8730826213125624  0.9466653211446497  1.0000
  C   C9        1.0  0.8802360794432218  0.6046785789006819  0.0430021536187866  1.0000
  C   C10       1.0  0.880233251280309  0.10466735033065079  0.4569683403244724  1.0000
  C   C11       1.0  0.6197719640381151  0.6046765174725622  0.543013462928613  1.0000
  C   C12       1.0  0.3802366385362391  0.895331576065594  0.0430283214247709  1.0000
  C   C13       1.0  0.1197643368982284  0.39532089293696526  0.9569835177762016  1.0000
  C   C14       1.0  0.1197444025306496  0.8953308183078408  0.5430266827899004  1.0000
  C   C15       1.0  0.3802431824915899  0.39531513563593296  0.45698371798835774  1.0000
  C   C16       1.0  0.619754407473671  0.10468222827937268  0.956986842865632  1.0000
  N   N1        1.0  0.9553425512612037  0.4785485188826257  0.09626354451032881  1.0000
  N   N2        1.0  0.9553301679267605  0.978537995504155  0.4037237980407653  1.0000
  N   N3        1.0  0.5446790860872068  0.47854097497138076  0.5962684005357913  1.0000
  N   N4        1.0  0.455324342091771  0.021471625781721595  0.09627500096426898  1.0000
  N   N5        1.0  0.0446886637160162  0.5214731040813021  0.9037321969413483  1.0000
  N   N6        1.0  0.0446662319459747  0.021474506589918  0.5962669085306942  1.0000
  N   N7        1.0  0.45530928062711234  0.5214650115898892  0.4037338157518064  1.0000
  N   N8        1.0  0.5446452796857102  0.9785460878058815  0.9037408827972014  1.0000
  O   O1        1.0  0.9333554472339428  0.23772592649553562  0.2543258781863358  1.0000
  O   O2        1.0  0.9339291363781044  0.7377078295938447  0.24567690631013045  1.0000
  O   O3        1.0  0.566724354685121  0.23771938336475532  0.754318077511364  1.0000
  O   O4        1.0  0.4339329334130467  0.26228123717880447  0.2543230282500915  1.0000
  O   O5        1.0  0.0667239721386395  0.7622735445076074  0.745668424568315  1.0000
  O   O6        1.0  0.06600165234846139  0.2622851269400854  0.7543260301509775  1.0000
  O   O7        1.0  0.43335372715633  0.7622918144964858  0.2456913312358964  1.0000
  O   O8        1.0  0.5660005330628975  0.7377025981304044  0.7456777503422671  1.0000
  O   O9        1.0  0.6814217045692814  0.4990891863684866  0.24264148160666105  1.0000
  O   O10       1.0  0.6813735133709997  0.9985412707048199  0.2573560985489678  1.0000
  O   O11       1.0  0.8185839563519933  0.49914954411990214  0.7426366973095354  1.0000
  O   O12       1.0  0.18138029574150488  0.0014551768660453002  0.24265953381206626  1.0000
  O   O13       1.0  0.3185706782472124  0.5008516482681671  0.7573578586168068  1.0000
  O   O14       1.0  0.3186510070282011  0.0015233525969833  0.742640361420264  1.0000
  O   O15       1.0  0.18141110595961144  0.5009020487912608  0.2573655179675569  1.0000
  O   O16       1.0  0.8186254785105972  0.9984726267696759  0.7573549127741401  1.0000
  O   O17       1.0  0.9148856712468215  0.48580574912661245  0.3954382120142554  1.0000
  O   O18       1.0  0.9148473897547972  0.9858180342742316  0.10455824773318771  1.0000
  O   O19       1.0  0.5851218509035191  0.4857976491469175  0.8954415626602739  1.0000
  O   O20       1.0  0.41486596577530577  0.014192143365427503  0.395442057054609  1.0000
  O   O21       1.0  0.0851134070142407  0.5141846010524419  0.6045589690858506  1.0000
  O   O22       1.0  0.0851744518545843  0.0141892553396943  0.895436774762757  1.0000
  O   O23       1.0  0.41487187190805486  0.5141913977861918  0.10456281195826732  1.0000
  O   O24       1.0  0.5851625715458154  0.9857929942087227  0.6045623173067156  1.0000
