data_image0
_chemical_formula_structural       Zn8H28C44N12O28
_chemical_formula_sum              "Zn8 H28 C44 N12 O28"
_cell_length_a       8.756449343295614
_cell_length_b       9.753692022007158
_cell_length_c       15.339940196339288
_cell_angle_alpha    89.99990775745232
_cell_angle_beta     94.89643077255346
_cell_angle_gamma    89.99990459943078

_space_group_name_H-M_alt    "P 1"
_space_group_IT_number       1

loop_
  _space_group_symop_operation_xyz
  'x, y, z'

loop_
  _atom_site_type_symbol
  _atom_site_label
  _atom_site_symmetry_multiplicity
  _atom_site_fract_x
  _atom_site_fract_y
  _atom_site_fract_z
  _atom_site_occupancy
  Zn  Zn1       1.0  0.44485224753399427  0.9791466654699336  0.1409105873326553  1.0000
  Zn  Zn2       1.0  0.5551481390326174  0.47914589809612107  0.3590894969082186  1.0000
  Zn  Zn3       1.0  0.5551471303248832  0.020853165569874904  0.8590886161224276  1.0000
  Zn  Zn4       1.0  0.4448535414063457  0.5208539329393601  0.6409117705405832  1.0000
  Zn  Zn5       1.0  0.0822058960068759  0.07145774984432761  0.20394850929979916  1.0000
  Zn  Zn6       1.0  0.9177941725659764  0.5714574179548251  0.2960526309466047  1.0000
  Zn  Zn7       1.0  0.9177934886466446  0.928543106446618  0.7960519982661365  1.0000
  Zn  Zn8       1.0  0.0822063582808283  0.428543438335204  0.7039479305326137  1.0000
  H   H1        1.0  0.0427284822268774  0.16246661070220367  0.032740100798371  1.0000
  H   H2        1.0  0.9572725450183269  0.6624678371805571  0.4672603390953824  1.0000
  H   H3        1.0  0.9572708990298435  0.8375332203367802  0.9672597547124225  1.0000
  H   H4        1.0  0.04273027821400179  0.3375340443604103  0.5327403302098546  1.0000
  H   H5        1.0  0.0307720117929335  0.2846007894040383  0.10752702986659558  1.0000
  H   H6        1.0  0.9692310607480364  0.784601161964744  0.39247338068894067  1.0000
  H   H7        1.0  0.9692285156560274  0.7154000668868151  0.8924728795569195  1.0000
  H   H8        1.0  0.030772908677576493  0.21540071957529963  0.6075273425295862  1.0000
  H   H9        1.0  0.5846140679321933  0.17266981591100017  0.6105885335983956  1.0000
  H   H10       1.0  0.415385150462555  0.672671023886501  0.8894116286502936  1.0000
  H   H11       1.0  0.4153853133276328  0.8273269393695984  0.3894113219141246  1.0000
  H   H12       1.0  0.5846142307931287  0.32732983240527597  0.11058822685992449  1.0000
  H   H13       1.0  0.6288332162114543  0.928313948386965  0.5726025522644208  1.0000
  H   H14       1.0  0.3711677875653763  0.42831533364520885  0.927399386871528  1.0000
  H   H15       1.0  0.37117074982046455  0.07168383214273892  0.4273975189006975  1.0000
  H   H16       1.0  0.6288327500771089  0.5716855226431646  0.07260247871911929  1.0000
  H   H17       1.0  0.7822832037164957  0.8728221832075254  0.44851225165201913  1.0000
  H   H18       1.0  0.21771740135450557  0.3728216730451521  0.051488604054298996  1.0000
  H   H19       1.0  0.21771961272119003  0.1271786730823052  0.5514871135423647  1.0000
  H   H20       1.0  0.782283132890143  0.6271791832440455  0.9485126094806304  1.0000
  H   H21       1.0  0.641068708706385  0.20855510099128344  0.251516060348564  1.0000
  H   H22       1.0  0.3589322185013586  0.7085557246148682  0.2484830236734794  1.0000
  H   H23       1.0  0.3589318153457696  0.7914447300476013  0.7484831970198085  1.0000
  H   H24       1.0  0.6410683089486398  0.2914441064231923  0.751516885750604  1.0000
  H   H25       1.0  0.219124004114839  0.3297637633609085  0.34164259151878434  1.0000
  H   H26       1.0  0.7808778342598542  0.8297650096888415  0.1583583664574846  1.0000
  H   H27       1.0  0.7808765267329961  0.6702360676763276  0.6583579699610168  1.0000
  H   H28       1.0  0.2191238427791902  0.1702368718530565  0.8416422489344626  1.0000
  C   C1        1.0  0.8240245876544917  0.0839414296244954  0.4167665028774222  1.0000
  C   C2        1.0  0.17597315308170644  0.5839417194778777  0.08323255935486168  1.0000
  C   C3        1.0  0.17597364061533227  0.9160563509114824  0.583231994609811  1.0000
  C   C4        1.0  0.8240250853816419  0.41605606105561316  0.9167678942995039  1.0000
  C   C5        1.0  0.7966490752060267  0.22254637488327234  0.4370884712610348  1.0000
  C   C6        1.0  0.2033495381051935  0.7225466752371118  0.0629117933328445  1.0000
  C   C7        1.0  0.20334916325524688  0.7774534561558114  0.5629119823921795  1.0000
  C   C8        1.0  0.7966509859479985  0.27745213054897977  0.9370874640361035  1.0000
  C   C9        1.0  0.7086895119468579  0.25332956657118194  0.5075918922975262  1.0000
  C   C10       1.0  0.2913072508804504  0.753327623637155  0.9924080715397634  1.0000
  C   C11       1.0  0.29130757352338316  0.7466723149760668  0.4924072033298188  1.0000
  C   C12       1.0  0.7086898345928958  0.246671182151708  0.007591024089308013  1.0000
  C   C13       1.0  0.6511248923236792  0.1463587725220137  0.5562250029301907  1.0000
  C   C14       1.0  0.34887437590564463  0.6463578918519702  0.9437745368131161  1.0000
  C   C15       1.0  0.3488756283306387  0.8536410585177022  0.4437736023824712  1.0000
  C   C16       1.0  0.6511250053521137  0.35364091393422115  0.0562253186982602  1.0000
  C   C17       1.0  0.6765499516152645  0.010244168618591202  0.5352226281564043  1.0000
  C   C18       1.0  0.32344959878439994  0.5102442980605131  0.9647783685640405  1.0000
  C   C19       1.0  0.32345057583577125  0.9897546371666762  0.4647772812682617  1.0000
  C   C20       1.0  0.6765497858701579  0.48975553297764657  0.035222139002470995  1.0000
  C   C21       1.0  0.762547673760139  0.9793110828345276  0.46578483345912497  1.0000
  C   C22       1.0  0.23745271587140593  0.4793105868776665  0.03421590265265449  1.0000
  C   C23       1.0  0.2374528570887335  0.0206877229499156  0.5342157280212447  1.0000
  C   C24       1.0  0.7625478149764361  0.52068924415957  0.9657846588271466  1.0000
  C   C25       1.0  0.9185123268829611  0.0436408144527149  0.34382566971140693  1.0000
  C   C26       1.0  0.0814877911705167  0.5436410609725681  0.1561741976636313  1.0000
  C   C27       1.0  0.08148704757806512  0.9563590165879249  0.6561728816879651  1.0000
  C   C28       1.0  0.9185127430741248  0.4563597953166366  0.8438270158713053  1.0000
  C   C29       1.0  0.8775636266367641  0.33702609718576326  0.3930126230006152  1.0000
  C   C30       1.0  0.122434755068646  0.8370264069512316  0.10698751302447111  1.0000
  C   C31       1.0  0.1224334690269941  0.6629757843590056  0.6069884287938692  1.0000
  C   C32       1.0  0.8775657655846344  0.16297444934127717  0.8930110922876153  1.0000
  C   C33       1.0  0.6698614941915365  0.39701976679756257  0.5338028620415399  1.0000
  C   C34       1.0  0.3301372737160904  0.8970198826534461  0.9661977003026861  1.0000
  C   C35       1.0  0.3301367442697369  0.6029800642415138  0.4661975916116744  1.0000
  C   C36       1.0  0.6698621075406237  0.10297994838553852  0.033802155208107386  1.0000
  C   C37       1.0  0.5206849919578076  0.21300887403327806  0.2634117541359586  1.0000
  C   C38       1.0  0.47931592963846725  0.7130083225958828  0.23658797694056227  1.0000
  C   C39       1.0  0.4793155320933096  0.7869919822584066  0.7365875032318456  1.0000
  C   C40       1.0  0.5206857508004957  0.2869915084395984  0.7634132905082467  1.0000
  C   C41       1.0  0.3055898253724578  0.27484197358992896  0.30861942896265754  1.0000
  C   C42       1.0  0.6944109745242386  0.774843265588963  0.19138088472561782  1.0000
  C   C43       1.0  0.6944107054753843  0.7251578574473  0.6913811325171437  1.0000
  C   C44       1.0  0.30558955971936536  0.22515861595303474  0.808620328808743  1.0000
  N   N1        1.0  0.2776840485474921  0.164923680412187  0.2585802762609646  1.0000
  N   N2        1.0  0.7223169737279136  0.6649237788607252  0.2414201608739575  1.0000
  N   N3        1.0  0.7223164822993126  0.8350771758778418  0.7414202852182611  1.0000
  N   N4        1.0  0.27768355711889114  0.3350770774293039  0.7585804006052683  1.0000
  N   N5        1.0  0.4147620376094139  0.1259055692759432  0.22942471571526105  1.0000
  N   N6        1.0  0.5852390670008418  0.6259068240657869  0.2705764172948122  1.0000
  N   N7        1.0  0.5852384932384213  0.8740942617612931  0.7705758457645401  1.0000
  N   N8        1.0  0.4147614638459629  0.3740940322242352  0.7294241441844136  1.0000
  N   N9        1.0  0.45678798954364197  0.3078201359603269  0.3133896835210948  1.0000
  N   N10       1.0  0.5432138898274417  0.8078216659786789  0.1866106470435369  1.0000
  N   N11       1.0  0.5432136840996405  0.6921796950768098  0.6866102798162856  1.0000
  N   N12       1.0  0.4567866444161695  0.1921802155633117  0.8133905664908239  1.0000
  O   O1        1.0  0.9275714285922662  0.13207509124505631  0.2817375275395406  1.0000
  O   O2        1.0  0.072429660140692  0.6320741689709666  0.21826294648723626  1.0000
  O   O3        1.0  0.0724256534801242  0.8679267903030239  0.7182609160320936  1.0000
  O   O4        1.0  0.9275743160816461  0.367926687314629  0.7817390808432875  1.0000
  O   O5        1.0  0.9849435182059096  0.9292346489538512  0.3436265616167589  1.0000
  O   O6        1.0  0.015056969338225203  0.42923417629800303  0.15637357867866086  1.0000
  O   O7        1.0  0.015058158834179401  0.0707662073352537  0.6563740537757565  1.0000
  O   O8        1.0  0.9849435615085793  0.570766679992019  0.8436269828005647  1.0000
  O   O9        1.0  0.8039276203372197  0.4033877701182931  0.3295347976081544  1.0000
  O   O10       1.0  0.1960717767032421  0.9033867839937173  0.17046596985783677  1.0000
  O   O11       1.0  0.1960729139063915  0.5966141114236975  0.6704664159262065  1.0000
  O   O12       1.0  0.803925308766999  0.09661509755353138  0.8295331257695082  1.0000
  O   O13       1.0  0.011387905804298298  0.3666421590662167  0.4226934612821012  1.0000
  O   O14       1.0  0.9886115621778514  0.866642274753275  0.07730669539547107  1.0000
  O   O15       1.0  0.988611472056654  0.633355621468006  0.5773057421741329  1.0000
  O   O16       1.0  0.011385543685655402  0.13335345527224973  0.9226963125696059  1.0000
  O   O17       1.0  0.6597583324635963  0.49390520981191344  0.47715307101381643  1.0000
  O   O18       1.0  0.3402420242437856  0.9939054069539992  0.02284699665163  1.0000
  O   O19       1.0  0.3402421983842387  0.5060946212253227  0.5228474904659847  1.0000
  O   O20       1.0  0.6597573536150848  0.0060944240858163  0.9771522068034528  1.0000
  O   O21       1.0  0.6433776848451629  0.41578488848720957  0.6128511546558073  1.0000
  O   O22       1.0  0.35662218789268957  0.9157861900035869  0.8871487884707745  1.0000
  O   O23       1.0  0.356622846004754  0.5842128920444339  0.38714940682513793  1.0000
  O   O24       1.0  0.6433760471707473  0.08421364103632101  0.11285101312672907  1.0000
  O   O25       1.0  0.05494929944309491  0.1857746182811653  0.0962319970141579  1.0000
  O   O26       1.0  0.9450574116156004  0.685773973141302  0.40376868627057405  1.0000
  O   O27       1.0  0.9450500818125888  0.8142262380106118  0.9037678584960673  1.0000
  O   O28       1.0  0.05494885019761141  0.31422688314410147  0.596232144775108  1.0000
