data_image0
_chemical_formula_structural       Zn2H24C24N8O8
_chemical_formula_sum              "Zn2 H24 C24 N8 O8"
_cell_length_a       6.848977499908345
_cell_length_b       7.1449472469666695
_cell_length_c       14.068933671064523
_cell_angle_alpha    99.65006844292522
_cell_angle_beta     92.58635094291822
_cell_angle_gamma    93.13758461404774

_space_group_name_H-M_alt    "P 1"
_space_group_IT_number       1

loop_
  _space_group_symop_operation_xyz
  'x, y, z'

loop_
  _atom_site_type_symbol
  _atom_site_label
  _atom_site_symmetry_multiplicity
  _atom_site_fract_x
  _atom_site_fract_y
  _atom_site_fract_z
  _atom_site_occupancy
  Zn  Zn1       1.0  0.2803111984913613  0.6855195136914816  0.7479223067488193  1.0000
  Zn  Zn2       1.0  0.719688002124144  0.31447991079550536  0.2520774794575331  1.0000
  H   H1        1.0  0.9084829144791583  0.8904820068684812  0.7443457567423695  1.0000
  H   H2        1.0  0.0915149293587163  0.10951885099512994  0.2556541335576554  1.0000
  H   H3        1.0  0.7668081118269043  0.17419120780299116  0.8396318819651611  1.0000
  H   H4        1.0  0.23319119277888228  0.8258096391020402  0.16036803451319062  1.0000
  H   H5        1.0  0.2983688646066867  0.25486402504892414  0.0231119577711141  1.0000
  H   H6        1.0  0.7016321087475534  0.745139655733624  0.9768882454295638  1.0000
  H   H7        1.0  0.41911000277392657  0.9726688566913851  0.9194364075058273  1.0000
  H   H8        1.0  0.5808893965991899  0.0273334265076031  0.0805629294881527  1.0000
  H   H9        1.0  0.9349410437401174  0.3829784867799548  0.07573174922115561  1.0000
  H   H10       1.0  0.06505963608919528  0.6170208989966355  0.9242694826762803  1.0000
  H   H11       1.0  0.7864061615615227  0.42017904356286095  0.974892427477606  1.0000
  H   H12       1.0  0.21359306672282233  0.5798203392963972  0.025109487997866626  1.0000
  H   H13       1.0  0.5436676390793379  0.5219270617682313  0.5979519230399007  1.0000
  H   H14       1.0  0.456338770608383  0.478070871631907  0.402048573542487  1.0000
  H   H15       1.0  0.7801758346897286  0.633893112591288  0.486655830115332  1.0000
  H   H16       1.0  0.2198306974341619  0.366106215475071  0.5133462162518043  1.0000
  H   H17       1.0  0.6806736700279288  0.20966747530442836  0.6188384228743047  1.0000
  H   H18       1.0  0.31932102584769245  0.7903305873920701  0.3811597350123108  1.0000
  H   H19       1.0  0.4428985395988576  0.07622280071578301  0.7205144839079267  1.0000
  H   H20       1.0  0.5570976078217313  0.9237752648980474  0.27948299040064484  1.0000
  H   H21       1.0  0.8708408233158024  0.1545131347231887  0.4729333041887784  1.0000
  H   H22       1.0  0.12916129883552677  0.8454862678466384  0.5270665343742422  1.0000
  H   H23       1.0  0.8784253756939862  0.9206313965605875  0.4060936405581757  1.0000
  H   H24       1.0  0.1215769452149473  0.0793708647212412  0.5939057487924729  1.0000
  C   C1        1.0  0.9896371823510535  0.9759274643839151  0.8065835692714033  1.0000
  C   C2        1.0  0.010362217022063198  0.024074818815066103  0.193415767722577  1.0000
  C   C3        1.0  0.9110420101472555  0.13214150272298045  0.8604027709358563  1.0000
  C   C4        1.0  0.0889574932161281  0.8678622028940525  0.13959669633012342  1.0000
  C   C5        1.0  0.018992284794670404  0.23783155580068896  0.9404551698576428  1.0000
  C   C6        1.0  0.9810071238013904  0.7621707135223874  0.05954487689270853  1.0000
  C   C7        1.0  0.20555480672565093  0.17901049987627718  0.9621229194757817  1.0000
  C   C8        1.0  0.7944443938898615  0.8209889246107096  0.03787686673057781  1.0000
  C   C9        1.0  0.2749421147238635  0.02223428582970401  0.9045665162606654  1.0000
  C   C10       1.0  0.7250545803169216  0.9777708502466284  0.09543373867702344  1.0000
  C   C11       1.0  0.9378638232465946  0.4066983451613382  0.0006234447846082923  1.0000
  C   C12       1.0  0.06213696057299247  0.5933024630332964  0.9993779173848267  1.0000
  C   C13       1.0  0.5762176064183819  0.6730185461730896  0.5987860073938407  1.0000
  C   C14       1.0  0.4237857777432552  0.32697798672616335  0.40121430655988627  1.0000
  C   C15       1.0  0.7074484797025135  0.7368264799984345  0.5371596216823207  1.0000
  C   C16       1.0  0.29255679041106925  0.26317571773850557  0.4628419492941092  1.0000
  C   C17       1.0  0.7479551592532303  0.9327331203871626  0.5421126361975369  1.0000
  C   C18       1.0  0.2520467733634391  0.0672634095947515  0.45788836133423433  1.0000
  C   C19       1.0  0.6526147323064961  0.05595128838726281  0.6103446107381316  1.0000
  C   C20       1.0  0.34738591985397704  0.9440481390170563  0.389654491890184  1.0000
  C   C21       1.0  0.5211997391050076  0.9814819535790635  0.6687815814947272  1.0000
  C   C22       1.0  0.4787978875293816  0.01851607332436341  0.33121733850492774  1.0000
  C   C23       1.0  0.8945703577434614  0.006105543790752701  0.4790683466966499  1.0000
  C   C24       1.0  0.10543186839814209  0.9938952811971191  0.5209316221383631  1.0000
  N   N1        1.0  0.4955757923751065  0.44765467934762176  0.829846437101523  1.0000
  N   N2        1.0  0.5044221554530423  0.5523476009340342  0.17015358347050125  1.0000
  N   N3        1.0  0.9464419569283251  0.4766506439150433  0.671117666711666  1.0000
  N   N4        1.0  0.0535600704556742  0.5233473223608271  0.32888275133572625  1.0000
  N   N5        1.0  0.48319797910775714  0.7928544049847518  0.663593606192535  1.0000
  N   N6        1.0  0.5168012307306995  0.20714500562632313  0.3364068897701884  1.0000
  N   N7        1.0  0.16955384955015523  0.9210010669254985  0.8277346922515676  1.0000
  N   N8        1.0  0.8304454458326802  0.07899979385543787  0.1722645144704131  1.0000
  O   O1        1.0  0.4128487562699163  0.39279589910682233  0.7470954121509409  1.0000
  O   O2        1.0  0.5871475320327235  0.6072035334214124  0.2529050314551213  1.0000
  O   O3        1.0  0.46349446638399877  0.6194191076428625  0.8654880778054591  1.0000
  O   O4        1.0  0.5365047250085623  0.3805803307200364  0.1345109986445294  1.0000
  O   O5        1.0  0.9608933191975452  0.49483866005243743  0.7608925640601498  1.0000
  O   O6        1.0  0.0391074277302579  0.5051622036458383  0.23910595908378704  1.0000
  O   O7        1.0  0.0856507648012652  0.5673017615700646  0.6344200678526306  1.0000
  O   O8        1.0  0.9143512533597898  0.43269621858171803  0.3655796404383906  1.0000
