data_image0
_chemical_formula_structural       Zn16H32C100S16O52F8
_chemical_formula_sum              "Zn16 H32 C100 S16 O52 F8"
_cell_length_a       19.60001550229331
_cell_length_b       19.745389650857927
_cell_length_c       33.33558066696595
_cell_angle_alpha    78.9027494452882
_cell_angle_beta     79.29822200584914
_cell_angle_gamma    63.991838978847326

_space_group_name_H-M_alt    "P 1"
_space_group_IT_number       1

loop_
  _space_group_symop_operation_xyz
  'x, y, z'

loop_
  _atom_site_type_symbol
  _atom_site_label
  _atom_site_symmetry_multiplicity
  _atom_site_fract_x
  _atom_site_fract_y
  _atom_site_fract_z
  _atom_site_occupancy
  Zn  Zn1       1.0  0.05146950155882729  0.40172505250141194  0.47786023028290003  1.0000
  Zn  Zn2       1.0  0.9904704682347968  0.48210159712309036  0.5610050780988374  1.0000
  Zn  Zn3       1.0  0.05800940192487051  0.5612145136704354  0.48176744221714785  1.0000
  Zn  Zn4       1.0  0.8985723653387863  0.5543590692322271  0.4811615788147493  1.0000
  Zn  Zn5       1.0  0.693744607372146  0.3463291847576213  0.2717951412408297  1.0000
  Zn  Zn6       1.0  0.6872000558208953  0.19005973220686914  0.2646575472197057  1.0000
  Zn  Zn7       1.0  0.7711549573553214  0.2644148909561679  0.19041857338897472  1.0000
  Zn  Zn8       1.0  0.8477033735643859  0.19333303982856606  0.2742816185835294  1.0000
  Zn  Zn9       1.0  0.27117884613655713  0.7646699276901926  0.690252516667357  1.0000
  Zn  Zn10      1.0  0.3485244526564415  0.6993517450694211  0.7747575012764543  1.0000
  Zn  Zn11      1.0  0.1911128815111454  0.8469716940838193  0.7713263020005244  1.0000
  Zn  Zn12      1.0  0.19392848397644258  0.6852741931215147  0.7656990416846767  1.0000
  Zn  Zn13      1.0  0.5637863633499761  0.05627729286540275  0.9825811715198257  1.0000
  Zn  Zn14      1.0  0.4013225088857695  0.05645809802690852  0.9792719619243115  1.0000
  Zn  Zn15      1.0  0.5523199183619382  0.9002742562022162  0.9786504770380873  1.0000
  Zn  Zn16      1.0  0.4873154242353266  0.9809546699669267  0.06083389712173931  1.0000
  H   H1        1.0  0.9529972976224955  0.25246027744937277  0.35257762792137026  1.0000
  H   H2        1.0  0.7395914269452817  0.4498118339465334  0.35253201740474793  1.0000
  H   H3        1.0  0.9951453362523563  0.3066459276630127  0.40022685370617245  1.0000
  H   H4        1.0  0.09635008990164097  0.6029091768752081  0.6967353994982092  1.0000
  H   H5        1.0  0.21556966525240276  0.6940505540464981  0.5961921874373105  1.0000
  H   H6        1.0  0.05048444246251899  0.5574682989564438  0.6464640777820565  1.0000
  H   H7        1.0  0.45942785988700047  0.23880569077201844  0.3395916156553866  1.0000
  H   H8        1.0  0.48504184648434284  0.692991103922786  0.6066620650322179  1.0000
  H   H9        1.0  0.20813822759063777  0.9777815772504184  0.6005090497832981  1.0000
  H   H10       1.0  0.9482853860186465  0.9625382800622188  0.34102347888539003  1.0000
  H   H11       1.0  0.5624316608509757  0.04267028693935522  0.15124429072649553  1.0000
  H   H12       1.0  0.6475082446382032  0.15883541442470056  0.046222731475864996  1.0000
  H   H13       1.0  0.6105529528486642  0.09458205917113097  0.19719466541779698  1.0000
  H   H14       1.0  0.5499442485107906  0.7672501785281934  0.14920858381672283  1.0000
  H   H15       1.0  0.1661580164256335  0.15172082726157743  0.043996060638875206  1.0000
  H   H16       1.0  0.488576767039774  0.7990044153152591  0.9032729691815932  1.0000
  H   H17       1.0  0.293690915433558  0.014041912455304817  0.8966211034912916  1.0000
  H   H18       1.0  0.4358047159914093  0.7560421023823379  0.8552073938057773  1.0000
  H   H19       1.0  0.30557849697481737  0.27934639913399917  0.9012548491092929  1.0000
  H   H20       1.0  0.7823528441508074  0.005716028162261569  0.9026090494704846  1.0000
  H   H21       1.0  0.7816686169153755  0.5715066140232704  0.3889006612041044  1.0000
  H   H22       1.0  0.7531262805568063  0.5274983520431744  0.43565440340341877  1.0000
  H   H23       1.0  0.706313416320789  0.5427477452926792  0.3914179035013349  1.0000
  H   H24       1.0  0.13046193021979488  0.6961754055030909  0.51630098852457  1.0000
  H   H25       1.0  0.20532015248564758  0.6049328322624274  0.517590652496125  1.0000
  H   H26       1.0  0.22045519284738194  0.6810411437379073  0.5298650833986329  1.0000
  H   H27       1.0  0.7670849143359889  0.19972014289210432  0.08742920807166141  1.0000
  H   H28       1.0  0.681672299887488  0.2797619691217719  0.0969283204149178  1.0000
  H   H29       1.0  0.6995438297838277  0.23855128995881347  0.05073838765713388  1.0000
  H   H30       1.0  0.17287565307280056  0.9714539775096255  0.856274106540596  1.0000
  H   H31       1.0  0.2221525259928967  0.9995221181961754  0.8115775081997896  1.0000
  H   H32       1.0  0.2012495038222966  0.045956898071175055  0.8561920758370576  1.0000
  C   C1        1.0  0.0633602610798434  0.3150010765026181  0.5608250749605901  1.0000
  C   C2        1.0  0.0753927543311619  0.5717459929826559  0.565897285905848  1.0000
  C   C3        1.0  0.1819842373275478  0.4377572427560139  0.4388638697135931  1.0000
  C   C4        1.0  0.9325707281301657  0.6827158744776295  0.43830040888027366  1.0000
  C   C5        1.0  0.9227402902562712  0.4353161187487514  0.43148382557818377  1.0000
  C   C6        1.0  0.8225566966728763  0.5571606018274264  0.5667450938420515  1.0000
  C   C7        1.0  0.5648139194062621  0.30786794961845476  0.3114222611776968  1.0000
  C   C8        1.0  0.6846904980353016  0.18131521447755714  0.17771262973846547  1.0000
  C   C9        1.0  0.6862462110464022  0.43050628087637216  0.18803150803925214  1.0000
  C   C10       1.0  0.938120331156746  0.18904404361337146  0.19271030087233504  1.0000
  C   C11       1.0  0.8164568606113817  0.31809830042356424  0.32119073363408285  1.0000
  C   C12       1.0  0.8073584683687756  0.0638288090862601  0.3095123051316692  1.0000
  C   C13       1.0  0.43877939133190574  0.6880692304710649  0.6930317859157357  1.0000
  C   C14       1.0  0.3090137869422307  0.8283318926166315  0.8209256734944007  1.0000
  C   C15       1.0  0.192699909658586  0.9315100167937937  0.6876996906604376  1.0000
  C   C16       1.0  0.0645739523430677  0.8037190057570737  0.8087366234286222  1.0000
  C   C17       1.0  0.1871957526539418  0.6786706115618201  0.6785414157322621  1.0000
  C   C18       1.0  0.31608626744884555  0.5676646910813261  0.8136314703806349  1.0000
  C   C19       1.0  0.44152490836948033  0.1834183869485883  0.9393360529817515  1.0000
  C   C20       1.0  0.4240922352470378  0.935836198813732  0.9314993485665326  1.0000
  C   C21       1.0  0.683706119161954  0.9326237099313556  0.9379550327184206  1.0000
  C   C22       1.0  0.5599464950478321  0.8144369091585023  0.062148352909957766  1.0000
  C   C23       1.0  0.575330486230591  0.06674100010325654  0.06789447114448417  1.0000
  C   C24       1.0  0.3192063572522059  0.06093409497100307  0.0634835527073605  1.0000
  C   C25       1.0  0.891536391218949  0.4085818932014432  0.4030236518244977  1.0000
  C   C26       1.0  0.8434322304972426  0.3485795641576386  0.34971083028381866  1.0000
  C   C27       1.0  0.8177699619071744  0.45086673426859375  0.3898667299962497  1.0000
  C   C28       1.0  0.9159308698687597  0.30735644094038145  0.3630451749079739  1.0000
  C   C29       1.0  0.7958293264870022  0.41902029016114267  0.3632456509646431  1.0000
  C   C30       1.0  0.9390715463238521  0.33761982114816647  0.3894106949863598  1.0000
  C   C31       1.0  0.10629514107345268  0.6009863900294619  0.5931778899315461  1.0000
  C   C32       1.0  0.1586938245638763  0.6514361275945006  0.6491282009542161  1.0000
  C   C33       1.0  0.15358262684919308  0.6400271764004516  0.5778818138880197  1.0000
  C   C34       1.0  0.1119470869310533  0.6128644876915742  0.663767277511262  1.0000
  C   C35       1.0  0.1788126018798266  0.6642298572198371  0.6067631487813899  1.0000
  C   C36       1.0  0.0865164408882535  0.5879448782109192  0.6358092912496929  1.0000
  C   C37       1.0  0.30592081022258805  0.44822127314887444  0.40314139781838787  1.0000
  C   C38       1.0  0.44417153989191854  0.29407430141171165  0.3487422734983739  1.0000
  C   C39       1.0  0.25748264350401234  0.41171602543424496  0.4147508845541168  1.0000
  C   C40       1.0  0.49064319315727534  0.33243907959462854  0.337154234459895  1.0000
  C   C41       1.0  0.3767614356369934  0.3365945834793392  0.37294752623529354  1.0000
  C   C42       1.0  0.373958454875698  0.4064017898982397  0.3792645695049189  1.0000
  C   C43       1.0  0.732179321881567  0.5766385489443805  0.6349257710171372  1.0000
  C   C44       1.0  0.5300508114966006  0.6673222600237523  0.6267832331920786  1.0000
  C   C45       1.0  0.7486848862972408  0.5817106981720526  0.5924061105010169  1.0000
  C   C46       1.0  0.5148281584243932  0.6616400033037235  0.669195045698885  1.0000
  C   C47       1.0  0.6094617176301327  0.6359070120686918  0.6145420478217078  1.0000
  C   C48       1.0  0.653023239733251  0.6071623449024272  0.648121680041001  1.0000
  C   C49       1.0  0.078940135988681  0.22266248529227536  0.6280672524887478  1.0000
  C   C50       1.0  0.17840291136851497  0.022177976966730715  0.6204342821742159  1.0000
  C   C51       1.0  0.0884202046849865  0.24015298525885945  0.585616191783096  1.0000
  C   C52       1.0  0.16786174031435758  0.006563275668860102  0.6628261487208036  1.0000
  C   C53       1.0  0.1456185768558171  0.10126707635299678  0.6078642793057585  1.0000
  C   C54       1.0  0.11104637514522149  0.14392312570020488  0.6412570310246153  1.0000
  C   C55       1.0  0.8370327155513452  0.8012544083049136  0.39802555479703017  1.0000
  C   C56       1.0  0.9019590256016201  0.9444010833727317  0.3476384850021859  1.0000
  C   C57       1.0  0.9073742852035379  0.7563476162547215  0.4124197776381919  1.0000
  C   C58       1.0  0.8312707693669592  0.9883235455873349  0.33384886586279094  1.0000
  C   C59       1.0  0.9039124718945715  0.8758017602811845  0.37066427680508707  1.0000
  C   C60       1.0  0.8341035273411279  0.8694228277476344  0.37403894674621796  1.0000
  C   C61       1.0  0.6567728962273875  0.15484777763493446  0.14759084659964114  1.0000
  C   C62       1.0  0.6031294478428321  0.09739737322863821  0.09589087354923721  1.0000
  C   C63       1.0  0.6677732620439514  0.17467947431610037  0.10442785596983843  1.0000
  C   C64       1.0  0.5918301945538715  0.07911860451755362  0.13859117386146383  1.0000
  C   C65       1.0  0.640250778490973  0.1447982464143465  0.07953766181721993  1.0000
  C   C66       1.0  0.6185583201471871  0.10794569178116112  0.16391114707069931  1.0000
  C   C67       1.0  0.6675172203461344  0.5227664220772538  0.12059873122017707  1.0000
  C   C68       1.0  0.5761669538735461  0.7230826713715357  0.12903087927438156  1.0000
  C   C69       1.0  0.6606876291234726  0.5050796146859965  0.16310050295981432  1.0000
  C   C70       1.0  0.5839582893021031  0.7390744476419396  0.08661150384233451  1.0000
  C   C71       1.0  0.6065000607710545  0.6439363004119938  0.14124554142407675  1.0000
  C   C72       1.0  0.6368778389812205  0.6015827194468031  0.10758399142265769  1.0000
  C   C73       1.0  0.0851923110675301  0.11895052840024786  0.1805487074219769  1.0000
  C   C74       1.0  0.17385288346378047  0.1299333167038839  0.07614466178500828  1.0000
  C   C75       1.0  0.0131548278009603  0.16366988795179077  0.16814646385685714  1.0000
  C   C76       1.0  0.24502185826427342  0.08537601724572849  0.0892510246997631  1.0000
  C   C77       1.0  0.11577279888433618  0.1420303677880668  0.10963978206257961  1.0000
  C   C78       1.0  0.14436110083383366  0.1060462723863651  0.14761530163048772  1.0000
  C   C79       1.0  0.33504613620566187  0.8603465350987348  0.8492102532260972  1.0000
  C   C80       1.0  0.3935228432944342  0.9092887689818736  0.9028246334166213  1.0000
  C   C81       1.0  0.2930874084531752  0.9347680880422402  0.8604576109772495  1.0000
  C   C82       1.0  0.4344749487331113  0.8361473789977724  0.8912825707073965  1.0000
  C   C83       1.0  0.3241381864463762  0.9572449296922514  0.8873259124611012  1.0000
  C   C84       1.0  0.4050036294169388  0.812542495240329  0.8647175765500137  1.0000
  C   C85       1.0  0.4085944451114258  0.45106383565311586  0.8566132068196239  1.0000
  C   C86       1.0  0.34949586838659735  0.30021490185504973  0.8979956414842363  1.0000
  C   C87       1.0  0.3412928115716056  0.4931352102275709  0.838705035783626  1.0000
  C   C88       1.0  0.41743897644804656  0.258964381220295  0.9150832770315417  1.0000
  C   C89       1.0  0.3467880141786636  0.3701568430430413  0.8765235433814454  1.0000
  C   C90       1.0  0.4128785765328402  0.3806632565173515  0.878117006408921  1.0000
  C   C91       1.0  0.9462126574865051  0.7869743484803207  0.8498237693928062  1.0000
  C   C92       1.0  0.8011060995230892  0.9473280662188654  0.8971621608488222  1.0000
  C   C93       1.0  0.9900189095819059  0.827415522264523  0.8337685380224329  1.0000
  C   C94       1.0  0.7583092537863365  0.9060173667625259  0.9127241462920994  1.0000
  C   C95       1.0  0.8695020254546505  0.9035684882919027  0.8741517153853736  1.0000
  C   C96       1.0  0.8772370823764817  0.829522616673884  0.872891894452046  1.0000
  C   C97       1.0  0.7615314642824558  0.5271308488442725  0.40223201017523996  1.0000
  C   C98       1.0  0.1789903098740382  0.6563633658745188  0.533029584922936  1.0000
  C   C99       1.0  0.7059068013589068  0.2260200544472255  0.08371966590365788  1.0000
  C   C100      1.0  0.21837294421857223  0.9910903282398489  0.8453145651635269  1.0000
  S   S1        1.0  0.29605879814910446  0.32407201735575336  0.39625541367905737  1.0000
  S   S2        1.0  0.4534799669718339  0.4199870128949783  0.35552769996373  1.0000
  S   S3        1.0  0.6659626638139854  0.6246453059769908  0.567912958715482  1.0000
  S   S4        1.0  0.5964175561591959  0.6182473419277627  0.6946383924655707  1.0000
  S   S5        1.0  0.1375932930667716  0.15854755881391466  0.5612085878509419  1.0000
  S   S6        1.0  0.1182677186933532  0.08730495462923926  0.687839079269672  1.0000
  S   S7        1.0  0.9714853857352849  0.7980818027131135  0.3963071248359995  1.0000
  S   S8        1.0  0.7666631491433477  0.9469613357262788  0.34843989755822946  1.0000
  S   S9        1.0  0.6157490354157601  0.5864763922133063  0.18780366712039157  1.0000
  S   S10       1.0  0.627918517354388  0.6586802487276486  0.06111946000784487  1.0000
  S   S11       1.0  0.017574855778363496  0.19051919025000066  0.11512678486813141  1.0000
  S   S12       1.0  0.2423104832161158  0.057700089178716475  0.1421726552650355  1.0000
  S   S13       1.0  0.2816951424448106  0.4459401580725454  0.8484389651060837  1.0000
  S   S14       1.0  0.47848543904120067  0.30449969843069635  0.9054819335912258  1.0000
  S   S15       1.0  0.946262041226646  0.9193752432321032  0.8471335740464453  1.0000
  S   S16       1.0  0.8004347798208187  0.8139000473961103  0.8996819299197371  1.0000
  O   O1        1.0  0.9998831442023214  0.49918955466837617  0.5004488637661311  1.0000
  O   O2        1.0  0.0780186102082965  0.3148107967247852  0.5217264614692498  1.0000
  O   O3        1.0  0.04716843859058879  0.5245308884951  0.5832472685114993  1.0000
  O   O4        1.0  0.1569200032470164  0.5019130308972775  0.45204850758491943  1.0000
  O   O5        1.0  0.0297328574552083  0.37280332745473277  0.5802928795390657  1.0000
  O   O6        1.0  0.14843696360295414  0.3931988370335872  0.4442663837970501  1.0000
  O   O7        1.0  0.07874730505336201  0.5960455599480455  0.5275120158103094  1.0000
  O   O8        1.0  0.0028309629999086  0.6527357618716606  0.4449548146217666  1.0000
  O   O9        1.0  0.8829778683869235  0.5019316392197053  0.44177218713742417  1.0000
  O   O10       1.0  0.8832543833399811  0.6555422025426055  0.45181550293663253  1.0000
  O   O11       1.0  0.9875557010764379  0.3891410690026548  0.443462528367462  1.0000
  O   O12       1.0  0.8829138886259996  0.5283902741380829  0.5847198098197879  1.0000
  O   O13       1.0  0.8185266790401117  0.567599960491634  0.5278982499323063  1.0000
  O   O14       1.0  0.7501061708869372  0.24794760077818245  0.2505776780662714  1.0000
  O   O15       1.0  0.5960156718313313  0.3546500572321277  0.30387151252933364  1.0000
  O   O16       1.0  0.6584708506449674  0.17267919617224675  0.2155499491859629  1.0000
  O   O17       1.0  0.7208669552666791  0.3722286927103012  0.16891227381167082  1.0000
  O   O18       1.0  0.5910229576289864  0.24292257853661423  0.298996851702043  1.0000
  O   O19       1.0  0.6712360619050556  0.43134266452397435  0.22706809447043244  1.0000
  O   O20       1.0  0.7330698653742829  0.2096550326783983  0.16381338456191943  1.0000
  O   O21       1.0  0.8809896085975666  0.22897290011242416  0.17221734194493626  1.0000
  O   O22       1.0  0.8599733308845998  0.2513121888700097  0.3119090267151137  1.0000
  O   O23       1.0  0.9361106094225846  0.16963446143903843  0.23150861341506607  1.0000
  O   O24       1.0  0.7518563296249425  0.3615002173449326  0.30832559239557616  1.0000
  O   O25       1.0  0.741065749196302  0.09201806365229008  0.2973011551322529  1.0000
  O   O26       1.0  0.8548017642466732  0.09398030879237505  0.30307623200879164  1.0000
  O   O27       1.0  0.25136905018099753  0.7487572014864412  0.750471034731291  1.0000
  O   O28       1.0  0.3816548551370005  0.7213639803954661  0.6722889793718281  1.0000
  O   O29       1.0  0.3575275898523103  0.7655320741565743  0.8083836689799285  1.0000
  O   O30       1.0  0.17435293919221098  0.9318057180921353  0.7266077423956646  1.0000
  O   O31       1.0  0.4371053074079967  0.675202480336466  0.7322118912224127  1.0000
  O   O32       1.0  0.22978498679070464  0.8735313642481655  0.6684770143927424  1.0000
  O   O33       1.0  0.24079162270190577  0.8651134739471543  0.8114691939895736  1.0000
  O   O34       1.0  0.09058040174721071  0.8547502330654876  0.7984684318287449  1.0000
  O   O35       1.0  0.17027595911315527  0.6614732776463297  0.7168699843414146  1.0000
  O   O36       1.0  0.0965354407712766  0.7360118048838301  0.7995733043711867  1.0000
  O   O37       1.0  0.2261510135468683  0.7170378453974134  0.6630481165969258  1.0000
  O   O38       1.0  0.35890887263980187  0.6027874482842389  0.8085517626779578  1.0000
  O   O39       1.0  0.2524266244717666  0.590192745080948  0.7991400558209989  1.0000
  O   O40       1.0  0.5010349380157209  0.9985770305907095  0.0003942997945073867  1.0000
  O   O41       1.0  0.5087862197002622  0.15440748823531444  0.9503547121317268  1.0000
  O   O42       1.0  0.3818429997969091  0.0010461011542517134  0.9431907109825488  1.0000
  O   O43       1.0  0.6526869894956278  0.885732721881638  0.9479960958703798  1.0000
  O   O44       1.0  0.39342448790903006  0.15385748206285393  0.9471275088277337  1.0000
  O   O45       1.0  0.6568690440963889  0.9999415407994195  0.9474520088769935  1.0000
  O   O46       1.0  0.4902042448973559  0.8909853506408965  0.9420999375070805  1.0000
  O   O47       1.0  0.5716951039700646  0.8148842142407059  0.023053674595317392  1.0000
  O   O48       1.0  0.536241835981599  0.029160547292569634  0.0848466873791125  1.0000
  O   O49       1.0  0.5299848114806309  0.8719884354229134  0.0819124685466122  1.0000
  O   O50       1.0  0.5928828529957428  0.08044303123456582  0.029283944926049778  1.0000
  O   O51       1.0  0.3177819305778371  0.08153472202461388  0.024809513583449  1.0000
  O   O52       1.0  0.37826808596104666  0.021196386366312894  0.08241959982630928  1.0000
  F   F1        1.0  0.290945951917827  0.516659043157425  0.4130050139267425  1.0000
  F   F2        1.0  0.7850711083809754  0.545976328150644  0.6614223429314167  1.0000
  F   F3        1.0  0.042943309793073994  0.27416057098452734  0.6546826796644325  1.0000
  F   F4        1.0  0.7769793866411162  0.7829310270430623  0.4056546265380306  1.0000
  F   F5        1.0  0.6997487559612309  0.47118951399788495  0.0938536659408982  1.0000
  F   F6        1.0  0.0987404746750613  0.09005144584553187  0.21968051956118023  1.0000
  F   F7        1.0  0.46503284978890497  0.47350299187606726  0.8539589200098379  1.0000
  F   F8        1.0  0.9661658754957613  0.714710802779201  0.8443828880130368  1.0000
