data_image0
_chemical_formula_structural       Co2H26C40N6O8
_chemical_formula_sum              "Co2 H26 C40 N6 O8"
_cell_length_a       7.895153281219134
_cell_length_b       8.016235722486055
_cell_length_c       12.752599570981811
_cell_angle_alpha    85.62568031402262
_cell_angle_beta     74.3914844845209
_cell_angle_gamma    79.95297720120287

_space_group_name_H-M_alt    "P 1"
_space_group_IT_number       1

loop_
  _space_group_symop_operation_xyz
  'x, y, z'

loop_
  _atom_site_type_symbol
  _atom_site_label
  _atom_site_symmetry_multiplicity
  _atom_site_fract_x
  _atom_site_fract_y
  _atom_site_fract_z
  _atom_site_occupancy
  Co  Co1       1.0  0.6499140926684462  0.4912620812290455  0.8101226875225223  1.0000
  Co  Co2       1.0  0.35010643677132686  0.5087152292506402  0.18988417915570469  1.0000
  H   H1        1.0  0.5607037280010303  0.6859275997581873  0.961931634392542  1.0000
  H   H2        1.0  0.4393845527665049  0.31401937864898594  0.03803939882786271  1.0000
  H   H3        1.0  0.7074273759091199  0.5297645092880784  0.9892286558491394  1.0000
  H   H4        1.0  0.2925734546647333  0.4701727901557432  0.010744976484609486  1.0000
  H   H5        1.0  0.14756067523781977  0.05658779480314989  0.8460575949275652  1.0000
  H   H6        1.0  0.8524898083144308  0.9434085099024823  0.15392471819878742  1.0000
  H   H7        1.0  0.04405856693393416  0.5433648500030018  0.8960977703416905  1.0000
  H   H8        1.0  0.9559427632818469  0.4566652439124325  0.1038819578762684  1.0000
  H   H9        1.0  0.6068857297567758  0.958304945520126  0.9273475420436484  1.0000
  H   H10       1.0  0.3931149392016308  0.04167001687297758  0.07268690615267558  1.0000
  H   H11       1.0  0.46434286934941577  0.1866717539782314  0.8145848132276259  1.0000
  H   H12       1.0  0.5357511805817124  0.8132323989812063  0.18540791340297602  1.0000
  H   H13       1.0  0.42741674233229077  0.022641093993527792  0.6703602260173724  1.0000
  H   H14       1.0  0.5725772421440921  0.9773396156627282  0.32963498726084584  1.0000
  H   H15       1.0  0.5542409885802541  0.1070219926112586  0.4709536628446784  1.0000
  H   H16       1.0  0.445682197742535  0.8930189345397179  0.5290363226057835  1.0000
  H   H17       1.0  0.7261474603319725  0.31526826904885746  0.336220315897812  1.0000
  H   H18       1.0  0.27379409044991826  0.6847769646965955  0.663793200225122  1.0000
  H   H19       1.0  0.8689345814891424  0.5726671633278998  0.30890731776207764  1.0000
  H   H20       1.0  0.1310443436845219  0.4273628112344453  0.691079105084171  1.0000
  H   H21       1.0  0.9405869404133967  0.8240502284538563  0.3922043478546726  1.0000
  H   H22       1.0  0.059319950419016707  0.17599847491857185  0.6078082085700416  1.0000
  H   H23       1.0  0.9138440192496872  0.9710923362345055  0.5674321346492023  1.0000
  H   H24       1.0  0.0860690767993191  0.0289513036420601  0.4325773475875536  1.0000
  H   H25       1.0  0.7800620232971837  0.8451815560795948  0.7439824396187619  1.0000
  H   H26       1.0  0.21986668068243626  0.15484177378854008  0.25601699336775857  1.0000
  C   C1        1.0  0.8702811278432278  0.028554024079014098  0.8872418420977298  1.0000
  C   C2        1.0  0.1297431070091548  0.9714526951490609  0.11277703114402732  1.0000
  C   C3        1.0  0.05271303596934731  0.9681840286227581  0.8668700793052011  1.0000
  C   C4        1.0  0.9473185001817511  0.031834100270913296  0.1331423403454792  1.0000
  C   C5        1.0  0.11551093227236459  0.7946886785459311  0.8740729945407963  1.0000
  C   C6        1.0  0.8845179143582129  0.20533290397523266  0.1259153607657026  1.0000
  C   C7        1.0  0.9948594469408574  0.679246579243653  0.8964951202420226  1.0000
  C   C8        1.0  0.005171096743026691  0.3207759506276275  0.1034686051652614  1.0000
  C   C9        1.0  0.8118125110624773  0.7385684590440175  0.9155340207651292  1.0000
  C   C10       1.0  0.18822192930917941  0.2614225777559793  0.0844456183499673  1.0000
  C   C11       1.0  0.7491271752590761  0.9135513544182458  0.9144749795431082  1.0000
  C   C12       1.0  0.250892749103734  0.08644492264888728  0.08552629552622901  1.0000
  C   C13       1.0  0.31483953585696867  0.7390360459985245  0.8539565038544269  1.0000
  C   C14       1.0  0.6851579962679962  0.26096770450781986  0.1460495021880703  1.0000
  C   C15       1.0  0.8118901415460724  0.21335887294804926  0.8681932945572087  1.0000
  C   C16       1.0  0.18813100689403228  0.7866135166914745  0.13182470832563103  1.0000
  C   C17       1.0  0.5161980064127075  0.22298359559493253  0.7295999688863049  1.0000
  C   C18       1.0  0.483797490563603  0.7770163761278681  0.2704096924092029  1.0000
  C   C19       1.0  0.49620276838662375  0.13147849644215626  0.6455526586085228  1.0000
  C   C20       1.0  0.5037509145940646  0.8685601999368728  0.35443888232377674  1.0000
  C   C21       1.0  0.5668507264947634  0.17687709942475038  0.537531760172925  1.0000
  C   C22       1.0  0.43311337279924794  0.8231313232287503  0.4624675396268928  1.0000
  C   C23       1.0  0.6555246844688369  0.31839265220882845  0.5132041191171837  1.0000
  C   C24       1.0  0.34447268914364315  0.6816275300402806  0.4867963557735849  1.0000
  C   C25       1.0  0.6673088410219421  0.40479022600969455  0.6026233970175596  1.0000
  C   C26       1.0  0.3326877968549695  0.5952121412310162  0.39737497985976944  1.0000
  C   C27       1.0  0.7426182692091741  0.5544571369175557  0.587622135457906  1.0000
  C   C28       1.0  0.25738983587404357  0.4455162548065771  0.41238533500052915  1.0000
  C   C29       1.0  0.7319701649345092  0.38232479441081313  0.4060056404834072  1.0000
  C   C30       1.0  0.2679976845905969  0.6176989593475354  0.5939977608648946  1.0000
  C   C31       1.0  0.8101482482169471  0.5249990539325039  0.3905815428285706  1.0000
  C   C32       1.0  0.18982620640318254  0.47504752581492227  0.6094149242006708  1.0000
  C   C33       1.0  0.8149606974841389  0.6177412140772275  0.4814557961447009  1.0000
  C   C34       1.0  0.18501822955709452  0.38227241379904336  0.518542452304871  1.0000
  C   C35       1.0  0.8830200593027155  0.7711773861885687  0.47272818149715345  1.0000
  C   C36       1.0  0.11696462676128758  0.22886296563255826  0.5272701232056464  1.0000
  C   C37       1.0  0.8694724760685589  0.8500745893710898  0.568256892554068  1.0000
  C   C38       1.0  0.13046902050962927  0.14995016693626437  0.43174514433520983  1.0000
  C   C39       1.0  0.7936570446176032  0.7792651730454023  0.6703661049529545  1.0000
  C   C40       1.0  0.2063446986040915  0.22071336723127635  0.3296507341450194  1.0000
  N   N1        1.0  0.687554638637977  0.6222284805901024  0.9303949748862552  1.0000
  N   N2        1.0  0.31252093009167226  0.3777299347594862  0.0695853237072726  1.0000
  N   N3        1.0  0.6030443899169454  0.3563302260192173  0.7087894555575077  1.0000
  N   N4        1.0  0.3969498532132221  0.643646904643823  0.291222371341874  1.0000
  N   N5        1.0  0.7329869309323556  0.6313171923224699  0.6823916514998559  1.0000
  N   N6        1.0  0.26710350769241126  0.36863651325461416  0.317605355984675  1.0000
  O   O1        1.0  0.6473387833785793  0.2812518466165983  0.9083653760818393  1.0000
  O   O2        1.0  0.35269524238825056  0.7186850709133736  0.09165006942828309  1.0000
  O   O3        1.0  0.9202622595954891  0.30028654875987826  0.806564603935698  1.0000
  O   O4        1.0  0.07976369450683045  0.6996819608590882  0.19344499555619882  1.0000
  O   O5        1.0  0.41356187529424904  0.8501331504796281  0.8262818577355802  1.0000
  O   O6        1.0  0.5864283536644519  0.14987553704720818  0.1737187762946775  1.0000
  O   O7        1.0  0.3691024875225395  0.5785072368787282  0.8663998152353614  1.0000
  O   O8        1.0  0.630878722755071  0.4215119039055394  0.1336283717391566  1.0000
