data_image0
_chemical_formula_structural       Cu8Mo12H16C16N8O40
_chemical_formula_sum              "Cu8 Mo12 H16 C16 N8 O40"
_cell_length_a       7.623929803000117
_cell_length_b       12.38740072400114
_cell_length_c       12.748023194001236
_cell_angle_alpha    90.000047631155
_cell_angle_beta     90.00001873751516
_cell_angle_gamma    89.99999225997624

_space_group_name_H-M_alt    "P 1"
_space_group_IT_number       1

loop_
  _space_group_symop_operation_xyz
  'x, y, z'

loop_
  _atom_site_type_symbol
  _atom_site_label
  _atom_site_symmetry_multiplicity
  _atom_site_fract_x
  _atom_site_fract_y
  _atom_site_fract_z
  _atom_site_occupancy
  Cu  Cu1       1.0  0.24999981291932014  0.769120509885724  0.786538758829373  1.0000
  Cu  Cu2       1.0  0.7500003468870204  0.7308806185195209  0.2865397008917014  1.0000
  Cu  Cu3       1.0  0.7500003813374007  0.23088061706589272  0.21346149823057203  1.0000
  Cu  Cu4       1.0  0.24999984736991368  0.26912050843242247  0.7134613406035868  1.0000
  Cu  Cu5       1.0  0.2499996840408514  0.3898752353550421  0.1734051089925543  1.0000
  Cu  Cu6       1.0  0.7500005224005262  0.1101218201544469  0.673405701138826  1.0000
  Cu  Cu7       1.0  0.7500005102155284  0.6101250843240535  0.8265935791963629  1.0000
  Cu  Cu8       1.0  0.24999967185640765  0.8898793067974964  0.3265953403564694  1.0000
  Mo  Mo1       1.0  0.2499997491076726  0.6636688950524459  0.515397853255827  1.0000
  Mo  Mo2       1.0  0.7500002599762464  0.8363328129845659  0.0153980976562949  1.0000
  Mo  Mo3       1.0  0.7499991334895382  0.3363322318992204  0.48460240380399716  1.0000
  Mo  Mo4       1.0  0.2500012459400692  0.1636675066951341  0.9846021594034439  1.0000
  Mo  Mo5       1.0  0.9989508300029825  0.986999148945607  0.8630182291088387  1.0000
  Mo  Mo6       1.0  0.0010493723168139  0.5129996218529058  0.3630180633925804  1.0000
  Mo  Mo7       1.0  0.4989500661340357  0.013000342721816998  0.1369812913990813  1.0000
  Mo  Mo8       1.0  0.5010488084002844  0.4870015258392329  0.6369829302186005  1.0000
  Mo  Mo9       1.0  0.0010480525944985002  0.012999556190486304  0.1369820279499834  1.0000
  Mo  Mo10      1.0  0.998950821939779  0.4870006978265169  0.6369814092316872  1.0000
  Mo  Mo11      1.0  0.5010514397821524  0.9869991696856959  0.8630181812249802  1.0000
  Mo  Mo12      1.0  0.4989487625374238  0.5129996011124904  0.3630173268410886  1.0000
  H   H1        1.0  0.2500011553333366  0.5322717976089706  0.803858993846994  1.0000
  H   H2        1.0  0.7500016374200199  0.9677277307936197  0.3038593463696486  1.0000
  H   H3        1.0  0.750001662242397  0.4677293293425323  0.19614126321319963  1.0000
  H   H4        1.0  0.2499985568370064  0.032272588886463914  0.6961416951253128  1.0000
  H   H5        1.0  0.24999858662817329  0.3969674433848739  0.9470364310503213  1.0000
  H   H6        1.0  0.7500004602608924  0.10302822731237173  0.4470388367794841  1.0000
  H   H7        1.0  0.7500002959682205  0.6030312617495782  0.05295990383176271  1.0000
  H   H8        1.0  0.24999842233663114  0.8969720923677686  0.5529622047153495  1.0000
  H   H9        1.0  0.24999965459848986  0.6454954452359871  0.1682028389415251  1.0000
  H   H10       1.0  0.7499991277685538  0.8545007401883356  0.6682052010514496  1.0000
  H   H11       1.0  0.7500018513178759  0.35450245262781277  0.8317966336818756  1.0000
  H   H12       1.0  0.24999844317002123  0.1455003867647093  0.3317981937496342  1.0000
  H   H13       1.0  0.25000091091305876  0.7814431941333313  0.0226485629008408  1.0000
  H   H14       1.0  0.7500004138619473  0.7185520618167018  0.5226500287073534  1.0000
  H   H15       1.0  0.7499979716845927  0.21855389645904924  0.9773516941573206  1.0000
  H   H16       1.0  0.24999978039529935  0.28144825786370836  0.47735179722295834  1.0000
  C   C1        1.0  0.24999986335811997  0.5581965600794734  0.8848966669240286  1.0000
  C   C2        1.0  0.7500016627847046  0.9417998072739169  0.3849017047248111  1.0000
  C   C3        1.0  0.7500003308977767  0.441802145054922  0.11509966795818373  1.0000
  C   C4        1.0  0.24999721981303213  0.058200512406550324  0.6151001212053728  1.0000
  C   C5        1.0  0.24999989388064847  0.48286198391518553  0.9650274910780754  1.0000
  C   C6        1.0  0.750000474666912  0.017136930971723502  0.4650243350807486  1.0000
  C   C7        1.0  0.7500016120355895  0.5171351066764276  0.0349711971096411  1.0000
  C   C8        1.0  0.249999719589681  0.982863388707699  0.534975137543519  1.0000
  C   C9        1.0  0.24999963474595427  0.6196078170230593  0.0865744860632205  1.0000
  C   C10       1.0  0.7500004139035352  0.8803891071389744  0.5865721628637175  1.0000
  C   C11       1.0  0.7499992478510434  0.3803892735683263  0.9134234176888969  1.0000
  C   C12       1.0  0.24999846869275896  0.11961444162728443  0.4134257408910571  1.0000
  C   C13       1.0  0.2500009156563081  0.6954469378398115  0.0058270959340021  1.0000
  C   C14       1.0  0.750000399768197  0.8045523403478544  0.5058309858121746  1.0000
  C   C15       1.0  0.7499979669407749  0.3045533818396748  0.9941723766901376  1.0000
  C   C16       1.0  0.24999848283006532  0.1954471720614138  0.4941724089883692  1.0000
  N   N1        1.0  0.2500011685561105  0.6653538344956119  0.9038745553667907  1.0000
  N   N2        1.0  0.7500016797934278  0.8346449706034279  0.4038724450735387  1.0000
  N   N3        1.0  0.7499977140412853  0.3346456779123415  0.09612570169236531  1.0000
  N   N4        1.0  0.24999851446307989  0.1653561563478547  0.5961270275510628  1.0000
  N   N5        1.0  0.24999964099973934  0.5125377276682173  0.0668835459258688  1.0000
  N   N6        1.0  0.7500003967055234  0.9874567581484756  0.5668860174424921  1.0000
  N   N7        1.0  0.7500018649167474  0.4874609774677624  0.9331167111332093  1.0000
  N   N8        1.0  0.2499984858925188  0.012542754260465503  0.4331165929227012  1.0000
  O   O1        1.0  0.24999979297950858  0.5163394010162607  0.6151881664594897  1.0000
  O   O2        1.0  0.7500002715758782  0.9836615835288429  0.11518774765772831  1.0000
  O   O3        1.0  0.750000401276992  0.48366172593502194  0.3848113061651119  1.0000
  O   O4        1.0  0.24999992268119794  0.01633631433534081  0.8848125094008878  1.0000
  O   O5        1.0  0.48741274764596915  0.6073487543600465  0.5098048288907293  1.0000
  O   O6        1.0  0.5125872583291624  0.8926505271656993  0.009805073969651803  1.0000
  O   O7        1.0  0.987413434459647  0.39265235281260413  0.4901954738340634  1.0000
  O   O8        1.0  0.0125882597384361  0.10734819774925343  0.9901951374245783  1.0000
  O   O9        1.0  0.5125874466108371  0.39265156531971  0.4901954281688816  1.0000
  O   O10       1.0  0.48741293592782137  0.10734817797033713  0.9901951830892983  1.0000
  O   O11       1.0  0.0125867597970739  0.6073487741390127  0.5098047832258814  1.0000
  O   O12       1.0  0.9874119345184622  0.892651314658643  0.0098051196347058  1.0000
  O   O13       1.0  0.24999972850036295  0.537705371435351  0.3916186102574741  1.0000
  O   O14       1.0  0.7500004897181326  0.9622974597353675  0.8916210610677667  1.0000
  O   O15       1.0  0.7500004657557396  0.462297370059325  0.6083800779324378  1.0000
  O   O16       1.0  0.2499997045390714  0.03770124540100281  0.10837998042652691  1.0000
  O   O17       1.0  0.24999977357546746  0.737282450383873  0.632437990647901  1.0000
  O   O18       1.0  0.7500003005693328  0.7627169341004034  0.1324389589081818  1.0000
  O   O19       1.0  0.7499991090215302  0.26271867656746667  0.3675614819765727  1.0000
  O   O20       1.0  0.25000120534698306  0.2372833855792962  0.867561298151557  1.0000
  O   O21       1.0  0.24999967278574078  0.2629187813130686  0.082882786564582  1.0000
  O   O22       1.0  0.7499991716764214  0.23707496910926557  0.5828819143076629  1.0000
  O   O23       1.0  0.7500005214715557  0.7370791165514419  0.9171182549293846  1.0000
  O   O24       1.0  0.2499997109209247  0.7629269651145948  0.4171191271878385  1.0000
  O   O25       1.0  0.049266054811901897  0.8721937973894147  0.7889752381208766  1.0000
  O   O26       1.0  0.950732794689088  0.6278073330611067  0.2889753495413885  1.0000
  O   O27       1.0  0.5492666444536737  0.12780573174168816  0.2110249803285669  1.0000
  O   O28       1.0  0.45073358289957344  0.37219458443954073  0.7110257305639467  1.0000
  O   O29       1.0  0.950732827785579  0.12780490774667902  0.2110250189379457  1.0000
  O   O30       1.0  0.049267399567540296  0.372194601162363  0.7110249075188904  1.0000
  O   O31       1.0  0.4507348614627346  0.8721937806661589  0.788975276730838  1.0000
  O   O32       1.0  0.5492666113573604  0.6278065425124029  0.2889753109313489  1.0000
  O   O33       1.0  0.05375708263714779  0.4143921300786532  0.2692105424634121  1.0000
  O   O34       1.0  0.9462444887193014  0.08560904222409255  0.7692095833125236  1.0000
  O   O35       1.0  0.5537565492666942  0.5856098204942556  0.7307904612860909  1.0000
  O   O36       1.0  0.4462448912094885  0.9143896465624056  0.2307899270574509  1.0000
  O   O37       1.0  0.9462470465976907  0.5856106114161861  0.7307889301622268  1.0000
  O   O38       1.0  0.05375570553746909  0.9143896629116169  0.230789889311076  1.0000
  O   O39       1.0  0.4462436449898987  0.41439049918517423  0.2692090113381767  1.0000
  O   O40       1.0  0.5537566147067849  0.08560905857324744  0.7692095455662767  1.0000
