data_image0
_chemical_formula_structural       Cd4H34C58N4O18
_chemical_formula_sum              "Cd4 H34 C58 N4 O18"
_cell_length_a       8.3455890225556
_cell_length_b       11.046301252352352
_cell_length_c       14.17047907343699
_cell_angle_alpha    70.4776502650941
_cell_angle_beta     87.29237530199568
_cell_angle_gamma    84.7101438919642

_space_group_name_H-M_alt    "P 1"
_space_group_IT_number       1

loop_
  _space_group_symop_operation_xyz
  'x, y, z'

loop_
  _atom_site_type_symbol
  _atom_site_label
  _atom_site_symmetry_multiplicity
  _atom_site_fract_x
  _atom_site_fract_y
  _atom_site_fract_z
  _atom_site_occupancy
  Cd  Cd1       1.0  0.4548951453124133  0.18047513468848564  0.5104714681500298  1.0000
  Cd  Cd2       1.0  0.5451049377380882  0.819525096023668  0.48952817344405725  1.0000
  Cd  Cd3       1.0  0.9475905035664951  0.33764732569779454  0.4932865758300196  1.0000
  Cd  Cd4       1.0  0.05240958206152159  0.6623529075384836  0.5067137707228754  1.0000
  H   H1        1.0  0.8782326470142436  0.755544445348761  0.2073032167707609  1.0000
  H   H2        1.0  0.12176623915548389  0.24445578675774732  0.7926971651158609  1.0000
  H   H3        1.0  0.8771347252678225  0.7141545546839438  0.045077447040846215  1.0000
  H   H4        1.0  0.12286545945252668  0.2858447148789836  0.9549231496373521  1.0000
  H   H5        1.0  0.6299072085452196  0.3728504069300059  0.1885598625146017  1.0000
  H   H6        1.0  0.37009407396357114  0.6271498249119105  0.8114397437457583  1.0000
  H   H7        1.0  0.88487597158867  0.5661953330616002  0.8228693029094104  1.0000
  H   H8        1.0  0.11512301109587501  0.43380393284743957  0.17713062414369318  1.0000
  H   H9        1.0  0.4480272967897748  0.895295322003264  0.8356948117484323  1.0000
  H   H10       1.0  0.5519726923234174  0.10470587743047585  0.16430598963798101  1.0000
  H   H11       1.0  0.5290955092012267  0.7208166626362953  0.9914702848365381  1.0000
  H   H12       1.0  0.47090467551911536  0.27918260692663927  0.008530311841653308  1.0000
  H   H13       1.0  0.7349027592423879  0.4414140862858174  0.6197289924633012  1.0000
  H   H14       1.0  0.2650986197812273  0.5585851793586372  0.3802701589635404  1.0000
  H   H15       1.0  0.7556432870276453  0.435371694562157  0.7448226412797752  1.0000
  H   H16       1.0  0.2443579954811526  0.5646285372797594  0.2551769649805848  1.0000
  H   H17       1.0  0.5910280208864124  0.36743351847454153  0.7120519097657549  1.0000
  H   H18       1.0  0.4089721586789139  0.6325657460401501  0.2879472769948138  1.0000
  H   H19       1.0  0.11681136482620498  0.0368292593120358  0.5885648193604283  1.0000
  H   H20       1.0  0.8831898211677682  0.963171938727349  0.41143524173345014  1.0000
  H   H21       1.0  0.1989220016697644  0.8213853787652072  0.7102132305718952  1.0000
  H   H22       1.0  0.8010792782615185  0.1786148505525915  0.2897856707296498  1.0000
  H   H23       1.0  0.10065856430289699  0.7559316653282764  0.886040947726606  1.0000
  H   H24       1.0  0.8993417143547617  0.24406663551306448  0.1139584891592591  1.0000
  H   H25       1.0  0.9106852296195385  0.9059998234783042  0.9460754191740363  1.0000
  H   H26       1.0  0.08931485600847111  0.09400040975796739  0.0539249273788585  1.0000
  H   H27       1.0  0.7064604559865302  0.2709320495756914  0.8911759284672699  1.0000
  H   H28       1.0  0.2935384276056823  0.7290681800066992  0.10882374846053727  1.0000
  H   H29       1.0  0.8516127040710586  0.15057341246344438  0.9567166173656078  1.0000
  H   H30       1.0  0.14838738155695805  0.849426820772834  0.04328372918728723  1.0000
  H   H31       1.0  0.4555758076656389  0.16216649893648596  0.830651509993352  1.0000
  H   H32       1.0  0.5444231750189062  0.8378327669725606  0.16934841705975154  1.0000
  H   H33       1.0  0.7587119331547357  0.9790185361753744  0.08537344678999398  1.0000
  H   H34       1.0  0.24128825156561354  0.020980733387553095  0.9146271498881974  1.0000
  C   C1        1.0  0.6113015654549089  0.3835894223959926  0.3731762513202028  1.0000
  C   C2        1.0  0.3886985175955928  0.6164108083161608  0.6268233902738842  1.0000
  C   C3        1.0  0.6914882165983585  0.4762436743658682  0.2848162446659117  1.0000
  C   C4        1.0  0.308514361883546  0.5237555924083495  0.7151828714272099  1.0000
  C   C5        1.0  0.7614545603139433  0.5848178702246044  0.2900619546710885  1.0000
  C   C6        1.0  0.23854302215013226  0.41518331937724184  0.7099368025063342  1.0000
  C   C7        1.0  0.7556561991915487  0.622878862571156  0.38315483152118185  1.0000
  C   C8        1.0  0.2443402854840855  0.37712136475170877  0.616844916074072  1.0000
  C   C9        1.0  0.8282194650202969  0.6697334993651725  0.20319714550137044  1.0000
  C   C10       1.0  0.1717794159944077  0.33026672769309334  0.7968018264676218  1.0000
  C   C11       1.0  0.8253201458166686  0.6478595902779888  0.11235088535199371  1.0000
  C   C12       1.0  0.1746787377755439  0.35214063930440176  0.8876487915758134  1.0000
  C   C13       1.0  0.7550829759998905  0.5400068779683667  0.10634992379710442  1.0000
  C   C14       1.0  0.24491960505952187  0.459992391329969  0.893649897254825  1.0000
  C   C15       1.0  0.6885126167657205  0.45501585275478357  0.19284565258422506  1.0000
  C   C16       1.0  0.31148746628478813  0.5449843779573699  0.807153989009862  1.0000
  C   C17       1.0  0.752408328637415  0.5175602848249098  0.00824823213186227  1.0000
  C   C18       1.0  0.24758935291899326  0.48243994110359256  0.9917507751708499  1.0000
  C   C19       1.0  0.713224464229306  0.630932488971311  0.9178909466977103  1.0000
  C   C20       1.0  0.2867756188211956  0.36906774174084234  0.08210869489637672  1.0000
  C   C21       1.0  0.7899349338894835  0.639102716835261  0.8265024791966624  1.0000
  C   C22       1.0  0.2100651491610179  0.3608975138768927  0.1734971623974246  1.0000
  C   C23       1.0  0.7497748715687892  0.7408208820339296  0.7388172719279922  1.0000
  C   C24       1.0  0.2502252140592276  0.25917935120234853  0.2611830746249026  1.0000
  C   C25       1.0  0.6255503860938347  0.8346884310604921  0.7423317495961258  1.0000
  C   C26       1.0  0.3744508024776536  0.16531276950301793  0.25766901645656765  1.0000
  C   C27       1.0  0.5465325122499324  0.8245326948206255  0.8337965927560163  1.0000
  C   C28       1.0  0.4534675759555995  0.1754675409397706  0.1662044587556935  1.0000
  C   C29       1.0  0.5916809697202227  0.7260824171422939  0.9212522255706901  1.0000
  C   C30       1.0  0.408319113330279  0.27391781356985945  0.07874741602338989  1.0000
  C   C31       1.0  0.8376838042374571  0.7405599305662278  0.6444340548275492  1.0000
  C   C32       1.0  0.1623151810246029  0.2594393378669437  0.3555665771843692  1.0000
  C   C33       1.0  0.5637417519757477  0.9477031026539464  0.6548379121930026  1.0000
  C   C34       1.0  0.4362571341939798  0.052297129452568904  0.3451624696936193  1.0000
  C   C35       1.0  0.7197116407141381  0.3812008303704104  0.6979727176264277  1.0000
  C   C36       1.0  0.280291039437614  0.6187974752545813  0.30202735355079824  1.0000
  C   C37       1.0  0.8143112698118385  0.2556160247104984  0.7182880727127524  1.0000
  C   C38       1.0  0.18569131640259684  0.7443832496360799  0.28171315825681387  1.0000
  C   C39       1.0  0.9707843377630854  0.09303636598092171  0.700344771187737  1.0000
  C   C40       1.0  0.029215844379748987  0.9069629010578877  0.29965512053163934  1.0000
  C   C41       1.0  0.0734397437549958  0.0089645709849364  0.6659539730211748  1.0000
  C   C42       1.0  0.9265604409653461  0.9910346985779908  0.3340466236570237  1.0000
  C   C43       1.0  0.11821968662204091  0.8884493938955913  0.7349316904907115  1.0000
  C   C44       1.0  0.8817791995476868  0.11155083821092401  0.2650686913959106  1.0000
  C   C45       1.0  0.06195378930369341  0.8513150165247508  0.834931765813522  1.0000
  C   C46       1.0  0.9380475897199149  0.14868424911969672  0.1650673856133196  1.0000
  C   C47       1.0  0.9583739696242973  0.934402946719075  0.8696212963328521  1.0000
  C   C48       1.0  0.041625013060247795  0.0655963191899716  0.1303786307202515  1.0000
  C   C49       1.0  0.9146863072635085  0.055402153072385815  0.8007972105990007  1.0000
  C   C50       1.0  0.08531377836450818  0.9445980801638852  0.19920313595389424  1.0000
  C   C51       1.0  0.751528585329197  0.17019510826090567  0.9046449564661004  1.0000
  C   C52       1.0  0.24847039735534082  0.829804157648134  0.09535497058700315  1.0000
  C   C53       1.0  0.6222711852296995  0.080344293356319  0.9523802152466203  1.0000
  C   C54       1.0  0.3777289969131346  0.9196549736824906  0.04761967647275615  1.0000
  C   C55       1.0  0.475423646823046  0.09197911519658672  0.9052704649846817  1.0000
  C   C56       1.0  0.5245752393466745  0.9080211169099214  0.09472991690194031  1.0000
  C   C57       1.0  0.6454315089253413  0.987457109630597  0.0472336268575192  1.0000
  C   C58       1.0  0.35456867321749286  0.012542157408212502  0.9527662648618644  1.0000
  N   N1        1.0  0.9064828188203009  0.21833032776149247  0.6516054199555654  1.0000
  N   N2        1.0  0.09351726680771576  0.7816699054747788  0.34839492659732946  1.0000
  N   N3        1.0  0.8170266529976757  0.1600173456834426  0.8098152046562107  1.0000
  N   N4        1.0  0.1829734326303409  0.8399828875528358  0.1901851418966913  1.0000
  O   O1        1.0  0.6865100637734187  0.3267828287985354  0.4552721234731578  1.0000
  O   O2        1.0  0.3134889163336112  0.6732164345863865  0.5447270986211308  1.0000
  O   O3        1.0  0.46919469926297797  0.36066980099688817  0.3627351488172295  1.0000
  O   O4        1.0  0.5308054854573713  0.6393294685660464  0.6372654478609617  1.0000
  O   O5        1.0  0.8473138542119472  0.5583621310401058  0.45652385560916997  1.0000
  O   O6        1.0  0.1526823383417195  0.441640992351033  0.5434765515278244  1.0000
  O   O7        1.0  0.6631603762348988  0.7211681208841014  0.37890067733295046  1.0000
  O   O8        1.0  0.3368360067708879  0.27883306758798915  0.6210981151781924  1.0000
  O   O9        1.0  0.7804376776810855  0.4084821722016941  0.0017196843407916084  1.0000
  O   O10       1.0  0.21956340664304017  0.5915199869869099  0.9982794216689757  1.0000
  O   O11       1.0  0.9562806289619273  0.6550829113025785  0.654652585736514  1.0000
  O   O12       1.0  0.04371825463028502  0.34491731827981204  0.345347091191293  1.0000
  O   O13       1.0  0.7951995522052897  0.8200074220780422  0.5595138451633375  1.0000
  O   O14       1.0  0.2048017328810161  0.179992812287999  0.44048646605583736  1.0000
  O   O15       1.0  0.45289985304138713  0.9318513356276484  0.6017157206986851  1.0000
  O   O16       1.0  0.5471014294674035  0.06814889621427513  0.39828388556167477  1.0000
  O   O17       1.0  0.6124604822465115  0.05707087351584051  0.6435376940515596  1.0000
  O   O18       1.0  0.3875396033815051  0.9429293597204379  0.35646265250133513  1.0000
