data_image0
_chemical_formula_structural       Zn4H25C52NO17
_chemical_formula_sum              "Zn4 H25 C52 N1 O17"
_cell_length_a       15.309533385544126
_cell_length_b       15.595043832843368
_cell_length_c       17.96442110606724
_cell_angle_alpha    70.07029209283428
_cell_angle_beta     89.55644826065749
_cell_angle_gamma    67.99984854638923

_space_group_name_H-M_alt    "P 1"
_space_group_IT_number       1

loop_
  _space_group_symop_operation_xyz
  'x, y, z'

loop_
  _atom_site_type_symbol
  _atom_site_label
  _atom_site_symmetry_multiplicity
  _atom_site_fract_x
  _atom_site_fract_y
  _atom_site_fract_z
  _atom_site_occupancy
  Zn  Zn1       1.0  0.42956563961482164  0.575065171732014  0.5670700738952021  1.0000
  Zn  Zn2       1.0  0.5498773399123208  0.5745303376952864  0.4189853520696473  1.0000
  Zn  Zn3       1.0  0.4056919185013966  0.471441389116997  0.44824645344468184  1.0000
  Zn  Zn4       1.0  0.6028238428826641  0.3761381731367452  0.5680282242781942  1.0000
  H   H1        1.0  0.7915500795958369  0.34183184383268644  0.043991635011487104  1.0000
  H   H2        1.0  0.5793839693530103  0.46482582753117907  0.19664570005227947  1.0000
  H   H3        1.0  0.3048529339259503  0.6773942272293854  0.19837781464472928  1.0000
  H   H4        1.0  0.3072098539293506  0.70526021026393  0.9273580025952909  1.0000
  H   H5        1.0  0.8097684884805502  0.28151049826628605  0.9306629247022897  1.0000
  H   H6        1.0  0.748036699183018  0.30070523293949253  0.7953570605364391  1.0000
  H   H7        1.0  0.4853821946704145  0.5280670560806515  0.80004089063884  1.0000
  H   H8        1.0  0.4115114457736982  0.6108151095507496  0.8540759068768152  1.0000
  H   H9        1.0  0.2675889202208736  0.7276429497021086  0.050934940122203884  1.0000
  H   H10       1.0  0.8829846010137103  0.2774185099563767  0.48526610035527534  1.0000
  H   H11       1.0  0.19339221062332965  0.2804358929513598  0.5184186170435227  1.0000
  H   H12       1.0  0.8286766402942901  0.564078882218823  0.49347354015588246  1.0000
  H   H13       1.0  0.1152250133527203  0.7267202082099478  0.5415283550893903  1.0000
  H   H14       1.0  0.876571046211623  0.6545115491297726  0.5119037843983846  1.0000
  H   H15       1.0  0.94050334741393  0.7676757886803006  0.5335981654829353  1.0000
  H   H16       1.0  0.3829199449758177  0.8976102494443984  0.3078090073989017  1.0000
  H   H17       1.0  0.3640065504571837  0.2095827719521283  0.3091997828547335  1.0000
  H   H18       1.0  0.35389935734824723  0.07642459011788824  0.2723848161573059  1.0000
  H   H19       1.0  0.48388430016143513  0.8353303727042276  0.5497789182258758  1.0000
  H   H20       1.0  0.5944297850554606  0.10468339525532143  0.669570960177964  1.0000
  H   H21       1.0  0.5408168298286073  0.8763871864551834  0.6214489401940924  1.0000
  H   H22       1.0  0.6085364009525522  0.9292932409156195  0.7126075273403458  1.0000
  H   H23       1.0  0.4171854164178724  0.26660256783473824  0.4044146894624703  1.0000
  H   H24       1.0  0.3120799879733768  0.33512933282935364  0.5408264804194546  1.0000
  H   H25       1.0  0.667313665390495  0.49473506397828987  0.14288831229856672  1.0000
  C   C1        1.0  0.7420827646180044  0.4465438000723981  0.48617001320990727  1.0000
  C   C2        1.0  0.24981082321231435  0.5736903056972624  0.5204196814245493  1.0000
  C   C3        1.0  0.45065392099888163  0.7513463588488066  0.453779171298912  1.0000
  C   C4        1.0  0.5077762888562275  0.2537458483153757  0.5376608590141246  1.0000
  C   C5        1.0  0.46638681955513317  0.5409636180133505  0.2920404714052935  1.0000
  C   C6        1.0  0.5755698492345047  0.4331744579637304  0.708484217580498  1.0000
  C   C7        1.0  0.6125267800206587  0.41720788513339374  0.790509848631814  1.0000
  C   C8        1.0  0.44697168759147843  0.5708098528970497  0.20354248399818428  1.0000
  C   C9        1.0  0.7383144683104277  0.3353681025541207  0.9022576956526861  1.0000
  C   C10       1.0  0.7046955782173967  0.34577060424717143  0.8274334923242818  1.0000
  C   C11       1.0  0.555890132871042  0.47497361973132973  0.8306284605619609  1.0000
  C   C12       1.0  0.5876546960839946  0.4649170275576823  0.9076692829132041  1.0000
  C   C13       1.0  0.6817361923764622  0.3943766387487174  0.9438997414317213  1.0000
  C   C14       1.0  0.5285863992457395  0.5219503093910518  0.951559662153919  1.0000
  C   C15       1.0  0.5621722356277203  0.50626313303637  0.03073182090902551  1.0000
  C   C16       1.0  0.6615858913554648  0.4447590215079632  0.05930711894524167  1.0000
  C   C17       1.0  0.7174167652493965  0.3886684164178435  0.018613357600315752  1.0000
  C   C18       1.0  0.4358581064392909  0.5954476172286789  0.9157736974799208  1.0000
  C   C19       1.0  0.37717589395713  0.6481313027215024  0.956474581095776  1.0000
  C   C20       1.0  0.4037245000875628  0.6261653447137124  0.038640976523517105  1.0000
  C   C21       1.0  0.4962509297389985  0.5529549662901803  0.07763867367692967  1.0000
  C   C22       1.0  0.3370601789734595  0.6717972473386526  0.08266502029714928  1.0000
  C   C23       1.0  0.35717644683545297  0.6443619439017284  0.16403099259679269  1.0000
  C   C24       1.0  0.5146875284386283  0.5265727976883172  0.16156706194665554  1.0000
  C   C25       1.0  0.004861970101728671  0.3124617383269951  0.49059051333679793  1.0000
  C   C26       1.0  0.8455928678889822  0.42417059227467774  0.4893675085319558  1.0000
  C   C27       1.0  0.08716441031293691  0.6740758997326072  0.5360712207032776  1.0000
  C   C28       1.0  0.9889695755278608  0.6972803059547633  0.5305820032728619  1.0000
  C   C29       1.0  0.9532730087495409  0.6328201815387405  0.5187042887648728  1.0000
  C   C30       1.0  0.014261675678881112  0.5401794386902878  0.5157359189794732  1.0000
  C   C31       1.0  0.11420045496879552  0.5146916528585664  0.5255101470781227  1.0000
  C   C32       1.0  0.9781487495690157  0.4711206294143794  0.503504317055125  1.0000
  C   C33       1.0  0.04414507521772748  0.3783402446372366  0.5007166492515225  1.0000
  C   C34       1.0  0.14313028395091712  0.35283626943424934  0.5158256154820151  1.0000
  C   C35       1.0  0.1765438423779671  0.4159856276406588  0.5318305422028473  1.0000
  C   C36       1.0  0.8802923954898606  0.492953909353176  0.4945568748771052  1.0000
  C   C37       1.0  0.9089101762460673  0.3321577912963607  0.48895401102547703  1.0000
  C   C38       1.0  0.14929911959871592  0.5852791565904171  0.5311673768720482  1.0000
  C   C39       1.0  0.38409897635290235  0.02297330464275401  0.3328980118096325  1.0000
  C   C40       1.0  0.4342528378471755  0.8577615720836179  0.43178606051804275  1.0000
  C   C41       1.0  0.5625175351216286  0.08113882816173403  0.6303606804640509  1.0000
  C   C42       1.0  0.5707657194097067  0.9828693958016219  0.6540353694410469  1.0000
  C   C43       1.0  0.5321421214835952  0.9536149823926013  0.6024498998519263  1.0000
  C   C44       1.0  0.48417705573035624  0.020761702055665403  0.5256520739696384  1.0000
  C   C45       1.0  0.47296426709515066  0.12231175734346071  0.5016687200684515  1.0000
  C   C46       1.0  0.4500325686444881  0.9879247675489257  0.4694662208867939  1.0000
  C   C47       1.0  0.40949792211598907  0.05642144595854863  0.3901452271347594  1.0000
  C   C48       1.0  0.39734806954931673  0.15738103559866096  0.36943540486848997  1.0000
  C   C49       1.0  0.4271105875247444  0.18925178204077045  0.422509605223766  1.0000
  C   C50       1.0  0.4576149725435315  0.8895851953161088  0.4892554474488832  1.0000
  C   C51       1.0  0.3990094165877381  0.9246427780873249  0.3522612564495303  1.0000
  C   C52       1.0  0.5131669292234662  0.15084334704661023  0.5562113010930857  1.0000
  N   N1        1.0  0.06479207625923067  0.21814738701043984  0.48196346160539605  1.0000
  O   O1        1.0  0.4966815647620351  0.4974414047301751  0.5027162934309217  1.0000
  O   O2        1.0  0.7183206131436678  0.3727702449349551  0.5157427757928943  1.0000
  O   O3        1.0  0.29666565553471713  0.5867571965386065  0.5710220252084568  1.0000
  O   O4        1.0  0.4734330975614894  0.7152203227590023  0.39876904557661413  1.0000
  O   O5        1.0  0.4318845446965297  0.3271223450401593  0.4952975349109181  1.0000
  O   O6        1.0  0.5387517329214901  0.5483446929306839  0.3196411459268375  1.0000
  O   O7        1.0  0.6270299158500164  0.37367727131843526  0.6756166791451222  1.0000
  O   O8        1.0  0.406587218692991  0.5127267128480781  0.3321562128266748  1.0000
  O   O9        1.0  0.4955060943518533  0.5053513665350239  0.6768579395222786  1.0000
  O   O10       1.0  0.44216679795822234  0.704222494446171  0.5253123750139181  1.0000
  O   O11       1.0  0.5786885309842305  0.26121745217146514  0.5671052111252594  1.0000
  O   O12       1.0  0.6846581709643831  0.5378970079115605  0.4544070698435476  1.0000
  O   O13       1.0  0.27787262132773105  0.5582922548608523  0.45728662672021864  1.0000
  O   O14       1.0  0.13912630355455496  0.2128124742507112  0.4516417018675938  1.0000
  O   O15       1.0  0.0365063543741186  0.14960123713677123  0.5039074875561197  1.0000
  O   O16       1.0  0.2693723871026776  0.3873302030921978  0.5584618861865208  1.0000
  O   O17       1.0  0.7067043496778496  0.4399801427696916  0.12703922022289754  1.0000
