data_image0
_chemical_formula_structural       CoH20C32Br4N8O8
_chemical_formula_sum              "Co1 H20 C32 Br4 N8 O8"
_cell_length_a       8.608710835212012
_cell_length_b       8.749640101515762
_cell_length_c       11.157467889085083
_cell_angle_alpha    88.87050528582003
_cell_angle_beta     86.97568679053543
_cell_angle_gamma    83.60796150067667

_space_group_name_H-M_alt    "P 1"
_space_group_IT_number       1

loop_
  _space_group_symop_operation_xyz
  'x, y, z'

loop_
  _atom_site_type_symbol
  _atom_site_label
  _atom_site_symmetry_multiplicity
  _atom_site_fract_x
  _atom_site_fract_y
  _atom_site_fract_z
  _atom_site_occupancy
  Co  Co1       1.0  1.2826932120445535e-06  0.9999983054351564  7.307013306030682e-07  1.0000
  H   H1        1.0  0.25209435864993424  0.8571367041699248  0.07755661918176322  1.0000
  H   H2        1.0  0.7479080898672308  0.1428625003083894  0.9224451315991615  1.0000
  H   H3        1.0  0.329166749978981  0.8887755455682723  0.9482258319563358  1.0000
  H   H4        1.0  0.6708343794229634  0.11122480891262403  0.051775079337929186  1.0000
  H   H5        1.0  0.6408396364235854  0.024202345860977893  0.35025158719774657  1.0000
  H   H6        1.0  0.35915856763530474  0.9757933851129862  0.6497504415158133  1.0000
  H   H7        1.0  0.24339789870891337  0.12862045506742703  0.8443529231297334  1.0000
  H   H8        1.0  0.7566058254945816  0.8713776106858261  0.1556478765259257  1.0000
  H   H9        1.0  0.9704026226378984  0.2641386008640083  0.1485750706734379  1.0000
  H   H10       1.0  0.029599534123448682  0.7358629095272562  0.8514257691856884  1.0000
  H   H11       1.0  0.09366763513899196  0.5068117354447637  0.1615465055113887  1.0000
  H   H12       1.0  0.9063334291196125  0.4931886359524284  0.8384517198649776  1.0000
  H   H13       1.0  0.3019953101445907  0.5627831926355711  0.005167455956190312  1.0000
  H   H14       1.0  0.698004478427691  0.4372183174866748  0.9948317205454416  1.0000
  H   H15       1.0  0.5399414146995838  0.0920303534947706  0.561324597540839  1.0000
  H   H16       1.0  0.4600573682277442  0.9079699950783534  0.4386755457018979  1.0000
  H   H17       1.0  0.775320898365095  0.21565565431348688  0.22909181276327933  1.0000
  H   H18       1.0  0.22467621319105283  0.784338937666412  0.7709076014675277  1.0000
  H   H19       1.0  0.7311838185205417  0.5238800592055314  0.5086272858873286  1.0000
  H   H20       1.0  0.2688112119591537  0.4761214560174524  0.4913676685933695  1.0000
  C   C1        1.0  0.6557396111365748  0.13489964883392253  0.3886069434002125  1.0000
  C   C2        1.0  0.3442571387864034  0.8650983822797187  0.6113942380187609  1.0000
  C   C3        1.0  0.2167739875481587  0.21381755172723158  0.9142741090671009  1.0000
  C   C4        1.0  0.7832258010241162  0.7861839583950143  0.08572506743453802  1.0000
  C   C5        1.0  0.0618633164916602  0.2911248607637944  0.08371899435488221  1.0000
  C   C6        1.0  0.9381402509767011  0.7088743607653144  0.9162809021868912  1.0000
  C   C7        1.0  0.13135314988924313  0.4263682146958415  0.0898981993144972  1.0000
  C   C8        1.0  0.8686479360838034  0.5736321510625828  0.9101009213678354  1.0000
  C   C9        1.0  0.24758171322230982  0.4565077640349601  0.005185823178422306  1.0000
  C   C10       1.0  0.7524206918659572  0.5434914517208825  0.994814136990577  1.0000
  C   C11       1.0  0.2919094267783605  0.3476693207014563  0.9152425875621971  1.0000
  C   C12       1.0  0.7080918159298265  0.65232988928112  0.0847574362340211  1.0000
  C   C13       1.0  0.41242454233297826  0.3824887236954595  0.8262700816150642  1.0000
  C   C14       1.0  0.587575381259988  0.6175116362896986  0.17372910269449454  1.0000
  C   C15       1.0  0.5613062922660318  0.3687868139490008  0.665525608794809  1.0000
  C   C16       1.0  0.43869363132693456  0.6312135460361574  0.3344735755147498  1.0000
  C   C17       1.0  0.6237497920819025  0.3155019083443876  0.5489450897150548  1.0000
  C   C18       1.0  0.3762488123958434  0.6844996016433598  0.45105325510783706  1.0000
  C   C19       1.0  0.5997617814105424  0.17195006694820592  0.5046790492376729  1.0000
  C   C20       1.0  0.40023454173592654  0.8280514202154733  0.4953212134515894  1.0000
  C   C21       1.0  0.7337516348131885  0.24134945584887646  0.3211125846956264  1.0000
  C   C22       1.0  0.26624415762773884  0.7586462861336045  0.6788859900485137  1.0000
  C   C23       1.0  0.7081641781090935  0.4127912559074502  0.47523628883416086  1.0000
  C   C24       1.0  0.2918308957994995  0.5872102480380121  0.5247604562584627  1.0000
  C   C25       1.0  0.10046807700041424  0.9472426683224956  0.24686253567696076  1.0000
  C   C26       1.0  0.8995352421410131  0.0527588478420356  0.7531382405549394  1.0000
  C   C27       1.0  0.05236764475291979  0.9730544929509719  0.3787780639697971  1.0000
  C   C28       1.0  0.9476356526740587  0.026947028852319498  0.6212218169561439  1.0000
  C   C29       1.0  0.08651117674050107  0.1045874432818437  0.4375793684191294  1.0000
  C   C30       1.0  0.9134910017352951  0.8954140614706604  0.5624223667459562  1.0000
  C   C31       1.0  0.0321286961492149  0.13231379147165265  0.5569333270821845  1.0000
  C   C32       1.0  0.967874758012897  0.8676865745557906  0.44306745695763533  1.0000
  Br  Br1       1.0  0.21303531965147474  0.24139125159929628  0.3559224959205665  1.0000
  Br  Br2       1.0  0.7869648041055229  0.7586079413324782  0.6440793821147965  1.0000
  Br  Br3       1.0  0.06937730000473151  0.3157134495896727  0.6332079196237929  1.0000
  Br  Br4       1.0  0.9306223752613078  0.6842892050309005  0.36679214437589275  1.0000
  N   N1        1.0  0.10322712630194532  0.18561099803817166  0.9977171224667316  1.0000
  N   N2        1.0  0.8967752787863287  0.8143882177176706  0.002282837702267712  1.0000
  N   N3        1.0  0.4945319307926822  0.5001147707729742  0.826265795326492  1.0000
  N   N4        1.0  0.5054652412636003  0.49988903371568233  0.17373259750778663  1.0000
  N   N5        1.0  0.5902930085835294  0.4914086470490843  0.7226852788484877  1.0000
  N   N6        1.0  0.4097031361133574  0.5085940015292112  0.27731318542092964  1.0000
  N   N7        1.0  0.7625130160694127  0.37744490438303296  0.3637567573615641  1.0000
  N   N8        1.0  0.23748145725629394  0.6225519876020298  0.6362409778959162  1.0000
  O   O1        1.0  0.449634015410517  0.2929620976972985  0.7270782862625182  1.0000
  O   O2        1.0  0.5503680979219253  0.7070394239714872  0.2729207629846755  1.0000
  O   O3        1.0  0.991962952944838  0.9963422329777532  0.17580411947712096  1.0000
  O   O4        1.0  0.00803933883719311  0.003658127276416698  0.8241967281899253  1.0000
  O   O5        1.0  0.2347350397142947  0.8836088941948078  0.21852629071761248  1.0000
  O   O6        1.0  0.7652684144478243  0.1163914718326353  0.7814744933222074  1.0000
  O   O7        1.0  0.2400678591202023  0.8461884577604265  0.9880758010887405  1.0000
  O   O8        1.0  0.7599332702817421  0.15381189672047674  0.0119251102055244  1.0000
