data_image0
_chemical_formula_structural       AlH27C45O12
_chemical_formula_sum              "Al1 H27 C45 O12"
_cell_length_a       3.9697159167733287
_cell_length_b       23.559580016775918
_cell_length_c       23.605566682986286
_cell_angle_alpha    60.01988705751913
_cell_angle_beta     87.52907122670622
_cell_angle_gamma    87.60427458451447

_space_group_name_H-M_alt    "P 1"
_space_group_IT_number       1

loop_
  _space_group_symop_operation_xyz
  'x, y, z'

loop_
  _atom_site_type_symbol
  _atom_site_label
  _atom_site_symmetry_multiplicity
  _atom_site_fract_x
  _atom_site_fract_y
  _atom_site_fract_z
  _atom_site_occupancy
  Al  Al1       1.0  0.016389577573583808  0.4993435531144997  0.5002513094709825  1.0000
  H   H1        1.0  0.7334861333260818  0.32280842799495707  0.6785271372203566  1.0000
  H   H2        1.0  0.703851326295883  0.25773149736158274  0.7977977879544226  1.0000
  H   H3        1.0  0.8609083001166058  0.16636834043055163  0.01604161804259967  1.0000
  H   H4        1.0  0.3123490062462722  0.803097046009363  0.2701946541137657  1.0000
  H   H5        1.0  0.25627145134421175  0.894367047795797  0.2310959580385511  1.0000
  H   H6        1.0  0.24339048827791038  0.012695421240643198  0.16851566140942958  1.0000
  H   H7        1.0  0.5178480162609489  0.10501522506154974  0.10609011609133738  1.0000
  H   H8        1.0  0.7209597898251445  0.6777270901327839  0.49661291448837364  1.0000
  H   H9        1.0  0.6977190328864539  0.7969364160498035  0.442774668697403  1.0000
  H   H10       1.0  0.8320932173160642  0.016962939503599703  0.3157812626010639  1.0000
  H   H11       1.0  0.3427738892337898  0.269982267175621  0.4279044742561523  1.0000
  H   H12       1.0  0.2647416508068686  0.23383479246076894  0.37525514760960726  1.0000
  H   H13       1.0  0.23574679014916464  0.17179774710124462  0.3193764537750425  1.0000
  H   H14       1.0  0.5218902500447058  0.10709742161949261  0.2872745818474627  1.0000
  H   H15       1.0  0.7909592027483187  0.49382763776191047  0.32456636663987115  1.0000
  H   H16       1.0  0.769306728524704  0.44057613303146326  0.2590302165078029  1.0000
  H   H17       1.0  0.8616901503886327  0.3138504080284862  0.16242595040488783  1.0000
  H   H18       1.0  0.29750083045602344  0.428978958441654  0.8034649960953785  1.0000
  H   H19       1.0  0.20760180520890975  0.37338660849147237  0.8950981416136088  1.0000
  H   H20       1.0  0.19884569635569704  0.317443666109547  0.01369962145465554  1.0000
  H   H21       1.0  0.5191741397380483  0.28844535687193945  0.10408759091763638  1.0000
  H   H22       1.0  0.2198064075066242  0.3572430150946389  0.5098523930507  1.0000
  H   H23       1.0  0.17178522753182082  0.5095244789397525  0.6355689798439172  1.0000
  H   H24       1.0  0.19267755167805237  0.6349799191236658  0.35745154005257246  1.0000
  H   H25       1.0  0.0657905124358251  0.38976265213553773  0.2437923717654867  1.0000
  H   H26       1.0  0.0209349304015731  0.2493130675061721  0.8527449819908455  1.0000
  H   H27       1.0  0.008133778542927027  0.8555153216954848  0.39527151413997064  1.0000
  C   C1        1.0  0.5083492367270566  0.44607456078824015  0.6016658666018557  1.0000
  C   C2        1.0  0.5442242619556055  0.45118142578216  0.44672892957949256  1.0000
  C   C3        1.0  0.5083426279527643  0.600904824966513  0.45226797801852553  1.0000
  C   C4        1.0  0.634119627519077  0.34500423242784717  0.7069036263738367  1.0000
  C   C5        1.0  0.6315629985331058  0.30937192264073593  0.7746159701932952  1.0000
  C   C6        1.0  0.7280112956250522  0.24463502055383665  0.9221481265721463  1.0000
  C   C7        1.0  0.707254658783768  0.21103300324048752  0.9903952506719519  1.0000
  C   C8        1.0  0.3640432555063812  0.7099675877149708  0.3546877387081294  1.0000
  C   C9        1.0  0.3984927602152056  0.7779010974422179  0.32022316107899224  1.0000
  C   C10       1.0  0.3906907240603348  0.9204656668531683  0.24995213701031102  1.0000
  C   C11       1.0  0.3815379309347407  0.9882370426956231  0.21387159953536627  1.0000
  C   C12       1.0  0.4978259478588925  0.40892284090978137  0.6732414521452199  1.0000
  C   C13       1.0  0.524915460163861  0.3390033262037023  0.812384987747407  1.0000
  C   C14       1.0  0.5427007456433518  0.30418585869975356  0.884630218658522  1.0000
  C   C15       1.0  0.5224464502864025  0.23621043944436346  0.02483935211502337  1.0000
  C   C16       1.0  0.5148836115466651  0.20067496492942646  0.09701383544317814  1.0000
  C   C17       1.0  0.5156623959348963  0.13200815578649377  0.13251616880279465  1.0000
  C   C18       1.0  0.6274883167033211  0.7062126531023766  0.4470769299670748  1.0000
  C   C19       1.0  0.6277753843536119  0.7740105258363458  0.4150520310170263  1.0000
  C   C20       1.0  0.715084402494043  0.92275699821257  0.33210732747397015  1.0000
  C   C21       1.0  0.6935333811831089  0.9910955273259889  0.29708687683037716  1.0000
  C   C22       1.0  0.40501659422780995  0.35372720824654647  0.43664001103754646  1.0000
  C   C23       1.0  0.43881110234430315  0.319429129540545  0.4026052100388782  1.0000
  C   C24       1.0  0.40489301888372625  0.251469205335269  0.3291452100219274  1.0000
  C   C25       1.0  0.3863556588231419  0.21574057665108637  0.2974312007709727  1.0000
  C   C26       1.0  0.49848608899707625  0.672515598983246  0.418085184314762  1.0000
  C   C27       1.0  0.5298635922161027  0.8120713093072639  0.348693937528992  1.0000
  C   C28       1.0  0.5504469544847554  0.884477083612666  0.3108291340383998  1.0000
  C   C29       1.0  0.5281548442231596  0.025252661922301904  0.2377952870550502  1.0000
  C   C30       1.0  0.5176891204922074  0.09757363051676293  0.2010568595852007  1.0000
  C   C31       1.0  0.5184090241223843  0.13329397793575742  0.23398395296865707  1.0000
  C   C32       1.0  0.6894706141139082  0.4448499288256329  0.3461893253408517  1.0000
  C   C33       1.0  0.6897668819519965  0.413066270873401  0.31017671589207635  1.0000
  C   C34       1.0  0.7519123023540644  0.33061648196753174  0.24187898711342365  1.0000
  C   C35       1.0  0.7200448520013867  0.29620708477339264  0.20849408490151686  1.0000
  C   C36       1.0  0.3537175007245922  0.4364582107736582  0.7104306634412153  1.0000
  C   C37       1.0  0.3879735103018407  0.40304782492301416  0.7782430937008157  1.0000
  C   C38       1.0  0.3607644121623822  0.32879137664932057  0.9209204957489447  1.0000
  C   C39       1.0  0.35302186515512807  0.2970015901135312  0.9885927716684932  1.0000
  C   C40       1.0  0.5474443070058472  0.41660055509424865  0.40969161918184227  1.0000
  C   C41       1.0  0.5759794098271132  0.3477156241178108  0.33861372015967806  1.0000
  C   C42       1.0  0.5824789335673657  0.3105885818423958  0.30307030332896545  1.0000
  C   C43       1.0  0.5397777454845215  0.23848965270416045  0.2351840367886453  1.0000
  C   C44       1.0  0.5212302645286542  0.20193037158773564  0.19977031525591118  1.0000
  C   C45       1.0  0.5165999031708922  0.23502952515375608  0.13125388459974366  1.0000
  O   O1        1.0  0.2853905998748589  0.5718146401079452  0.437541056708639  1.0000
  O   O2        1.0  0.2712679907092977  0.48986641874181197  0.572694567351448  1.0000
  O   O3        1.0  0.3061592263205811  0.4369647660265272  0.4911320920372191  1.0000
  O   O4        1.0  0.7369880950591755  0.5698903054947307  0.49408049593075987  1.0000
  O   O5        1.0  0.7720638377442768  0.49247413405418444  0.4354900607890001  1.0000
  O   O6        1.0  0.7507983928010663  0.4348939018480634  0.5709126497797284  1.0000
  O   O7        1.0  0.2456139529575979  0.32394592822762297  0.49586174209385087  1.0000
  O   O8        1.0  0.19600647023212053  0.4959410981870321  0.6822887681381217  1.0000
  O   O9        1.0  0.21497615458952177  0.6820682120967234  0.32449242625561675  1.0000
  O   O10       1.0  0.9592903628973135  0.3833000048706694  0.21098250154391707  1.0000
  O   O11       1.0  0.9417573217566545  0.21593032763639292  0.8961190071949684  1.0000
  O   O12       1.0  0.9077815257582815  0.8975174433974831  0.38672133417298216  1.0000
