data_image0
_chemical_formula_structural       K2H72PdC48S4N4O12
_chemical_formula_sum              "K2 H72 Pd1 C48 S4 N4 O12"
_cell_length_a       10.767997289498718
_cell_length_b       11.342284596259008
_cell_length_c       12.778638438888224
_cell_angle_alpha    101.57772439575999
_cell_angle_beta     110.66583564969098
_cell_angle_gamma    98.90425477975667

_space_group_name_H-M_alt    "P 1"
_space_group_IT_number       1

loop_
  _space_group_symop_operation_xyz
  'x, y, z'

loop_
  _atom_site_type_symbol
  _atom_site_label
  _atom_site_symmetry_multiplicity
  _atom_site_fract_x
  _atom_site_fract_y
  _atom_site_fract_z
  _atom_site_occupancy
  K   K1        1.0  0.53319704459512  0.2873288406520372  0.750500721734859  1.0000
  K   K2        1.0  0.46680445191513814  0.7126737910654414  0.24949558928633317  1.0000
  H   H1        1.0  0.2600017975773383  0.1178344978751156  0.3865948341806131  1.0000
  H   H2        1.0  0.7399929780838337  0.8821653814618886  0.6134036825299846  1.0000
  H   H3        1.0  0.05103050940012111  0.18599002466353906  0.3186873046446834  1.0000
  H   H4        1.0  0.9489605180765038  0.8140070854797371  0.6813166467356666  1.0000
  H   H5        1.0  0.026226668087467406  0.0725393134996963  0.38913396564252883  1.0000
  H   H6        1.0  0.9737730612569635  0.9274605375879332  0.6108746277720556  1.0000
  H   H7        1.0  0.06348136757745239  0.23759783146388708  0.5681446201532623  1.0000
  H   H8        1.0  0.9365218511923176  0.7624038600727231  0.4318629914982992  1.0000
  H   H9        1.0  0.930697911476237  0.25245343705702783  0.4450903415508591  1.0000
  H   H10       1.0  0.06930255062852107  0.7475454798708299  0.5549198685388319  1.0000
  H   H11       1.0  0.09231980314207529  0.41991181820721113  0.4252640384426414  1.0000
  H   H12       1.0  0.9076746731468148  0.5800834128622013  0.5747359088013084  1.0000
  H   H13       1.0  0.09404575808621024  0.45910104260968154  0.5669367717897487  1.0000
  H   H14       1.0  0.9059525063689405  0.5409006769869079  0.43306467571622403  1.0000
  H   H15       1.0  0.3359327851325419  0.49752220224423377  0.5786611208186159  1.0000
  H   H16       1.0  0.664063972683806  0.5024776659975672  0.42133720101050204  1.0000
  H   H17       1.0  0.3016421095619819  0.3809378848906064  0.6436598832448652  1.0000
  H   H18       1.0  0.6983581371746156  0.6190638236486521  0.3563405868679439  1.0000
  H   H19       1.0  0.29095192647521634  0.3359267254140549  0.39481140895092187  1.0000
  H   H20       1.0  0.7090438400741377  0.6640731483185293  0.6051881840864582  1.0000
  H   H21       1.0  0.49935864388249485  0.2952366499886168  0.38462207917812924  1.0000
  H   H22       1.0  0.5006388468204506  0.704762284131277  0.6153770768144113  1.0000
  H   H23       1.0  0.4936828654518592  0.16885473972735102  0.44863890861353894  1.0000
  H   H24       1.0  0.5063148831263931  0.8311451228721508  0.551361272054038  1.0000
  H   H25       1.0  0.7331432451691099  0.2850035840758594  0.48305042624088673  1.0000
  H   H26       1.0  0.26685450366168345  0.7149962785994007  0.5169481894033368  1.0000
  H   H27       1.0  0.7068601713515505  0.4188287765778682  0.5658032683743954  1.0000
  H   H28       1.0  0.29313559519780347  0.5811710971547158  0.4341963246629845  1.0000
  H   H29       1.0  0.880964854848422  0.4249866325058989  0.7284033364259416  1.0000
  H   H30       1.0  0.1190321607169693  0.5750141641776237  0.27159679258989666  1.0000
  H   H31       1.0  0.9243370128896656  0.2840437220630747  0.6780576132102283  1.0000
  H   H32       1.0  0.07566099394271224  0.715957069129665  0.3219412445973476  1.0000
  H   H33       1.0  0.8431746174659267  0.1963522384210564  0.8178042861418717  1.0000
  H   H34       1.0  0.1568238642514643  0.8036466901322965  0.18219516366577437  1.0000
  H   H35       1.0  0.9921751137988082  0.3216913066600924  0.8847285323247506  1.0000
  H   H36       1.0  0.007823367918582888  0.6783076218932608  0.11527091748288852  1.0000
  H   H37       1.0  0.9503375108900799  0.3992325122901119  0.05762869663452363  1.0000
  H   H38       1.0  0.049660237814443134  0.6007673503472688  0.9423707015213765  1.0000
  H   H39       1.0  0.652983658607546  0.4218390149097219  0.9932077505336281  1.0000
  H   H40       1.0  0.34701456510826023  0.5781589851261514  0.006791457110651282  1.0000
  H   H41       1.0  0.7995747998362077  0.5454068985363136  0.04294373182759167  1.0000
  H   H42       1.0  0.20042368213373146  0.45459203009279747  0.9570541529566868  1.0000
  H   H43       1.0  0.721281430356072  0.5166430303282681  0.2010870430312296  1.0000
  H   H44       1.0  0.2787173093629036  0.4833568267425718  0.7989126489397691  1.0000
  H   H45       1.0  0.8890775463851384  0.4957627086347712  0.2335517078312607  1.0000
  H   H46       1.0  0.11092145146169233  0.5042380769914272  0.7664474437914207  1.0000
  H   H47       1.0  0.7513270246600569  0.32731515391392907  0.2739808222036401  1.0000
  H   H48       1.0  0.24867369696154643  0.6726846919859426  0.7260202399092466  1.0000
  H   H49       1.0  0.6248274245978962  0.2885850961402028  0.1309098509149251  1.0000
  H   H50       1.0  0.3751730390221226  0.7114138212421892  0.8690909690346019  1.0000
  H   H51       1.0  0.7841296662515161  0.1442795245311999  0.1460351115978895  1.0000
  H   H52       1.0  0.21586907346745932  0.8557203325396328  0.8539645803731091  1.0000
  H   H53       1.0  0.924513320757221  0.27254137078536195  0.19509733784764913  1.0000
  H   H54       1.0  0.07548740099065307  0.7274584751523889  0.8049029417535536  1.0000
  H   H55       1.0  0.8620542238608236  0.17683304549547066  0.9915351261579843  1.0000
  H   H56       1.0  0.13794477398600696  0.823167740130728  0.008464025464689953  1.0000
  H   H57       1.0  0.6852883258625866  0.0158093093340241  0.847546913012266  1.0000
  H   H58       1.0  0.31471140449202295  0.9841905420566375  0.15245542030887543  1.0000
  H   H59       1.0  0.6570960042998095  0.009814747904705698  0.975353454398338  1.0000
  H   H60       1.0  0.34290273491408396  0.990185109014618  0.024649367619382242  1.0000
  H   H61       1.0  0.4171976619677267  0.032691531659921204  0.8781977401545192  1.0000
  H   H62       1.0  0.5828010776249783  0.9673083253730397  0.12180273432816345  1.0000
  H   H63       1.0  0.45146701562897823  0.892977800259658  0.8129277235708869  1.0000
  H   H64       1.0  0.5485319819653043  0.10702298529079002  0.18707299307514794  1.0000
  H   H65       1.0  0.23709666267907184  0.026473918040252897  0.7039156487252568  1.0000
  H   H66       1.0  0.7629032850640485  0.9735231423450517  0.2960839043858742  1.0000
  H   H67       1.0  0.26130775289826164  0.8811063952000852  0.6405968488391239  1.0000
  H   H68       1.0  0.7386937018624806  0.118892516653645  0.3594034824138177  1.0000
  H   H69       1.0  0.31490349403062373  0.9718719435328752  0.49204145534536536  1.0000
  H   H70       1.0  0.6850967117140884  0.028126045369908995  0.5079583399291252  1.0000
  H   H71       1.0  0.14585894421575327  0.9658184285231357  0.48633471201011963  1.0000
  H   H72       1.0  0.8541407863914047  0.0341814229432771  0.5136660562876614  1.0000
  Pd  Pd1       1.0  2.73328576130004e-06  2.7532286779000067e-06  0.999999868292221  1.0000
  C   C1        1.0  0.23602849915276647  0.1787078041955041  0.4522798660924466  1.0000
  C   C2        1.0  0.7639689911713603  0.82129112981076  0.5477216374351386  1.0000
  C   C3        1.0  0.08156965070001833  0.1686008505397822  0.4048220629028236  1.0000
  C   C4        1.0  0.9184271061061509  0.8313990173989865  0.595182519019737  1.0000
  C   C5        1.0  0.04149594297441441  0.26061552209531413  0.48461962397049524  1.0000
  C   C6        1.0  0.9585022797312206  0.7393824776375338  0.5153858437672341  1.0000
  C   C7        1.0  0.12111435324585074  0.393524862638003  0.5077266400776068  1.0000
  C   C8        1.0  0.8788841279664511  0.606474065763841  0.4922759397767607  1.0000
  C   C9        1.0  0.27479839443270043  0.40316071367158923  0.5597727412850092  1.0000
  C   C10       1.0  0.7251983630048285  0.5968391544565748  0.44022792807914624  1.0000
  C   C11       1.0  0.31559576052224253  0.3134353415249507  0.47925229069401354  1.0000
  C   C12       1.0  0.6844029790704624  0.6865645155080031  0.5207481837886618  1.0000
  C   C13       1.0  0.5254282099570345  0.27096014308246197  0.46812122964043124  1.0000
  C   C14       1.0  0.47456953862121765  0.7290397195170399  0.5318789510271529  1.0000
  C   C15       1.0  0.6783065653780085  0.3163171735552481  0.5379818996575169  1.0000
  C   C16       1.0  0.3216901921857911  0.6836826946107948  0.46201798719496173  1.0000
  C   C17       1.0  0.8565059575732336  0.3233766789241912  0.715494993277865  1.0000
  C   C18       1.0  0.14349079999056616  0.6766231892418518  0.28450489357461356  1.0000
  C   C19       1.0  0.8809596650023438  0.296692488155287  0.8312766479000544  1.0000
  C   C20       1.0  0.11903907459035426  0.7033073688776739  0.16872382658262816  1.0000
  C   C21       1.0  0.8385914806462225  0.3651740366185763  0.004679127070886661  1.0000
  C   C22       1.0  0.16140700094489802  0.6348248918968977  0.9953211052484363  1.0000
  C   C23       1.0  0.7629465810500163  0.4523938923333119  0.04948977040839964  1.0000
  C   C24       1.0  0.23705116752823596  0.5476059702661901  0.9505104102591773  1.0000
  C   C25       1.0  0.780608494393455  0.45554091619337095  0.17419428619378138  1.0000
  C   C26       1.0  0.21939050332709803  0.5444598693949487  0.8258056479405697  1.0000
  C   C27       1.0  0.7355513145983109  0.32487660627325  0.1834891083006483  1.0000
  C   C28       1.0  0.26444867426296537  0.6751241737864078  0.8165103371371316  1.0000
  C   C29       1.0  0.8140168462549086  0.23914929295983714  0.14018958529391057  1.0000
  C   C30       1.0  0.18598288460479045  0.7608505585823336  0.8598096179805097  1.0000
  C   C31       1.0  0.79642743668078  0.23401267229642292  0.014965947821323827  1.0000
  C   C32       1.0  0.20357255205423283  0.7659881077253556  0.9850342801281329  1.0000
  C   C33       1.0  0.6267974859721406  0.046969639014619695  0.8989608153596436  1.0000
  C   C34       1.0  0.3732012534942868  0.9530302179804621  0.10104044163471569  1.0000
  C   C35       1.0  0.4755785449223637  0.9950861438020482  0.8291356433343537  1.0000
  C   C36       1.0  0.5244204526719187  0.004914641748392498  0.17086507331168835  1.0000
  C   C37       1.0  0.29271868685722785  0.9826345347502041  0.6552722919088865  1.0000
  C   C38       1.0  0.7072827679035143  0.0173643771035259  0.34472803934405494  1.0000
  C   C39       1.0  0.255458918560997  0.0109564590934781  0.539312571241247  1.0000
  C   C40       1.0  0.7445418031868769  0.9890433868442726  0.46068770835995554  1.0000
  C   C41       1.0  0.29003131393714904  0.24975660076778897  0.9059038590279656  1.0000
  C   C42       1.0  0.7099885362050244  0.7502477875975014  0.09410213755015198  1.0000
  C   C43       1.0  0.21331065343819228  0.1933362469869166  0.960061048478913  1.0000
  C   C44       1.0  0.78671087986568  0.8066634821292168  0.039943836216039585  1.0000
  C   C45       1.0  0.24131656285705114  0.24086922763510898  0.07688864846843302  1.0000
  C   C46       1.0  0.7586985078518608  0.7591286776937878  0.9231171190559168  1.0000
  C   C47       1.0  0.3447601472120639  0.35050975434486276  0.1448421986657351  1.0000
  C   C48       1.0  0.6552410490420045  0.6494882288398642  0.8551610204705753  1.0000
  S   S1        1.0  0.08509561143323909  0.06083258147987179  0.8716316521723754  1.0000
  S   S2        1.0  0.9149177767453338  0.9391699832875842  0.1283713146767411  1.0000
  S   S3        1.0  0.15135953058614862  0.17102368481489802  0.1464474178766011  1.0000
  S   S4        1.0  0.8486429561809318  0.8289789411087655  0.8535538820297718  1.0000
  N   N1        1.0  0.35168729857088005  0.29293266609702334  0.8575698992979782  1.0000
  N   N2        1.0  0.64832612971567  0.707073618041754  0.14243921997123007  1.0000
  N   N3        1.0  0.4292867633216986  0.4420218346194955  0.2022476916527438  1.0000
  N   N4        1.0  0.5707158047977855  0.5579882303877284  0.7977588704886855  1.0000
  O   O1        1.0  0.2817911894489171  0.14224877649210296  0.5584635835722693  1.0000
  O   O2        1.0  0.7182102654380957  0.857750135399506  0.44153596516899546  1.0000
  O   O3        1.0  0.46083860369591895  0.3315382644873708  0.5355834249577639  1.0000
  O   O4        1.0  0.5391584119957429  0.6684625322340382  0.4644159215463973  1.0000
  O   O5        1.0  0.7158797192940723  0.2705664395051032  0.6382820478038909  1.0000
  O   O6        1.0  0.28411927842648776  0.7294343460832238  0.3617178863304602  1.0000
  O   O7        1.0  0.8127030648427791  0.3687322761806228  0.8871376562107117  1.0000
  O   O8        1.0  0.18729541700088254  0.6312666524106092  0.1128610110852506  1.0000
  O   O9        1.0  0.6564174149374364  0.17948892131338567  0.9339836927969427  1.0000
  O   O10       1.0  0.3435810665274133  0.8205100071642162  0.06601732203405673  1.0000
  O   O11       1.0  0.43689207625450877  0.0262362922663897  0.7209337886935359  1.0000
  O   O12       1.0  0.563107396477335  0.9737626307204225  0.2790659549292087  1.0000
