data_image0
_chemical_formula_structural       Cd2H36C52N6O8
_chemical_formula_sum              "Cd2 H36 C52 N6 O8"
_cell_length_a       9.08050448065134
_cell_length_b       11.281506703648185
_cell_length_c       11.9772
_cell_angle_alpha    77.52916078318337
_cell_angle_beta     82.43157096810712
_cell_angle_gamma    78.51251381983576

_space_group_name_H-M_alt    "P 1"
_space_group_IT_number       1

loop_
  _space_group_symop_operation_xyz
  'x, y, z'

loop_
  _atom_site_type_symbol
  _atom_site_label
  _atom_site_symmetry_multiplicity
  _atom_site_fract_x
  _atom_site_fract_y
  _atom_site_fract_z
  _atom_site_occupancy
  Cd  Cd1       1.0  0.06091853599471621  0.8265112722117607  0.5206307702253312  1.0000
  Cd  Cd2       1.0  0.9390820967927811  0.17348992297608853  0.47937025935767946  1.0000
  H   H1        1.0  0.137847758065945  0.12119918641922572  0.9561011156033175  1.0000
  H   H2        1.0  0.862151962843889  0.8788010864846143  0.04389852278907098  1.0000
  H   H3        1.0  0.9911731240148853  0.1268915233335051  0.14663811015523007  1.0000
  H   H4        1.0  0.0088277078335537  0.8731087495703349  0.8533614173032974  1.0000
  H   H5        1.0  0.7170866917925522  0.1973567886059868  0.1603150473629924  1.0000
  H   H6        1.0  0.2829132281782307  0.8026425620138369  0.8396847587442764  1.0000
  H   H7        1.0  0.7255855699774328  0.25264679276578056  0.7912179414401805  1.0000
  H   H8        1.0  0.2744134381156869  0.7473516355700411  0.20878297823549016  1.0000
  H   H9        1.0  0.003411550899137699  0.1886393601364844  0.7773999204514936  1.0000
  H   H10       1.0  0.9965874571939894  0.8113590681993301  0.22260016430450238  1.0000
  H   H11       1.0  0.610525476151132  0.020798426726173606  0.07554405943758269  1.0000
  H   H12       1.0  0.38947444381964397  0.9792009238936574  0.9244557466696789  1.0000
  H   H13       1.0  0.45281639424369746  0.9014394698122105  0.225163976491018  1.0000
  H   H14       1.0  0.5471813038498752  0.09855988080761341  0.774835216564277  1.0000
  H   H15       1.0  0.12552341570224712  0.23197471894907554  0.244850826829051  1.0000
  H   H16       1.0  0.874476703329478  0.768023709386739  0.7551483120734019  1.0000
  H   H17       1.0  0.2794885580787465  0.35014789152906195  0.09306909333575669  1.0000
  H   H18       1.0  0.7205113618920294  0.6498514590907619  0.9069315476911868  1.0000
  H   H19       1.0  0.6196792174897254  0.4818067009140776  0.8937288367553577  1.0000
  H   H20       1.0  0.3803207024810574  0.5181926497057533  0.1062709693519039  1.0000
  H   H21       1.0  0.295905271989632  0.25005425241158724  0.8939924904590413  1.0000
  H   H22       1.0  0.7040924261039408  0.7499450982082365  0.10600920735529937  1.0000
  H   H23       1.0  0.4728021105291376  0.6502526526354374  0.7587793631087436  1.0000
  H   H24       1.0  0.5271980085025874  0.3497457757003844  0.24121977579371648  1.0000
  H   H25       1.0  0.15087206816879467  0.4180381398435671  0.7592993674738083  1.0000
  H   H26       1.0  0.849125629924785  0.5819612107762637  0.24070066050116884  1.0000
  H   H27       1.0  0.8806177531269909  0.5997585253314881  0.51189914512873  1.0000
  H   H28       1.0  0.11938339341626399  0.4002454367083886  0.4881004354561184  1.0000
  H   H29       1.0  0.477148277913713  0.8536577797838519  0.4372455133266656  1.0000
  H   H30       1.0  0.522851956751893  0.14634525997202272  0.5627535109872355  1.0000
  H   H31       1.0  0.7150350933231024  0.9813931929871844  0.42062015695876903  1.0000
  H   H32       1.0  0.2849649422815546  0.0186107690526995  0.5793795345599406  1.0000
  H   H33       1.0  0.4097976865975639  0.702310051337584  0.37719125200057135  1.0000
  H   H34       1.0  0.5902027471289841  0.2976920661342747  0.6228079400282097  1.0000
  H   H35       1.0  0.2755172727221051  0.5294841728492301  0.3920185925230014  1.0000
  H   H36       1.0  0.724483161004443  0.47051794462263535  0.6079805995057725  1.0000
  C   C1        1.0  0.0164011806908491  0.1546089247082421  0.9610545324860027  1.0000
  C   C2        1.0  0.983597628341329  0.8453904259115887  0.038946219474801924  1.0000
  C   C3        1.0  0.9344972495756707  0.1566278044077478  0.06808149873388909  1.0000
  C   C4        1.0  0.06550267039510518  0.843371546212083  0.9319183073733724  1.0000
  C   C5        1.0  0.7787424672455288  0.1953194632262694  0.07610197998470622  1.0000
  C   C6        1.0  0.22125745272525416  0.8046798873935616  0.9238986610422373  1.0000
  C   C7        1.0  0.7844482050567478  0.22851892076083402  0.8687803028680605  1.0000
  C   C8        1.0  0.215550803036372  0.7714795075749806  0.13121978188793545  1.0000
  C   C9        1.0  0.9410796463964604  0.19180832799738573  0.8614365514295698  1.0000
  C   C10       1.0  0.0589193616966597  0.808190100338436  0.138563533326419  1.0000
  C   C11       1.0  0.7022969468241343  0.2297676933113806  0.9763797656475076  1.0000
  C   C12       1.0  0.2977029731466486  0.7702316573084502  0.023620040459753983  1.0000
  C   C13       1.0  0.4560298402034775  0.1937571141120742  0.07356372557089229  1.0000
  C   C14       1.0  0.5439700797673055  0.8062422365077495  0.9264360805363694  1.0000
  C   C15       1.0  0.5046484204996206  0.0667171030528451  0.1132033815306102  1.0000
  C   C16       1.0  0.49535169853210453  0.9332813252829767  0.8867957573718428  1.0000
  C   C17       1.0  0.4165752009635213  0.0003144988476649  0.1973033741880741  1.0000
  C   C18       1.0  0.5834238071295984  0.999683929488157  0.8026958756482402  1.0000
  C   C19       1.0  0.2782957173503107  0.057817984633224705  0.24554953661135673  1.0000
  C   C20       1.0  0.7217032907428091  0.9421804437025971  0.7544497132249575  1.0000
  C   C21       1.0  0.23122167115330686  0.18505720903877432  0.2075202261041227  1.0000
  C   C22       1.0  0.7687773369398131  0.8149412192970403  0.7924798586518732  1.0000
  C   C23       1.0  0.31831768069383054  0.2519726031539307  0.12280903053733282  1.0000
  C   C24       1.0  0.681681128338347  0.7480267474659003  0.87719088650379  1.0000
  C   C25       1.0  0.4662827774518589  0.3555220404596398  0.9037972072786077  1.0000
  C   C26       1.0  0.533717142518924  0.644477310160191  0.09620259882865406  1.0000
  C   C27       1.0  0.5171854824701114  0.4682371362640795  0.8637852449027505  1.0000
  C   C28       1.0  0.48281463656161355  0.5317612920717424  0.1362147289193913  1.0000
  C   C29       1.0  0.3349378547500379  0.33768598997595944  0.8639380854251755  1.0000
  C   C30       1.0  0.665060755221191  0.6623142829278806  0.13606249882075613  1.0000
  C   C31       1.0  0.4348949155538975  0.5620186636120508  0.7889298859454357  1.0000
  C   C32       1.0  0.5651061153554906  0.4379806870077729  0.21106980922797192  1.0000
  C   C33       1.0  0.3014146862159138  0.5455881739607378  0.7516289284700264  1.0000
  C   C34       1.0  0.6985854328158112  0.4544102543750768  0.24837104535211546  1.0000
  C   C35       1.0  0.253305273914556  0.4316925546225576  0.7893619925147632  1.0000
  C   C36       1.0  0.7466946460562269  0.5683067959972732  0.21063781359249836  1.0000
  C   C37       1.0  0.21362441488053457  0.6460018456299396  0.6714601958451851  1.0000
  C   C38       1.0  0.7863743941516432  0.3539975049898914  0.3285405561156124  1.0000
  C   C39       1.0  0.8048211073392864  0.6866303008710091  0.4896868544057114  1.0000
  C   C40       1.0  0.1951793263872617  0.3133718166008492  0.5103131725427444  1.0000
  C   C41       1.0  0.5959991400753496  0.8218205357331456  0.4487211129441349  1.0000
  C   C42       1.0  0.40400109459025657  0.17818250402272892  0.5512787462894551  1.0000
  C   C43       1.0  0.7140253267020497  0.8830509712061032  0.4424244989169849  1.0000
  C   C44       1.0  0.2859751070244982  0.1169511462657624  0.5575746931117962  1.0000
  C   C45       1.0  0.576483003490644  0.5973227732591299  0.49029455634538976  1.0000
  C   C46       1.0  0.4235185411745093  0.4026793442127286  0.5097045247495301  1.0000
  C   C47       1.0  0.4490574533925481  0.6138390353234443  0.43123935816177533  1.0000
  C   C48       1.0  0.5509440912725978  0.3861630821484212  0.5687597229331375  1.0000
  C   C49       1.0  0.3725150200722211  0.5165620515747662  0.4407872130019043  1.0000
  C   C50       1.0  0.6274852145933779  0.48344098818110853  0.5592118113120037  1.0000
  C   C51       1.0  0.1860080996107527  0.9844311965185569  0.33417195368087954  1.0000
  C   C52       1.0  0.8139905103604831  0.0155690763852832  0.6658269607256884  1.0000
  N   N1        1.0  0.65523132163824  0.6969746383354618  0.4785238267311698  1.0000
  N   N2        1.0  0.3447700239659639  0.3030284014204128  0.5214742517291953  1.0000
  N   N3        1.0  0.8432316375866122  0.7976041244631702  0.468352261910674  1.0000
  N   N4        1.0  0.1567687961399358  0.2023979930086881  0.5316469301181073  1.0000
  N   N5        1.0  0.5420364291294604  0.2612470911659202  0.9855440076625257  1.0000
  N   N6        1.0  0.4579634908413226  0.7387522594539107  0.014455798444735962  1.0000
  O   O1        1.0  0.25259297619255244  0.7523107566957848  0.6455216112878901  1.0000
  O   O2        1.0  0.7474069437782304  0.24768859392404616  0.35447902973904627  1.0000
  O   O3        1.0  0.1014888428903262  0.6231107564833991  0.6294879415843083  1.0000
  O   O4        1.0  0.8985110770804567  0.3768885941364318  0.37051186452295326  1.0000
  O   O5        1.0  0.05145730148120721  0.030966607944570505  0.369254729324993  1.0000
  O   O6        1.0  0.9485435303672318  0.9690336649592695  0.6307456330532092  1.0000
  O   O7        1.0  0.24287571770578614  0.8723165076051131  0.3752571673806671  1.0000
  O   O8        1.0  0.7571230913263919  0.1276828430147177  0.624741914740774  1.0000
