data_image0
_chemical_formula_structural       Zr6H32C90Br40O32
_chemical_formula_sum              "Zr6 H32 C90 Br40 O32"
_cell_length_a       11.60504328093019
_cell_length_b       20.555147817151926
_cell_length_c       34.72972058857717
_cell_angle_alpha    91.1372964007417
_cell_angle_beta     99.71338908183375
_cell_angle_gamma    89.79873157746314

_space_group_name_H-M_alt    "P 1"
_space_group_IT_number       1

loop_
  _space_group_symop_operation_xyz
  'x, y, z'

loop_
  _atom_site_type_symbol
  _atom_site_label
  _atom_site_symmetry_multiplicity
  _atom_site_fract_x
  _atom_site_fract_y
  _atom_site_fract_z
  _atom_site_occupancy
  Zr  Zr1       1.0  0.013490439935822001  0.10108547670843392  0.9574263462469617  1.0000
  Zr  Zr2       1.0  0.05210687970228629  0.9100711750932574  0.0376168480656887  1.0000
  Zr  Zr3       1.0  0.8650662939488426  0.9512237356668435  0.950934066512815  1.0000
  Zr  Zr4       1.0  0.2083800170174044  0.057577402876738376  0.0427909109107887  1.0000
  Zr  Zr5       1.0  0.8933109503959853  0.058095781766652976  0.04008648282523099  1.0000
  Zr  Zr6       1.0  0.18379467994078874  0.9551338604451228  0.9577717660195119  1.0000
  H   H1        1.0  0.038883531455283595  0.1629594651139001  0.031004075740327198  1.0000
  H   H2        1.0  0.8125786435211422  0.9301750874399419  0.034337214470028195  1.0000
  H   H3        1.0  0.29379805600422765  0.9301189818901248  0.03721088847039059  1.0000
  H   H4        1.0  0.007047049972413799  0.0039660126783403  0.896467689001021  1.0000
  H   H5        1.0  0.6626205977243984  0.08322378278761279  0.005372982911310908  1.0000
  H   H6        1.0  0.8440595388784614  0.9107995534028317  0.8759430571533002  1.0000
  H   H7        1.0  0.14037186204346597  0.8960128214332173  0.8850595289432732  1.0000
  H   H8        1.0  0.9289340864106987  0.12462389250158168  0.10823947851000068  1.0000
  H   H9        1.0  0.21138305450549663  0.171072365929092  0.08685086409830937  1.0000
  H   H10       1.0  0.44934277992124544  0.0415154466107239  0.061678429388123804  1.0000
  H   H11       1.0  0.3950077563083169  0.004550873955160702  0.0036192212627596896  1.0000
  H   H12       1.0  0.8793475147673958  0.009990940423719495  0.10989732590928719  1.0000
  H   H13       1.0  0.949680173220528  0.819285089410961  0.0799938527647015  1.0000
  H   H14       1.0  0.14253668548203538  0.16836015100366097  0.9075935743140418  1.0000
  H   H15       1.0  0.2250511900130192  0.019761284437265693  0.8936469610448511  1.0000
  H   H16       1.0  0.0927105962297858  0.12946117887162958  0.092590895803859  1.0000
  H   H17       1.0  0.04531577881433439  0.8596962181258904  0.1096725579575022  1.0000
  H   H18       1.0  0.6499504417854566  0.919554600460003  0.9631604167414523  1.0000
  H   H19       1.0  0.6856351127880771  0.009337278941181602  0.9913644186645457  1.0000
  H   H20       1.0  0.3983692855310181  0.995512736381265  0.9568664579141881  1.0000
  H   H21       1.0  0.015145881675827897  0.8860720790932317  0.9012849444959699  1.0000
  H   H22       1.0  0.0229678005062226  0.14628196640526173  0.880905200259427  1.0000
  H   H23       1.0  0.31978035182615366  0.5075764548157978  0.0007733899059445958  1.0000
  H   H24       1.0  0.7281969888696338  0.5038074913813091  0.9788808667405178  1.0000
  H   H25       1.0  0.37859705868538635  0.05923272096274699  0.7247159328033702  1.0000
  H   H26       1.0  0.4908104971793818  0.018537472768805695  0.6150303018427932  1.0000
  H   H27       1.0  0.7464969369628206  0.054052299496753206  0.7176127962922648  1.0000
  H   H28       1.0  0.53791181527842  0.9348386713434066  0.28928566757316787  1.0000
  H   H29       1.0  0.4194891451511609  0.9445523544701685  0.3999942382232575  1.0000
  H   H30       1.0  0.16877518443179437  0.9410197880696102  0.2939344895139584  1.0000
  H   H31       1.0  0.7449798873810991  0.9787430084734653  0.5039305043508264  1.0000
  H   H32       1.0  0.17200803349938099  0.9805438788206045  0.5120813354228345  1.0000
  C   C1        1.0  0.8302751349017041  0.19643240189066094  0.9906335462866167  1.0000
  C   C2        1.0  0.2267397814768301  0.19697785870499723  0.9976653535834429  1.0000
  C   C3        1.0  0.7926346649110555  0.06856395842038408  0.8870326997106659  1.0000
  C   C4        1.0  0.851243139632345  0.8087989503386195  0.9911136678172455  1.0000
  C   C5        1.0  0.22720821549151535  0.8152749403380138  0.9997283578599294  1.0000
  C   C6        1.0  0.23794905412309214  0.9543848293599099  0.1164308137297922  1.0000
  C   C7        1.0  0.46413313708470827  0.4466305980308006  0.9927625939195507  1.0000
  C   C8        1.0  0.5820281631836294  0.4458359941231933  0.9870116066919792  1.0000
  C   C9        1.0  0.6380653240753488  0.5048109800483047  0.9838230767292728  1.0000
  C   C10       1.0  0.5847155599283269  0.5651262894221672  0.9876976877699377  1.0000
  C   C11       1.0  0.46714414299366064  0.5661672804981703  0.9940408089622962  1.0000
  C   C12       1.0  0.41020095461212236  0.5067711879849169  0.9961798789092597  1.0000
  C   C13       1.0  0.5658583869673847  0.05854971856356169  0.7257633159174048  1.0000
  C   C14       1.0  0.4486023706252593  0.052220160417014896  0.7077994534607653  1.0000
  C   C15       1.0  0.422131779766012  0.035847203764774294  0.668094636336626  1.0000
  C   C16       1.0  0.512191494489464  0.029959042117255294  0.6462083270999341  1.0000
  C   C17       1.0  0.6288151389931755  0.03772608617765629  0.663457274868172  1.0000
  C   C18       1.0  0.6555405273801966  0.05023954606814839  0.703488050678665  1.0000
  C   C19       1.0  0.3505665753155823  0.9376803506455714  0.2870635287177379  1.0000
  C   C20       1.0  0.4671089614758229  0.936039848401826  0.306232815614905  1.0000
  C   C21       1.0  0.4919512671279733  0.9368564369622873  0.346987743666638  1.0000
  C   C22       1.0  0.40002565493448117  0.9415988537082495  0.36818085085324265  1.0000
  C   C23       1.0  0.28399221744258796  0.9439753758012941  0.349531823647105  1.0000
  C   C24       1.0  0.2591204556544681  0.9402255404536106  0.3088584873005543  1.0000
  C   C25       1.0  0.908899314002987  0.9915134884674899  0.542108329353681  1.0000
  C   C26       1.0  0.03138045254326019  0.9904684618397396  0.5445672096261231  1.0000
  C   C27       1.0  0.0773609100209782  0.9801231074004663  0.5102416414700741  1.0000
  C   C28       1.0  0.007877561925731394  0.970116489865461  0.47363036669588604  1.0000
  C   C29       1.0  0.8855553803618219  0.9680650063501515  0.4715163411185158  1.0000
  C   C30       1.0  0.8396029818865359  0.9792071011650023  0.505759176436456  1.0000
  C   C31       1.0  0.13509552831287408  0.8994493922248094  0.3870723116572847  1.0000
  C   C32       1.0  0.1969017556869659  0.9525546700322919  0.37609601406331444  1.0000
  C   C33       1.0  0.19185297262292514  0.012218277512495499  0.3964313943374194  1.0000
  C   C34       1.0  0.13217758795116197  0.0176145478550396  0.4282647055109621  1.0000
  C   C35       1.0  0.06911393584059769  0.9642835381682886  0.4392629688190937  1.0000
  C   C36       1.0  0.07335150598959218  0.9050141399831871  0.41842561231595  1.0000
  C   C37       1.0  0.6397530818246436  0.8889125218107949  0.399500951635666  1.0000
  C   C38       1.0  0.6095984201402443  0.9379969206856342  0.3717891427413633  1.0000
  C   C39       1.0  0.6801444745656083  0.9938581557399858  0.374847646291613  1.0000
  C   C40       1.0  0.7728004411378675  0.002370452238842799  0.40620194025379414  1.0000
  C   C41       1.0  0.7984823645770333  0.9553107408124291  0.4354021945591454  1.0000
  C   C42       1.0  0.7288696818201927  0.8985473969004901  0.4317568870839992  1.0000
  C   C43       1.0  0.7820869223282328  0.9733907214717515  0.6359908304281986  1.0000
  C   C44       1.0  0.7153376697807514  0.030296084366781894  0.6367121110524465  1.0000
  C   C45       1.0  0.7167225500208116  0.07559640329510837  0.6068846638331563  1.0000
  C   C46       1.0  0.7775012015743882  0.0626093703557018  0.5759373567526538  1.0000
  C   C47       1.0  0.8465868652943411  0.0058992727498150994  0.5754920923601077  1.0000
  C   C48       1.0  0.8462038164069978  0.9612799205316449  0.6057800406317426  1.0000
  C   C49       1.0  0.2810143515365978  0.9597302808810683  0.6285899907895497  1.0000
  C   C50       1.0  0.3046430577267856  0.022726388188168297  0.6447208732334175  1.0000
  C   C51       1.0  0.2291592660293276  0.0733834449670354  0.6304678531182049  1.0000
  C   C52       1.0  0.13723836942259027  0.06239093325577729  0.599169384893365  1.0000
  C   C53       1.0  0.11801033699341447  0.00038545734319940224  0.5811324238940047  1.0000
  C   C54       1.0  0.1930221067623776  0.949195296892519  0.5961189915555636  1.0000
  C   C55       1.0  0.3439031216586769  0.36849644663716674  0.026482030185050597  1.0000
  C   C56       1.0  0.39619182191341196  0.3855711732665412  0.9941578050482461  1.0000
  C   C57       1.0  0.37882263826393364  0.3425137675136014  0.9614551703376221  1.0000
  C   C58       1.0  0.33369194261270246  0.27995097287277554  0.9639587611326875  1.0000
  C   C59       1.0  0.28472247643547627  0.26259050638480363  0.9964529242178415  1.0000
  C   C60       1.0  0.2842594193300271  0.3090984214938288  0.026546558205588194  1.0000
  C   C61       1.0  0.6780926239986727  0.7352373865105335  0.9636602834320909  1.0000
  C   C62       1.0  0.7864707005243685  0.74414948132398  0.9889299380743637  1.0000
  C   C63       1.0  0.8313891144197141  0.6902704717582395  0.011695431100974884  1.0000
  C   C64       1.0  0.7644474973829317  0.633506856010257  0.012404650397748193  1.0000
  C   C65       1.0  0.657452813420221  0.6244396995149301  0.9865950035333242  1.0000
  C   C66       1.0  0.6227639840816792  0.6741458772694883  0.9598645326665575  1.0000
  C   C67       1.0  0.29392254682342406  0.6400963996895327  0.9717813971133679  1.0000
  C   C68       1.0  0.39993920566427477  0.6273339716854239  0.997359212174871  1.0000
  C   C69       1.0  0.4412232443970509  0.6757786594086779  0.02565190283870318  1.0000
  C   C70       1.0  0.3901009721875893  0.7376914162831197  0.0242274571902499  1.0000
  C   C71       1.0  0.28511767753271033  0.7493367983822593  0.9992046250238503  1.0000
  C   C72       1.0  0.23486983633821976  0.6994968527795892  0.9738457844870111  1.0000
  C   C73       1.0  0.6912371294463638  0.3593240347119959  0.953951116342047  1.0000
  C   C74       1.0  0.651944063808095  0.38487050441543147  0.9872976738007679  1.0000
  C   C75       1.0  0.6877810548814692  0.35247125110967653  0.02276421479172089  1.0000
  C   C76       1.0  0.7519709506813894  0.2943946088137608  0.024171314949143194  1.0000
  C   C77       1.0  0.7717886878751156  0.26288972600922716  0.9893515350711581  1.0000
  C   C78       1.0  0.7408164579640015  0.2967401586040239  0.954114120964917  1.0000
  C   C79       1.0  0.2192618227784918  0.9922892682663189  0.18489749503133618  1.0000
  C   C80       1.0  0.26702856370342687  0.9480195025200472  0.160664518899587  1.0000
  C   C81       1.0  0.33961850535586535  0.8984777802567049  0.17831905702549727  1.0000
  C   C82       1.0  0.3626846014524929  0.8930981818566937  0.2191551553234277  1.0000
  C   C83       1.0  0.3226254511559928  0.9404866968434646  0.2437499600045712  1.0000
  C   C84       1.0  0.25278792882804874  0.9913469892350403  0.22560837038375328  1.0000
  C   C85       1.0  0.6845507802491041  0.12169139316115717  0.7810864076307098  1.0000
  C   C86       1.0  0.6020928074312905  0.07219642110970878  0.768209735134313  1.0000
  C   C87       1.0  0.5641207018837591  0.0349560022641882  0.7973466905839643  1.0000
  C   C88       1.0  0.6106798424009482  0.04480288125557759  0.8370553475617655  1.0000
  C   C89       1.0  0.7136554502507618  0.08253497143916629  0.8483073009786892  1.0000
  C   C90       1.0  0.7454476415053221  0.1233846750730407  0.8196947565511434  1.0000
  Br  Br1       1.0  0.0070145036239353  0.8299068633493007  0.43627649718808925  1.0000
  Br  Br2       1.0  0.1445859777010128  0.8186791761342673  0.3604612901006162  1.0000
  Br  Br3       1.0  0.1435054816523618  0.09659227415063748  0.4581057259820085  1.0000
  Br  Br4       1.0  0.27025479654669476  0.0850694296296552  0.3802138974917639  1.0000
  Br  Br5       1.0  0.7470383079881132  0.8372695640587364  0.4726315791538269  1.0000
  Br  Br6       1.0  0.553896502373938  0.8098434590062236  0.3928712169681532  1.0000
  Br  Br7       1.0  0.853830482232503  0.08251382881006458  0.41268421147560724  1.0000
  Br  Br8       1.0  0.6409837884954682  0.06085785348864901  0.33814018361744747  1.0000
  Br  Br9       1.0  0.9216493368449077  0.8802223235174154  0.6027903890967394  1.0000
  Br  Br10      1.0  0.7764792463598269  0.910584425545828  0.6749572518510121  1.0000
  Br  Br11      1.0  0.7586502893895924  0.11997244884103252  0.5330856345290798  1.0000
  Br  Br12      1.0  0.632768025819601  0.15464204171918536  0.6092444006319083  1.0000
  Br  Br13      1.0  0.18458977609500946  0.866929728553728  0.569869536684692  1.0000
  Br  Br14      1.0  0.3753830670848328  0.8898630110592265  0.6508058792731077  1.0000
  Br  Br15      1.0  0.04845550331064169  0.13378292023735128  0.5771065201854313  1.0000
  Br  Br16      1.0  0.26146262600531855  0.1583135888553215  0.6518135607759274  1.0000
  Br  Br17      1.0  0.1932480991939372  0.2927375520711095  0.0661106965601235  1.0000
  Br  Br18      1.0  0.3496572589037115  0.42675138682592023  0.06981155040345038  1.0000
  Br  Br19      1.0  0.34323561840638206  0.21768959145784084  0.9232546680617942  1.0000
  Br  Br20      1.0  0.4022680499942267  0.3726335053560702  0.9123312860778937  1.0000
  Br  Br21      1.0  0.5037872111667737  0.6555272596837939  0.916554526297922  1.0000
  Br  Br22      1.0  0.593033561192513  0.8035183391020766  0.9355722969796787  1.0000
  Br  Br23      1.0  0.8165620432526095  0.5690357550688886  0.05005094663208349  1.0000
  Br  Br24      1.0  0.9845956885912128  0.6904426490289095  0.0416578276893134  1.0000
  Br  Br25      1.0  0.08999487806599397  0.7168962008943679  0.941659993364361  1.0000
  Br  Br26      1.0  0.23111150734171554  0.5783857515034752  0.9324177597044709  1.0000
  Br  Br27      1.0  0.4644321411265722  0.8081076170069537  0.05467716264760719  1.0000
  Br  Br28      1.0  0.5595218615846419  0.6555746171366222  0.06830329963456448  1.0000
  Br  Br29      1.0  0.7595396409003354  0.2585497952690829  0.9055657436226738  1.0000
  Br  Br30      1.0  0.6864141308144267  0.41198563589102827  0.9093026753808856  1.0000
  Br  Br31      1.0  0.8215352577514706  0.2624191229650349  0.07333812682671949  1.0000
  Br  Br32      1.0  0.6571861824162964  0.39267522699832097  0.0695648041133197  1.0000
  Br  Br33      1.0  0.20828038174401084  0.06223647870843508  0.2559533063578527  1.0000
  Br  Br34      1.0  0.10322784791230788  0.05076052589956249  0.1616130120228405  1.0000
  Br  Br35      1.0  0.4445047602073798  0.8189805576214366  0.24145816892674787  1.0000
  Br  Br36      1.0  0.4048306807105674  0.8388904355842753  0.1456664544264683  1.0000
  Br  Br37      1.0  0.8738114598155915  0.18279030583342146  0.8302964084982207  1.0000
  Br  Br38      1.0  0.7094465388850819  0.18723561893541776  0.7454125724566296  1.0000
  Br  Br39      1.0  0.5304222848001529  0.009967455909048798  0.8749667117862997  1.0000
  Br  Br40      1.0  0.45441618317018845  0.9665347424438905  0.7830074575423467  1.0000
  O   O1        1.0  0.08842747665018887  0.13164768733346924  0.9006832902016199  1.0000
  O   O2        1.0  0.9065848462381749  0.18799101389539166  0.9686219287710713  1.0000
  O   O3        1.0  0.8651054263222162  0.11104201821309088  0.903232118351653  1.0000
  O   O4        1.0  0.2658951984179793  0.16064473689603176  0.0256453184026668  1.0000
  O   O5        1.0  0.7844640046884875  0.011179073526754698  0.8987652701912268  1.0000
  O   O6        1.0  0.1421546703617622  0.18550982235522892  0.9699511092821496  1.0000
  O   O7        1.0  0.8013369345429453  0.15480145771215348  0.01369338323779352  1.0000
  O   O8        1.0  0.8980038907692673  0.0437071888124336  0.9771463442761998  1.0000
  O   O9        1.0  0.04049396253246579  0.11824968189822022  0.0214876534279966  1.0000
  O   O10       1.0  0.023479618434627994  0.007737818771907698  0.924714434156904  1.0000
  O   O11       1.0  0.16217998108950837  0.048439784675999  0.9823841127848497  1.0000
  O   O12       1.0  0.385037723583231  0.0476963876460488  0.0403036020411207  1.0000
  O   O13       1.0  0.6958043291534962  0.041834779037692685  0.014935883747341396  1.0000
  O   O14       1.0  0.05655609204125509  0.007757244245887299  0.0524453580052295  1.0000
  O   O15       1.0  0.8737077584022185  0.9487410364535264  0.021940102212980185  1.0000
  O   O16       1.0  0.032216126409274196  0.9221674372856011  0.9789077195268446  1.0000
  O   O17       1.0  0.22162862986147044  0.9513227896230058  0.025560655015006286  1.0000
  O   O18       1.0  0.6911727149040914  0.9590866024703286  0.9585916620366534  1.0000
  O   O19       1.0  0.8248262338811185  0.8466285585460299  0.9628699860232428  1.0000
  O   O20       1.0  0.9266307110537184  0.8213641855604263  0.021345321821485193  1.0000
  O   O21       1.0  0.2599570299863955  0.9877671298664409  0.9122263912020472  1.0000
  O   O22       1.0  0.16419624662334087  0.8247420835562451  0.0259639153332856  1.0000
  O   O23       1.0  0.8894178050690797  0.8966240921277802  0.9003975833783215  1.0000
  O   O24       1.0  0.1071545637539586  0.8843348708006076  0.9078713379799481  1.0000
  O   O25       1.0  0.3809549214847152  0.9730168917384387  0.9797939848975331  1.0000
  O   O26       1.0  0.2490143062614294  0.8546661123309249  0.9744219527672868  1.0000
  O   O27       1.0  0.9744188187652153  0.8629102707193254  0.08989970322956957  1.0000
  O   O28       1.0  0.18541225294544003  0.12721517709304916  0.0915531830529659  1.0000
  O   O29       1.0  0.17436343548811098  0.9092203400990256  0.0980748849910569  1.0000
  O   O30       1.0  0.27672458709907494  0.0034656977154696993  0.1017090136093159  1.0000
  O   O31       1.0  0.968816362109294  0.12697151775137877  0.08588128497481759  1.0000
  O   O32       1.0  0.829083543646874  0.0207978838428957  0.0855734619914443  1.0000
