data_image0
_chemical_formula_structural       Al4H40C68S8O48
_chemical_formula_sum              "Al4 H40 C68 S8 O48"
_cell_length_a       6.753900780397526
_cell_length_b       22.1735968001537
_cell_length_c       26.97829799784553
_cell_angle_alpha    102.18605999964433
_cell_angle_beta     92.63337948662446
_cell_angle_gamma    92.37763170722548

_space_group_name_H-M_alt    "P 1"
_space_group_IT_number       1

loop_
  _space_group_symop_operation_xyz
  'x, y, z'

loop_
  _atom_site_type_symbol
  _atom_site_label
  _atom_site_symmetry_multiplicity
  _atom_site_fract_x
  _atom_site_fract_y
  _atom_site_fract_z
  _atom_site_occupancy
  Al  Al1       1.0  0.18914289862716768  0.24618716958853068  0.7465561423937145  1.0000
  Al  Al2       1.0  0.8114288407526118  0.7520150148920165  0.2520248131654341  1.0000
  Al  Al3       1.0  0.6888801790017143  0.24525749179731796  0.744872820278978  1.0000
  Al  Al4       1.0  0.31161606123327357  0.7530614652424817  0.2536199837733335  1.0000
  H   H1        1.0  0.7561398433860305  0.6710571050296606  0.37007644212978624  1.0000
  H   H2        1.0  0.24486423042021238  0.3287455326840528  0.6293897036149545  1.0000
  H   H3        1.0  0.23820969180792417  0.8319861734282268  0.12977101546716344  1.0000
  H   H4        1.0  0.7624425299941323  0.16755379609492138  0.8693277220044918  1.0000
  H   H5        1.0  0.750289177049929  0.6088710055947216  0.43737142403981005  1.0000
  H   H6        1.0  0.2504616302944597  0.3912590415191984  0.562315094082976  1.0000
  H   H7        1.0  0.2344392128179535  0.8933346191903269  0.06222053766403951  1.0000
  H   H8        1.0  0.7667369016905284  0.10686297376469156  0.9372819996048563  1.0000
  H   H9        1.0  0.36446781032831416  0.6281849508440942  0.3470841022236471  1.0000
  H   H10       1.0  0.6363317823892629  0.37130220284850407  0.6524415901972206  1.0000
  H   H11       1.0  0.8633056142191363  0.877247216805806  0.159270886749141  1.0000
  H   H12       1.0  0.13774483200488422  0.12158920550878352  0.8397932302412842  1.0000
  H   H13       1.0  0.3143712409433946  0.5637410931673728  0.5037970289890624  1.0000
  H   H14       1.0  0.6861476350063429  0.43641797158304735  0.4960911434187096  1.0000
  H   H15       1.0  0.7349377184883324  0.03475135202169351  0.0750547938514998  1.0000
  H   H16       1.0  0.2672568480541245  0.9650263059005653  0.924403361420481  1.0000
  H   H17       1.0  0.2674156623363189  0.4984899285494037  0.5656214011102351  1.0000
  H   H18       1.0  0.7331534393410308  0.5016546817719956  0.43427808692432274  1.0000
  H   H19       1.0  0.6868476492352472  0.10136868588264751  0.014116540867569001  1.0000
  H   H20       1.0  0.31559110476323576  0.898363659728609  0.9853092456772002  1.0000
  H   H21       1.0  0.6574793070083519  0.4864703562776425  0.9638978034299938  1.0000
  H   H22       1.0  0.3480850643498883  0.5146691146071731  0.03305679845920649  1.0000
  H   H23       1.0  0.2813218809286155  0.9572299725203662  0.5536464480167352  1.0000
  H   H24       1.0  0.7204569117907769  0.04329195226810609  0.44385324156263545  1.0000
  H   H25       1.0  0.4897410785682936  0.562982800507676  0.39141626806253527  1.0000
  H   H26       1.0  0.5107519429059763  0.43663822312478817  0.60829196539418  1.0000
  H   H27       1.0  0.002708187361186302  0.936957498982288  0.11166978789987779  1.0000
  H   H28       1.0  0.998536654833899  0.06262519083381327  0.8880131125836855  1.0000
  H   H29       1.0  0.6168318400898373  0.59699210812785  0.9292555998062824  1.0000
  H   H30       1.0  0.07517848074643753  0.4184296625936455  0.1027728829352981  1.0000
  H   H31       1.0  0.7624359473696247  0.980190403737438  0.6209875892813556  1.0000
  H   H32       1.0  0.23913714160021027  0.020626530963362182  0.3763439384237586  1.0000
  H   H33       1.0  0.1295259251067904  0.604402874386679  0.9022911177963308  1.0000
  H   H34       1.0  0.5384855513825997  0.39135814468544083  0.038772990356399396  1.0000
  H   H35       1.0  0.7465298013833037  0.10678292865504345  0.6361799315772173  1.0000
  H   H36       1.0  0.25506820661365737  0.8930614516463251  0.3614149900259989  1.0000
  H   H37       1.0  0.45805477847476794  0.3257203567265066  0.7694618711785778  1.0000
  H   H38       1.0  0.5422157320655003  0.6727647146686381  0.2289130743717749  1.0000
  H   H39       1.0  0.9315462710694717  0.17257176447755274  0.7593125329407825  1.0000
  H   H40       1.0  0.06870093682380228  0.8254369783852552  0.23873472114041755  1.0000
  C   C1        1.0  0.407093997311705  0.17067027770359286  0.6672480811740017  1.0000
  C   C2        1.0  0.5935477293162208  0.8284719167022346  0.3308920210811265  1.0000
  C   C3        1.0  0.9642593364403924  0.32444161357912543  0.8232224334364061  1.0000
  C   C4        1.0  0.0361524496733949  0.6734951976493588  0.17550727177594888  1.0000
  C   C5        1.0  0.4461009903015309  0.18070154164691837  0.8073117159821664  1.0000
  C   C6        1.0  0.5549470845735202  0.8176165739342309  0.19122554496215116  1.0000
  C   C7        1.0  0.9346190689186074  0.31050147101412756  0.6853997228309013  1.0000
  C   C8        1.0  0.0660458096314613  0.6886796734884228  0.3137864151612034  1.0000
  C   C9        1.0  0.8849347720823886  0.6463920565286327  0.37885184765052327  1.0000
  C   C10       1.0  0.11601849163445621  0.3534360947689237  0.6207191771400815  1.0000
  C   C11       1.0  0.3729435855594616  0.8561335806030141  0.12181432005895938  1.0000
  C   C12       1.0  0.6279972480973868  0.1433277473212371  0.8773224130098286  1.0000
  C   C13       1.0  0.8816678004302577  0.6109415339710155  0.41558041908704274  1.0000
  C   C14       1.0  0.11914482738380629  0.38907383114933936  0.584112851686143  1.0000
  C   C15       1.0  0.3721026326376916  0.8902754021170407  0.0841596588936397  1.0000
  C   C16       1.0  0.6290869046147094  0.10952794151654635  0.9152026292417901  1.0000
  C   C17       1.0  0.0460972776051349  0.5785912290186204  0.4275952748197084  1.0000
  C   C18       1.0  0.9546643836958638  0.42147109670885635  0.5722114651752931  1.0000
  C   C19       1.0  0.5429805826824676  0.9226974035450297  0.07336462888298459  1.0000
  C   C20       1.0  0.458570375332954  0.07699808154233516  0.9260712177468376  1.0000
  C   C21       1.0  0.2218241407236406  0.585873909647141  0.4023661619716847  1.0000
  C   C22       1.0  0.7789031154649139  0.41401726057291194  0.5974051261295585  1.0000
  C   C23       1.0  0.7219331704604743  0.9167844108963832  0.10103881343533769  1.0000
  C   C24       1.0  0.27944111917446435  0.08270945867825215  0.8983959600801583  1.0000
  C   C25       1.0  0.22836524167618683  0.6228340408940339  0.3664737823573603  1.0000
  C   C26       1.0  0.7724889322575024  0.37683418824778403  0.6331338263270821  1.0000
  C   C27       1.0  0.7245079387656973  0.8816680218820138  0.1382727324335278  1.0000
  C   C28       1.0  0.2765710231231466  0.11744655701479449  0.8608897659314678  1.0000
  C   C29       1.0  0.05985684058396859  0.6521398621497169  0.35379198572842807  1.0000
  C   C30       1.0  0.9410660820963983  0.3474789826364314  0.6457045812801566  1.0000
  C   C31       1.0  0.550655561530192  0.8522592482493679  0.1497062547253734  1.0000
  C   C32       1.0  0.450293833145011  0.14672695101247502  0.8492256292516202  1.0000
  C   C33       1.0  0.1770065694011009  0.5356172551057128  0.5015713960171908  1.0000
  C   C34       1.0  0.8234836318575846  0.4645914483285907  0.49835755628899386  1.0000
  C   C35       1.0  0.6330603036582191  0.018980662813341105  0.0419777293702879  1.0000
  C   C36       1.0  0.3691850899331328  0.9807549411147177  0.9574649311926533  1.0000
  C   C37       1.0  0.1499576795678337  0.498413741279684  0.5364839034404483  1.0000
  C   C38       1.0  0.8505426074896008  0.5017922694150272  0.4634409638452582  1.0000
  C   C39       1.0  0.6061175965445288  0.056502461339071886  0.007233428553732302  1.0000
  C   C40       1.0  0.3963266395565768  0.9432300340322469  0.9921814553513641  1.0000
  C   C41       1.0  0.9734788431611322  0.4620040678279622  0.5356052191760838  1.0000
  C   C42       1.0  0.0270152524305374  0.5381720988588228  0.46431012626273827  1.0000
  C   C43       1.0  0.47434199178302094  0.03828870716165504  0.964191596049659  1.0000
  C   C44       1.0  0.5278410076094318  0.9614626680898795  0.03526647655127141  1.0000
  C   C45       1.0  0.8102765181649689  0.493208683871778  0.9797193327377299  1.0000
  C   C46       1.0  0.1949935882343325  0.5082010637010868  0.0173520206960163  1.0000
  C   C47       1.0  0.38033678874619886  0.9763031057675066  0.5293819327575022  1.0000
  C   C48       1.0  0.6215211565447805  0.024173375057244983  0.46810970469584123  1.0000
  C   C49       1.0  0.9457425130599759  0.5541478000562207  0.9864402254472252  1.0000
  C   C50       1.0  0.0624883126218165  0.44760253217835083  0.010478544190831897  1.0000
  C   C51       1.0  0.6013228073915187  0.9599228272766567  0.5212340318521171  1.0000
  C   C52       1.0  0.40044908419188374  0.04056201186149618  0.47628249846412973  1.0000
  C   C53       1.0  0.030675735047267904  0.6299759114678948  0.12722187479327826  1.0000
  C   C54       1.0  0.9698557356214224  0.36855608747659824  0.8712097698574297  1.0000
  C   C55       1.0  0.6071988762272228  0.8690016820105055  0.38002465315235406  1.0000
  C   C56       1.0  0.3940158258346429  0.13092503521263407  0.6177815709400747  1.0000
  C   C57       1.0  0.8843585478712087  0.4853294303268001  0.0335503630262863  1.0000
  C   C58       1.0  0.12117004750335517  0.5150624170343078  0.9633197984467612  1.0000
  C   C59       1.0  0.3410225000664582  0.9700735209458812  0.4711363092033594  1.0000
  C   C60       1.0  0.6606776149770043  0.03040199561880999  0.5263400167980451  1.0000
  C   C61       1.0  0.020796039099806807  0.5472642988766198  0.041688842825237805  1.0000
  C   C62       1.0  0.9846116705187596  0.4536797721136451  0.9553466370569481  1.0000
  C   C63       1.0  0.562593234167352  0.9531491659053514  0.4617431763949753  1.0000
  C   C64       1.0  0.43921053341900773  0.047335394499540856  0.5357559235593142  1.0000
  C   C65       1.0  0.031246549726446898  0.5932889535439329  0.0868708052108929  1.0000
  C   C66       1.0  0.9711978867774893  0.4067284819821637  0.9107834069328292  1.0000
  C   C67       1.0  0.6046151406876703  0.9061947607899368  0.420014374859349  1.0000
  C   C68       1.0  0.3970557891496327  0.09417484173592064  0.5775521455467681  1.0000
  S   S1        1.0  0.8882536138570246  0.6270674440827761  0.97211335669639  1.0000
  S   S2        1.0  0.1542784598405404  0.37980840037148067  0.0256575503414425  1.0000
  S   S3        1.0  0.7152905755024436  0.9073020612323576  0.5538455265940101  1.0000
  S   S4        1.0  0.28701208535210304  0.09326204459981816  0.44365690919715917  1.0000
  S   S5        1.0  0.28968180212536515  0.5318408820597682  0.9193676032280962  1.0000
  S   S6        1.0  0.7451627781940715  0.4658350077863034  0.082513153229371  1.0000
  S   S7        1.0  0.8633859447560325  0.07474710805033881  0.5617998933975558  1.0000
  S   S8        1.0  0.1382592408531309  0.9257960216841069  0.43567255278207984  1.0000
  O   O1        1.0  0.6140036983857657  0.19669060384072168  0.7927247553331326  1.0000
  O   O2        1.0  0.38701573828694086  0.8016116182591873  0.20578288601837613  1.0000
  O   O3        1.0  0.1007459945953286  0.2997761949956512  0.7054382687801422  1.0000
  O   O4        1.0  0.8996387469076838  0.699283997531644  0.29384463553497403  1.0000
  O   O5        1.0  0.24714514234735677  0.19012306882014227  0.6856838654081584  1.0000
  O   O6        1.0  0.7533123585696871  0.8087722867614953  0.31253616043139226  1.0000
  O   O7        1.0  0.7925199536684248  0.3104101864684877  0.8015383450010773  1.0000
  O   O8        1.0  0.20805647609742553  0.6878117748683081  0.1970270364641706  1.0000
  O   O9        1.0  0.276379436196251  0.19067657147388667  0.788413085972607  1.0000
  O   O10       1.0  0.7246749906516284  0.8071632872903504  0.20979866644842102  1.0000
  O   O11       1.0  0.7647244697006385  0.29277709387802986  0.6976850671696014  1.0000
  O   O12       1.0  0.23570195161558158  0.7060852945744998  0.30117612025461676  1.0000
  O   O13       1.0  0.1302556500490439  0.30521234019708726  0.8080296353402118  1.0000
  O   O14       1.0  0.8700718186150597  0.6922696943354225  0.19108990498095582  1.0000
  O   O15       1.0  0.5830776324329747  0.18106967271648944  0.6883065216265222  1.0000
  O   O16       1.0  0.4173628309594548  0.8176706825329274  0.31002815030387143  1.0000
  O   O17       1.0  0.44556248096064627  0.28306659056838146  0.7510133934231787  1.0000
  O   O18       1.0  0.5548311312143498  0.7152478351854158  0.2477606519825528  1.0000
  O   O19       1.0  0.9336374335968929  0.20772871301814885  0.7431565844819303  1.0000
  O   O20       1.0  0.0668967121406965  0.790540596997282  0.2551968691805158  1.0000
  O   O21       1.0  0.38420583513432394  0.5545749090644349  0.4129176613095211  1.0000
  O   O22       1.0  0.616486264829547  0.4453538974095108  0.5869652555266711  1.0000
  O   O23       1.0  0.8926839613223623  0.9456572252057495  0.08996859105211288  1.0000
  O   O24       1.0  0.1087857500923661  0.0540068073912252  0.9096860036622871  1.0000
  O   O25       1.0  0.7809773529149098  0.6601512216113079  0.012787536405419096  1.0000
  O   O26       1.0  0.0720594373685586  0.6535980735609854  0.957919286991604  1.0000
  O   O27       1.0  0.7594152935269137  0.6078175662978538  0.9210571752503895  1.0000
  O   O28       1.0  0.0120257740027796  0.3291364060864339  0.0098632279413522  1.0000
  O   O29       1.0  0.3513053173115352  0.3745313309104856  0.005462188214849599  1.0000
  O   O30       1.0  0.19473166914451673  0.3996068701352939  0.08476409748714528  1.0000
  O   O31       1.0  0.5911065171400338  0.8517822819695694  0.5439604951731313  1.0000
  O   O32       1.0  0.9244657001572635  0.9070365868415918  0.5467561254673611  1.0000
  O   O33       1.0  0.6769838323237779  0.9418115396027886  0.6111686896795163  1.0000
  O   O34       1.0  0.07773555141619681  0.09371574831496328  0.4505994446445527  1.0000
  O   O35       1.0  0.4116786310292468  0.14868565355598654  0.4536619320354873  1.0000
  O   O36       1.0  0.3255743734904613  0.05875969507646769  0.3863392193568345  1.0000
  O   O37       1.0  0.42885557473500324  0.578163410312591  0.9506792044698003  1.0000
  O   O38       1.0  0.363506351514701  0.47609026691032597  0.8911928851953661  1.0000
  O   O39       1.0  0.1664868827662858  0.5629279881359252  0.8818693742307815  1.0000
  O   O40       1.0  0.8922580243772629  0.46279780228924483  0.12290977421251627  1.0000
  O   O41       1.0  0.586600778556182  0.5071160080506587  0.09245672471596578  1.0000
  O   O42       1.0  0.6716969074828754  0.3979063538616857  0.06019860944138599  1.0000
  O   O43       1.0  0.03539358734828819  0.03988534838182996  0.5512132397063211  1.0000
  O   O44       1.0  0.8509068250693232  0.1376111761970691  0.5571832734731147  1.0000
  O   O45       1.0  0.8169009620848657  0.07017368662678078  0.6195204837099552  1.0000
  O   O46       1.0  0.14988986153743167  0.8630234691810587  0.44060486743121874  1.0000
  O   O47       1.0  0.9665985307436743  0.9609107593497157  0.4460215692232197  1.0000
  O   O48       1.0  0.1852760240202187  0.9299168840071415  0.3778981723440822  1.0000
