data_image0
_chemical_formula_structural       Mo4H72C68N16O16
_chemical_formula_sum              "Mo4 H72 C68 N16 O16"
_cell_length_a       13.125032084909693
_cell_length_b       13.631088539276865
_cell_length_c       13.630978104474954
_cell_angle_alpha    82.3197020842098
_cell_angle_beta     72.76010591913263
_cell_angle_gamma    72.76001395509833

_space_group_name_H-M_alt    "P 1"
_space_group_IT_number       1

loop_
  _space_group_symop_operation_xyz
  'x, y, z'

loop_
  _atom_site_type_symbol
  _atom_site_label
  _atom_site_symmetry_multiplicity
  _atom_site_fract_x
  _atom_site_fract_y
  _atom_site_fract_z
  _atom_site_occupancy
  Mo  Mo1       1.0  0.9914998053839525  0.21800436534898893  0.5958829961096939  1.0000
  Mo  Mo2       1.0  0.5085075774279488  0.4041144876299256  0.781996030829589  1.0000
  Mo  Mo3       1.0  0.008499495695737432  0.7819920936001238  0.40411884674843185  1.0000
  Mo  Mo4       1.0  0.4914946624917533  0.595882789048801  0.218004849366018  1.0000
  H   H1        1.0  0.3098782489243561  0.0236127495010408  0.6351986561557936  1.0000
  H   H2        1.0  0.190120710970227  0.36480291098925477  0.9763858311585735  1.0000
  H   H3        1.0  0.6901237741913562  0.9763799048574313  0.3647948333009552  1.0000
  H   H4        1.0  0.8098796294257441  0.6352005176919562  0.02361478056054967  1.0000
  H   H5        1.0  0.40645734837777764  0.7949034705476948  0.4051933384034001  1.0000
  H   H6        1.0  0.09354422760636534  0.5948051176195933  0.2050978958384633  1.0000
  H   H7        1.0  0.5935470744460858  0.205096943990334  0.5947998866483388  1.0000
  H   H8        1.0  0.9064545294954199  0.40519828523820683  0.7949039128546505  1.0000
  H   H9        1.0  0.24369507954516217  0.886033114286036  0.3470915100792666  1.0000
  H   H10       1.0  0.2563027261136596  0.6529097186954685  0.11397054591842695  1.0000
  H   H11       1.0  0.7563082445575448  0.11396573351046871  0.6529044439106287  1.0000
  H   H12       1.0  0.7436981660659115  0.34709449262712866  0.8860290675428715  1.0000
  H   H13       1.0  0.0810874295690382  0.021533785779034496  0.3524735822310845  1.0000
  H   H14       1.0  0.41891139377587183  0.6475281019397271  0.9784688783696183  1.0000
  H   H15       1.0  0.9189107515189009  0.9784688417311287  0.6475255626072568  1.0000
  H   H16       1.0  0.5810914796761465  0.3524722765636383  0.021530670613756804  1.0000
  H   H17       1.0  0.8168317124531086  0.22530866609322686  0.27336992429823675  1.0000
  H   H18       1.0  0.6831599656593138  0.726635120237191  0.7746919988365447  1.0000
  H   H19       1.0  0.1831679126618225  0.7746893415800785  0.726632351587547  1.0000
  H   H20       1.0  0.31684106282781227  0.2733660087368364  0.22530505144866445  1.0000
  H   H21       1.0  0.6710572884817408  0.34161826425488334  0.19623022474686996  1.0000
  H   H22       1.0  0.8289345588352433  0.8037717349356795  0.6583845477396864  1.0000
  H   H23       1.0  0.3289429556273617  0.658382849619315  0.8037685226591194  1.0000
  H   H24       1.0  0.17106598023280384  0.196230936415219  0.3416102381588431  1.0000
  H   H25       1.0  0.5598775695888277  0.540128674248173  0.4329855320399929  1.0000
  H   H26       1.0  0.9401210097404019  0.5670150918697489  0.4598751226888068  1.0000
  H   H27       1.0  0.4401158780411052  0.45986614194794834  0.5670218982557601  1.0000
  H   H28       1.0  0.0598799466900957  0.4329837150035232  0.5401237253958655  1.0000
  H   H29       1.0  0.6940815521871501  0.4275648106375343  0.5256712218771681  1.0000
  H   H30       1.0  0.8059152611806724  0.47433394900096454  0.5724370226135065  1.0000
  H   H31       1.0  0.3059149851284815  0.5724277365633837  0.4743348798475324  1.0000
  H   H32       1.0  0.19408283815854335  0.5256663593259461  0.42756245517925606  1.0000
  H   H33       1.0  0.4800454274203859  0.7068997492715425  0.5082292768035259  1.0000
  H   H34       1.0  0.019950346755976494  0.4917744554406411  0.29310272310372915  1.0000
  H   H35       1.0  0.5199510934706949  0.2931005317732128  0.4917721303857476  1.0000
  H   H36       1.0  0.9800523037937269  0.5082266876867862  0.7068989895876354  1.0000
  H   H37       1.0  0.5592512211760124  0.7049893405639196  0.5928023079483465  1.0000
  H   H38       1.0  0.9407465161465752  0.4071988630065775  0.2950142982633109  1.0000
  H   H39       1.0  0.4407489654146133  0.2950094468332694  0.407200434524654  1.0000
  H   H40       1.0  0.05924779572369938  0.5928060169402087  0.7049886046893761  1.0000
  H   H41       1.0  0.6041581568261805  0.7936110500682717  0.3683790953716795  1.0000
  H   H42       1.0  0.8958404016585109  0.6316179705452213  0.20639036823978077  1.0000
  H   H43       1.0  0.39583938103733385  0.20638847853475537  0.6316199158338662  1.0000
  H   H44       1.0  0.10416319192059828  0.3683878275072984  0.7936082489994405  1.0000
  H   H45       1.0  0.6799207280435553  0.6747612821852371  0.4134987828656734  1.0000
  H   H46       1.0  0.8200793258917188  0.5865018268262432  0.32523650747789634  1.0000
  H   H47       1.0  0.3200772992390455  0.3252367040409112  0.5865024927265523  1.0000
  H   H48       1.0  0.1799279285408915  0.41350247903746146  0.6747627126225382  1.0000
  H   H49       1.0  0.6854034819247943  0.7912550523146961  0.45360393957710693  1.0000
  H   H50       1.0  0.8145910829343349  0.5464015537123288  0.20874290313963684  1.0000
  H   H51       1.0  0.3145927100850088  0.2087436814646112  0.5463963021619948  1.0000
  H   H52       1.0  0.18541282014186322  0.45360579744064466  0.7912539498596871  1.0000
  H   H53       1.0  0.5827333446938  0.8615294251098716  0.6253361584727841  1.0000
  H   H54       1.0  0.9172716471268174  0.3746616703786287  0.13847002099392822  1.0000
  H   H55       1.0  0.4172680078285609  0.13847325258835497  0.3746613248400834  1.0000
  H   H56       1.0  0.08272686768845011  0.6253425029382385  0.8615310217171057  1.0000
  H   H57       1.0  0.47660700750721935  0.9756361383700849  0.6243628954592921  1.0000
  H   H58       1.0  0.023397174462395816  0.37563342649497133  0.024363257067108214  1.0000
  H   H59       1.0  0.5233929797772277  0.024365750339427405  0.37563288869705497  1.0000
  H   H60       1.0  0.9766004742261387  0.6243684125388073  0.9756398157191271  1.0000
  H   H61       1.0  0.3430660380244675  0.8906649809911116  0.7628732142800061  1.0000
  H   H62       1.0  0.1569367422928067  0.23712539281762451  0.10934137430288618  1.0000
  H   H63       1.0  0.6569303126367174  0.1093383926134663  0.2371256291277319  1.0000
  H   H64       1.0  0.8430608343390986  0.7628741241153917  0.8906634962828122  1.0000
  H   H65       1.0  0.4556884823968018  0.9014736015812944  0.8041756114055616  1.0000
  H   H66       1.0  0.044316461677773616  0.19582562278532117  0.09853212400102511  1.0000
  H   H67       1.0  0.5443100178803277  0.09853057611181977  0.19582323403791688  1.0000
  H   H68       1.0  0.9556769743736598  0.804176925795879  0.9014713441818214  1.0000
  H   H69       1.0  0.45770908415740746  0.7812025592184854  0.7663708907453283  1.0000
  H   H70       1.0  0.042295468313369576  0.23363068875015364  0.2188026608333402  1.0000
  H   H71       1.0  0.5422901956516881  0.21880163503320924  0.23362552515485652  1.0000
  H   H72       1.0  0.9576988532489988  0.7663741882791301  0.7812017069643886  1.0000
  C   C1        1.0  0.18280125081360413  0.006063033804785802  0.4554299114973759  1.0000
  C   C2        1.0  0.3171963650871206  0.5445722905505123  0.9939372178118617  1.0000
  C   C3        1.0  0.8172035270081892  0.9939311912373513  0.5445706383850039  1.0000
  C   C4        1.0  0.6828039032522284  0.45542881602993646  0.006065191706724732  1.0000
  C   C5        1.0  0.20570943590039548  0.043390449014431516  0.5375386494969945  1.0000
  C   C6        1.0  0.2942911798572539  0.46246178215553607  0.9566091841297322  1.0000
  C   C7        1.0  0.7942888239766219  0.9566067696701596  0.4624619272322689  1.0000
  C   C8        1.0  0.7057080424333648  0.5375400856191419  0.043391226837464006  1.0000
  C   C9        1.0  0.2981592458889891  0.991883811639724  0.5716290460905922  1.0000
  C   C10       1.0  0.20183975029280535  0.42837319482261893  0.008113840390052477  1.0000
  C   C11       1.0  0.7018398626169642  0.008108017695370503  0.42836906814125797  1.0000
  C   C12       1.0  0.7981593163060695  0.5716317611356345  0.9918862040631636  1.0000
  C   C13       1.0  0.372489407971017  0.9002516747007477  0.5269816307495886  1.0000
  C   C14       1.0  0.12750820956647155  0.4730176933937925  0.09974681021590467  1.0000
  C   C15       1.0  0.6275121596479636  0.0997425118233366  0.47301472127811195  1.0000
  C   C16       1.0  0.8724926729210054  0.5269865208463002  0.900251338400359  1.0000
  C   C17       1.0  0.35097084573887116  0.8635688854022592  0.44374724460543286  1.0000
  C   C18       1.0  0.14902671356945518  0.5562530840866772  0.1364318836487328  1.0000
  C   C19       1.0  0.6490315976989507  0.13642763248741122  0.556248542192108  1.0000
  C   C20       1.0  0.8509713215188413  0.443752628689559  0.8635683595206557  1.0000
  C   C21       1.0  0.259604343389391  0.9154795417161241  0.41012448821318515  1.0000
  C   C22       1.0  0.2403916168304647  0.5898820935243377  0.08452163524812316  1.0000
  C   C23       1.0  0.7403955046278624  0.08451770133311949  0.5898756239646018  1.0000
  C   C24       1.0  0.7596069748874827  0.410124400434526  0.9154783420859685  1.0000
  C   C25       1.0  0.08994786805340028  0.05452813370508382  0.41749181795854884  1.0000
  C   C26       1.0  0.4100509523355669  0.5825068787802224  0.9454741180781243  1.0000
  C   C27       1.0  0.9100550696495517  0.9454668403489634  0.582506965648186  1.0000
  C   C28       1.0  0.5899508896058665  0.4174942565411256  0.05452562962142338  1.0000
  C   C29       1.0  0.8616849549704851  0.26018847441376636  0.4472543801327402  1.0000
  C   C30       1.0  0.6383190414781056  0.5527424677707131  0.7398098675783801  1.0000
  C   C31       1.0  0.13831957571874642  0.7398065225461821  0.5527446713450388  1.0000
  C   C32       1.0  0.361682699330416  0.4472563542023806  0.26018728338551256  1.0000
  C   C33       1.0  0.7708605185136151  0.31970306996686304  0.4036970852091385  1.0000
  C   C34       1.0  0.7291321339695074  0.5963049258996805  0.6802985889942192  1.0000
  C   C35       1.0  0.22913829799304608  0.6802949299003699  0.596303225684828  1.0000
  C   C36       1.0  0.2708667594398265  0.40369539460955645  0.31970065652280516  1.0000
  C   C37       1.0  0.76071431325839  0.2942768395848105  0.31118855771865134  1.0000
  C   C38       1.0  0.7392752131168836  0.6888137101049737  0.7057257038962562  1.0000
  C   C39       1.0  0.2392849041861851  0.7057250296486259  0.6888111208260241  1.0000
  C   C40       1.0  0.2607242369221012  0.31118739158689823  0.2942732757854714  1.0000
  C   C41       1.0  0.6796259088786911  0.35922875177104874  0.26852415502069965  1.0000
  C   C42       1.0  0.82036456173131  0.731478828839812  0.6407708391838439  1.0000
  C   C43       1.0  0.32037306816576466  0.6407661584538644  0.731477254809768  1.0000
  C   C44       1.0  0.17963749342035126  0.268521544774984  0.3592252799626722  1.0000
  C   C45       1.0  0.617298277076557  0.4686763635121949  0.40140312118515453  1.0000
  C   C46       1.0  0.8826894091218093  0.5986000548754902  0.5313266509285484  1.0000
  C   C47       1.0  0.3826955617991814  0.5313223249676255  0.5986022119162726  1.0000
  C   C48       1.0  0.11730732982554308  0.40139946300395485  0.4686718601302147  1.0000
  C   C49       1.0  0.6941032040222409  0.4072862068263562  0.4511644648892386  1.0000
  C   C50       1.0  0.8058908328022696  0.5488405506063286  0.5927156448619472  1.0000
  C   C51       1.0  0.3058957827143161  0.5927087004810545  0.5488384097862635  1.0000
  C   C52       1.0  0.19410837010415344  0.45116132300335476  0.40728183641518  1.0000
  C   C53       1.0  0.5314640986571602  0.7481920736489727  0.5269873437777265  1.0000
  C   C54       1.0  0.9685333111087785  0.47301493054004606  0.25181150500041843  1.0000
  C   C55       1.0  0.46853632052788896  0.25180594620665897  0.47301469983231925  1.0000
  C   C56       1.0  0.0314688645599901  0.5269877505880061  0.7481901405718219  1.0000
  C   C57       1.0  0.630947612018609  0.7529129540685845  0.4354594540112728  1.0000
  C   C58       1.0  0.8690471605720447  0.5645403181165635  0.24708625266286785  1.0000
  C   C59       1.0  0.3690480185154854  0.24708499998683212  0.5645403211406119  1.0000
  C   C60       1.0  0.130957459671599  0.4354647245767255  0.7529114334376601  1.0000
  C   C61       1.0  0.49244869946092945  0.8919386148878915  0.6389824377071421  1.0000
  C   C62       1.0  0.007554205038601921  0.36102101484165416  0.10806320693850319  1.0000
  C   C63       1.0  0.5075513072077129  0.10806326798662273  0.3610162761392814  1.0000
  C   C64       1.0  0.9924456653224919  0.6389839503814159  0.8919380700840165  1.0000
  C   C65       1.0  0.4334822087258487  0.8646383162741316  0.7495251362568637  1.0000
  C   C66       1.0  0.06652168084905699  0.2504755399422153  0.13536617601448597  1.0000
  C   C67       1.0  0.5665154926351121  0.1353658506954005  0.250473209039832  1.0000
  C   C68       1.0  0.9334746122936578  0.7495255071853536  0.8646366624602704  1.0000
  N   N1        1.0  0.011775953979530088  0.1374096889490488  0.4552653169113441  1.0000
  N   N2        1.0  0.48822306885339384  0.5447335738317349  0.8625895146121819  1.0000
  N   N3        1.0  0.988225932828634  0.862586047757979  0.5447307357214938  1.0000
  N   N4        1.0  0.5117790153745574  0.4552667910305601  0.13741099906944493  1.0000
  N   N5        1.0  0.9327912758220406  0.17821616221191763  0.40287466148351575  1.0000
  N   N6        1.0  0.5672038927536819  0.5971254702710737  0.8217838350485424  1.0000
  N   N7        1.0  0.06720673692240813  0.8217818283904845  0.5971244168411473  1.0000
  N   N8        1.0  0.43279682623634835  0.40287410560250686  0.17821497947656442  1.0000
  N   N9        1.0  0.6100065104406126  0.44693260871542156  0.3107548104041626  1.0000
  N   N10       1.0  0.8899869920444844  0.6892478335667958  0.5530671162071881  1.0000
  N   N11       1.0  0.38999145447746036  0.553063052492469  0.6892497278325606  1.0000
  N   N12       1.0  0.11001425449891403  0.3107525322419207  0.44692703794750344  1.0000
  N   N13       1.0  0.4619186010481471  0.8494762247924682  0.5622291924165169  1.0000
  N   N14       1.0  0.03808186784208801  0.43777201133482885  0.15052745966900014  1.0000
  N   N15       1.0  0.5380805201095598  0.15052332963395543  0.43776862181502446  1.0000
  N   N16       1.0  0.9619205501131985  0.562229899334163  0.8494749518853268  1.0000
  O   O1        1.0  0.14010498729953005  0.12986167058895148  0.5835998939435783  1.0000
  O   O2        1.0  0.35990316948667095  0.4163919602262284  0.8701397994091522  1.0000
  O   O3        1.0  0.8598993634677042  0.8701364218483221  0.41639512890762387  1.0000
  O   O4        1.0  0.6400997088113982  0.583608416818393  0.12986048199673655  1.0000
  O   O5        1.0  0.8711374877553697  0.29629763182438046  0.5292060309860247  1.0000
  O   O6        1.0  0.6288692580633394  0.4707889772999182  0.7037100017914497  1.0000
  O   O7        1.0  0.12886421491887035  0.7036988578367056  0.47079804473496273  1.0000
  O   O8        1.0  0.3711322023243895  0.5292082828202282  0.2962933079474582  1.0000
  O   O9        1.0  0.9178101735306471  0.145346753718961  0.6848621556869431  1.0000
  O   O10       1.0  0.5821905895493131  0.31513438788440606  0.8546578795001308  1.0000
  O   O11       1.0  0.08219000336788443  0.8546520365957305  0.31513912194101573  1.0000
  O   O12       1.0  0.4178148266508473  0.6848629375236257  0.1453420715925304  1.0000
  O   O13       1.0  0.9874910814074481  0.32229627682936973  0.6577121639188801  1.0000
  O   O14       1.0  0.5125131258769856  0.3422835353222665  0.677706707536494  1.0000
  O   O15       1.0  0.012514668520047772  0.6777025943853585  0.34228968504647383  1.0000
  O   O16       1.0  0.4874855610545765  0.6577098159671948  0.3222993962239471  1.0000
