data_image0
_chemical_formula_structural       Na4H36C36S4N8O32
_chemical_formula_sum              "Na4 H36 C36 S4 N8 O32"
_cell_length_a       7.870490013915705
_cell_length_b       11.635844529
_cell_length_c       14.534
_cell_angle_alpha    90.0
_cell_angle_beta     91.06831050512845
_cell_angle_gamma    90.0

_space_group_name_H-M_alt    "P 1"
_space_group_IT_number       1

loop_
  _space_group_symop_operation_xyz
  'x, y, z'

loop_
  _atom_site_type_symbol
  _atom_site_label
  _atom_site_symmetry_multiplicity
  _atom_site_fract_x
  _atom_site_fract_y
  _atom_site_fract_z
  _atom_site_occupancy
  Na  Na1       1.0  0.5627896012594249  0.1448936513201176  0.34100758971229084  1.0000
  Na  Na2       1.0  0.06278845386330537  0.3551078728924111  0.8410054796001347  1.0000
  Na  Na3       1.0  0.4372076103735623  0.8551059594515849  0.6589945150649398  1.0000
  Na  Na4       1.0  0.9372100285594982  0.6448925972926247  0.1589945738819907  1.0000
  H   H1        1.0  0.5427034974774543  0.2045017011072545  0.5422964671751274  1.0000
  H   H2        1.0  0.04270997482021239  0.2954981042786002  0.0422916818780195  1.0000
  H   H3        1.0  0.4572975265249751  0.7954996284911289  0.45770774021878674  1.0000
  H   H4        1.0  0.9572923199720333  0.7044997876664213  0.9577042818443002  1.0000
  H   H5        1.0  0.91088815916585  0.7729683889797556  0.340332643412971  1.0000
  H   H6        1.0  0.410890824139166  0.727030167764454  0.840333323959335  1.0000
  H   H7        1.0  0.08911286483657928  0.2270320812052873  0.6596674357299435  1.0000
  H   H8        1.0  0.5891076582836376  0.2729694430072414  0.1596681056064568  1.0000
  H   H9        1.0  0.2504612350052184  0.4665626106012084  0.3710377688238538  1.0000
  H   H10       1.0  0.750457299242093  0.0334389136113202  0.8710356993634321  1.0000
  H   H11       1.0  0.7495474137360887  0.5334378595838345  0.6289658275105978  1.0000
  H   H12       1.0  0.24954245397052685  0.9665581189203607  0.1289623028235951  1.0000
  H   H13       1.0  0.0570228804823856  0.7139610691166497  0.5633698633896316  1.0000
  H   H14       1.0  0.5570291110377639  0.7860400658675744  0.0633706487396992  1.0000
  H   H15       1.0  0.942973060360792  0.2860428387217411  0.4366281003062085  1.0000
  H   H16       1.0  0.4429757253341079  0.2139552478374327  0.9366287808525726  1.0000
  H   H17       1.0  0.3466689193669622  0.4225365840654263  0.6615212979150157  1.0000
  H   H18       1.0  0.8466700667630886  0.0774657995604429  0.16151927977617217  1.0000
  H   H19       1.0  0.6533282922660317  0.5774690425996525  0.3384821829458815  1.0000
  H   H20       1.0  0.15332206171065366  0.9225363894512739  0.8384786454284736  1.0000
  H   H21       1.0  0.7923819259579614  0.9521354442634616  0.42471548893608  1.0000
  H   H22       1.0  0.2923833201414609  0.5478648313074217  0.9247106523173868  1.0000
  H   H23       1.0  0.20761528567503254  0.047865025921574  0.5752866158411506  1.0000
  H   H24       1.0  0.7076189746507777  0.4521339200509331  0.0752859994467627  1.0000
  H   H25       1.0  0.8458465949643565  0.875439679054857  0.5241069475155982  1.0000
  H   H26       1.0  0.34584798914785597  0.6245588776893527  0.024103486980564498  1.0000
  H   H27       1.0  0.1541569706176986  0.1245616505435194  0.4758959094554455  1.0000
  H   H28       1.0  0.6541593888036343  0.3754372954289948  0.975893904146993  1.0000
  H   H29       1.0  0.6405009398950836  0.0756455621082139  0.6730705757823826  1.0000
  H   H30       1.0  0.14050360486839955  0.424349086797598  0.17306506395225085  1.0000
  H   H31       1.0  0.3594988133175362  0.9243523298368075  0.3269329307393036  1.0000
  H   H32       1.0  0.8594974191340368  0.575649664560757  0.8269315749815006  1.0000
  H   H33       1.0  0.7687312567509321  0.9543845289719072  0.6695124806210868  1.0000
  H   H34       1.0  0.26873138014462217  0.5456114495322879  0.1695083192138327  1.0000
  H   H35       1.0  0.23126849646168773  0.045613362973114094  0.3304903378587625  1.0000
  H   H36       1.0  0.731269643857807  0.454387301826074  0.8304890077617557  1.0000
  C   C1        1.0  0.3978169385445298  0.324561744580528  0.49220903091915597  1.0000
  C   C2        1.0  0.8978104612017714  0.17544235787202211  0.9922069357979382  1.0000
  C   C3        1.0  0.6021878978273418  0.6754395850178483  0.5077910867149527  1.0000
  C   C4        1.0  0.10218293806178018  0.8245598311396948  0.0077910022371057  1.0000
  C   C5        1.0  0.0755903904379949  0.6611320717483977  0.3777096607598195  1.0000
  C   C6        1.0  0.5755915378341214  0.8388682038224928  0.877707642620976  1.0000
  C   C7        1.0  0.9244119043542438  0.3388683984366452  0.6222918072971524  1.0000
  C   C8        1.0  0.4244082153784987  0.1611271098825142  0.12229242369154038  1.0000
  C   C9        1.0  0.3089340866640739  0.43416444654354086  0.5138594534753764  1.0000
  C   C10       1.0  0.8089352340601934  0.0658362182556473  0.013858811420199398  1.0000
  C   C11       1.0  0.6910669373383556  0.565837742468176  0.48614200175120453  1.0000
  C   C12       1.0  0.1910632483626102  0.9341625331027146  0.9861398659782593  1.0000
  C   C13       1.0  0.2392185575308972  0.4978469749713881  0.4412386934326875  1.0000
  C   C14       1.0  0.739218434137207  0.0021536898278001  0.9412380385471123  1.0000
  C   C15       1.0  0.7607862788409676  0.5021534952136548  0.5587614242014141  1.0000
  C   C16       1.0  0.2607825898652223  0.9978433427038809  0.058759976470305696  1.0000
  C   C17       1.0  0.15162174494106034  0.5999641867507819  0.45828740377558563  1.0000
  C   C18       1.0  0.6516241631269892  0.9000352294067682  0.9582867745508067  1.0000
  C   C19       1.0  0.8483805498511854  0.4000354240209205  0.5417126881977268  1.0000
  C   C20       1.0  0.34838067324487537  0.09996180312491282  0.0417119669996282  1.0000
  C   C21       1.0  0.13047199008572355  0.6370195116930617  0.5489834588067382  1.0000
  C   C22       1.0  0.6304756790614758  0.8629807638778219  0.04898284241235729  1.0000
  C   C23       1.0  0.8695264923370798  0.3629818179053146  0.4510159066335504  1.0000
  C   C24       1.0  0.3695278865205793  0.1370171280671997  0.9510172623913532  1.0000
  C   C25       1.0  0.20155997221678484  0.5727637545680366  0.621383453411525  1.0000
  C   C26       1.0  0.70156366119253  0.9272373804161874  0.1213814609334705  1.0000
  C   C27       1.0  0.7984372394162094  0.42723843444368004  0.37861865136570577  1.0000
  C   C28       1.0  0.2984360920200898  0.0727630897688485  0.8786186053790529  1.0000
  C   C29       1.0  0.2926158746772174  0.472414356027187  0.6047467143295719  1.0000
  C   C30       1.0  0.7926182928631531  0.0275880275986822  0.10474539706295617  1.0000
  C   C31       1.0  0.7073826077455863  0.5275886923978703  0.39525540327804976  1.0000
  C   C32       1.0  0.2073789187698409  0.9724133019996942  0.8952532675051046  1.0000
  C   C33       1.0  0.7126970507429462  0.0267225983661987  0.5423126378094878  1.0000
  C   C34       1.0  0.21270098650607133  0.473275488192975  0.0423078268515837  1.0000
  C   C35       1.0  0.287300160890048  0.9732770124054966  0.4576901550095727  1.0000
  C   C36       1.0  0.7873013082861675  0.5267232631653869  0.9576888249125658  1.0000
  S   S1        1.0  0.1714841897159687  0.6206468281697326  0.7366955938821462  1.0000
  S   S2        1.0  0.6714866079018973  0.8793543068144913  0.23669427661553039  1.0000
  S   S3        1.0  0.828511751127216  0.37935364201530325  0.2633051219810199  1.0000
  S   S4        1.0  0.3285093329412802  0.12064616337054448  0.7633043751221392  1.0000
  N   N1        1.0  0.8017857705730762  0.9486926344269975  0.49483864357779334  1.0000
  N   N2        1.0  0.301788435546399  0.5513067817305455  0.9948351958731578  1.0000
  N   N3        1.0  0.19821144105991095  0.0513069763446978  0.5051634611994373  1.0000
  N   N4        1.0  0.6982138592458469  0.4486928290411498  0.0051621439328216005  1.0000
  N   N5        1.0  0.700010756041223  0.014305794442776697  0.6344970605719169  1.0000
  N   N6        1.0  0.20001215022472954  0.4856905732897161  0.1344922239532238  1.0000
  N   N7        1.0  0.2999902679612063  0.9856929569155781  0.3655064587801604  1.0000
  N   N8        1.0  0.7999901445675164  0.5143090374819863  0.8655051158527554  1.0000
  O   O1        1.0  0.476938853872447  0.2773309657032144  0.5637578426005305  1.0000
  O   O2        1.0  0.9769438136380086  0.22266883968264037  0.0637544868692075  1.0000
  O   O3        1.0  0.523067253289234  0.722672082721843  0.436245728073132  1.0000
  O   O4        1.0  0.02306102273386299  0.7773281928490406  0.936242190555731  1.0000
  O   O5        1.0  0.3949957851599918  0.2833614691037241  0.4134575530831269  1.0000
  O   O6        1.0  0.8949765999191042  0.2166477898288548  0.9134587698671197  1.0000
  O   O7        1.0  0.6050065096322541  0.7166398604946522  0.5865459790993484  1.0000
  O   O8        1.0  0.10500154986669227  0.7833604150762384  0.08654245441234559  1.0000
  O   O9        1.0  0.9752676418748505  0.749641332716365  0.398875859985992  1.0000
  O   O10       1.0  0.47526903605835696  0.7503589428545183  0.8988765277019579  1.0000
  O   O11       1.0  0.024735923707204694  0.2503591374686707  0.6011221806922223  1.0000
  O   O12       1.0  0.5247332587338887  0.2496389490905031  0.10112425231318409  1.0000
  O   O13       1.0  0.0993833881040658  0.6298141902579886  0.29782053238982786  1.0000
  O   O14       1.0  0.5993870770798109  0.8701852258995616  0.7978192279536103  1.0000
  O   O15       1.0  0.9006163651085541  0.3701837016870329  0.7021802219645252  1.0000
  O   O16       1.0  0.4006152177124278  0.1298126660454599  0.20218086401970228  1.0000
  O   O17       1.0  0.218357271963086  0.5238107113591539  0.7974234184976721  1.0000
  O   O18       1.0  0.718363502518464  0.97619042362507  0.2974221397222436  1.0000
  O   O19       1.0  0.7816373980902753  0.47619061823922243  0.2025772845351028  1.0000
  O   O20       1.0  0.28163370911452995  0.023808327733284798  0.7025779009294908  1.0000
  O   O21       1.0  0.9943345722269112  0.6566699976917505  0.741611369854354  1.0000
  O   O22       1.0  0.4943359664104179  0.8433328561191544  0.24161134952849034  1.0000
  O   O23       1.0  0.005663910195892199  0.3433304724932853  0.2583886836277713  1.0000
  O   O24       1.0  0.5056587036429505  0.1566701923059028  0.758385225253285  1.0000
  O   O25       1.0  0.2928014099898917  0.7177201430619107  0.7486903792282433  1.0000
  O   O26       1.0  0.7928012865962017  0.7822801325089799  0.2486883482590088  1.0000
  O   O27       1.0  0.7071958016431024  0.2822803271231322  0.2513110375071506  1.0000
  O   O28       1.0  0.20719338345716654  0.21771861884938204  0.7513102906482628  1.0000
  O   O29       1.0  0.641384138815013  0.1096920809502819  0.4994136060213207  1.0000
  O   O30       1.0  0.1413918869475808  0.3903051461955442  0.999408145512767  1.0000
  O   O31       1.0  0.35861053123835507  0.8903066704080729  0.5005905372206172  1.0000
  O   O32       1.0  0.8586129494242911  0.6096936051628106  0.0005899079958382004  1.0000
