data_image0
_chemical_formula_structural       Zn4H44C64N8O20
_chemical_formula_sum              "Zn4 H44 C64 N8 O20"
_cell_length_a       8.276951042140226
_cell_length_b       9.769640551461611
_cell_length_c       20.35
_cell_angle_alpha    94.59958424349713
_cell_angle_beta     93.1617237918856
_cell_angle_gamma    114.32677182534965

_space_group_name_H-M_alt    "P 1"
_space_group_IT_number       1

loop_
  _space_group_symop_operation_xyz
  'x, y, z'

loop_
  _atom_site_type_symbol
  _atom_site_label
  _atom_site_symmetry_multiplicity
  _atom_site_fract_x
  _atom_site_fract_y
  _atom_site_fract_z
  _atom_site_occupancy
  Zn  Zn1       1.0  0.1918734587733866  0.178506204773079  0.328972086468319  1.0000
  Zn  Zn2       1.0  0.808127244422977  0.8214959782507378  0.6710277676493064  1.0000
  Zn  Zn3       1.0  0.1441453608885439  0.3274287002529945  0.1461830955029768  1.0000
  Zn  Zn4       1.0  0.8558555330723152  0.6725689604779674  0.8538165887926822  1.0000
  H   H1        1.0  0.07525290132615234  0.5315830889609785  0.1976672903579981  1.0000
  H   H2        1.0  0.9247461299192709  0.4684157023432007  0.8023319042762723  1.0000
  H   H3        1.0  0.5600176585038028  0.1550038487985219  0.1810088971311714  1.0000
  H   H4        1.0  0.4399844454732573  0.84499381193244  0.8189913057092398  1.0000
  H   H5        1.0  0.6620333295248956  0.418306436348189  0.2855000081087553  1.0000
  H   H6        1.0  0.33796560633827977  0.5816946161024177  0.7144997628369936  1.0000
  H   H7        1.0  0.5260036496099405  0.0620040267804782  0.3644581393043751  1.0000
  H   H8        1.0  0.4739965916516837  0.9379947645236939  0.6355425566756239  1.0000
  H   H9        1.0  0.6300946409632502  0.996270160844098  0.2440224577166177  1.0000
  H   H10       1.0  0.3699068103145819  0.0037286304600741  0.7559782654076486  1.0000
  H   H11       1.0  0.3866713673464943  0.1477173044336979  0.8736785242473459  1.0000
  H   H12       1.0  0.6133206899484522  0.852274703431199  0.12632074418889522  1.0000
  H   H13       1.0  0.363437517931125  0.4006966279654804  0.8710588006755771  1.0000
  H   H14       1.0  0.6365588221116526  0.5992942493261992  0.1289405203100813  1.0000
  H   H15       1.0  0.2702715182861724  0.7443886239031983  0.4943424433488701  1.0000
  H   H16       1.0  0.7297211767314877  0.25561695084026326  0.5056553960955767  1.0000
  H   H17       1.0  0.18667947343850244  0.918976261916235  0.4180608192451913  1.0000
  H   H18       1.0  0.8133246690419753  0.0810304434004436  0.5819383033262113  1.0000
  H   H19       1.0  0.052302416992965596  0.9881334254222764  0.1874149303209052  1.0000
  H   H20       1.0  0.9476935415208274  0.011866496455113  0.8125852217091917  1.0000
  H   H21       1.0  0.25432025723016227  0.5152881372262639  0.3017444419817963  1.0000
  H   H22       1.0  0.7456851906487643  0.4847163069439873  0.6982551142233717  1.0000
  H   H23       1.0  0.3417711163253828  0.9241339369189205  0.9317709809415362  1.0000
  H   H24       1.0  0.6582233610019728  0.0758580709459693  0.0682298159846937  1.0000
  H   H25       1.0  0.25298884525778936  0.787057587576264  0.0335134022299073  1.0000
  H   H26       1.0  0.7470096286706608  0.212940073154698  0.9664881933791989  1.0000
  H   H27       1.0  0.2820826712080802  0.5939466380235388  0.9272003819260705  1.0000
  H   H28       1.0  0.7179177608180467  0.4060476309877785  0.0727991614309786  1.0000
  H   H29       1.0  0.18111866575002725  0.561768263204037  0.04308730409916  1.0000
  H   H30       1.0  0.8188882782918442  0.4382293975269249  0.9569134987187908  1.0000
  H   H31       1.0  0.2509850338402799  0.6033891855076448  0.5927817722768723  1.0000
  H   H32       1.0  0.7490178986239968  0.396617519809034  0.4072183059512541  1.0000
  H   H33       1.0  0.2401195203860382  0.3715911511418781  0.6394519931295406  1.0000
  H   H34       1.0  0.7598948595410491  0.6284166847480107  0.3605483854245506  1.0000
  H   H35       1.0  0.12328045122502122  0.7743239414659442  0.1428868957281111  1.0000
  H   H36       1.0  0.8767142972725637  0.2256759804114523  0.8571137205582176  1.0000
  H   H37       1.0  0.26967017485975475  0.7434412035497857  0.3691671720623688  1.0000
  H   H38       1.0  0.7303262455887705  0.2565621100472413  0.6308311553043637  1.0000
  H   H39       1.0  0.22652568413745658  0.10847736931896888  0.6208097007724831  1.0000
  H   H40       1.0  0.7734796683592222  0.8915293359977027  0.3791899403436716  1.0000
  H   H41       1.0  0.19520817759514836  0.8919860875761996  0.5417010235261515  1.0000
  H   H42       1.0  0.8047923348367122  0.108020617740479  0.45829850901295544  1.0000
  H   H43       1.0  0.27642051433640796  0.6464945504413462  0.1988280728253642  1.0000
  H   H44       1.0  0.723579169608243  0.35350311028961556  0.8011715843260347  1.0000
  C   C1        1.0  0.8285476375176017  0.1549857596270954  0.3172699643251136  1.0000
  C   C2        1.0  0.1714531610610023  0.8450141622502938  0.6827298048815322  1.0000
  C   C3        1.0  0.8267854934809763  0.3200324902864011  0.2047918529107804  1.0000
  C   C4        1.0  0.17321540047987577  0.6799651704445606  0.7952083227853707  1.0000
  C   C5        1.0  0.4224157271049407  0.3330386045413221  0.2201771264124162  1.0000
  C   C6        1.0  0.5775840522219582  0.6669567950432124  0.779822937228488  1.0000
  C   C7        1.0  0.6458493656251463  0.2187173022787121  0.2261621669738219  1.0000
  C   C8        1.0  0.35415208565268597  0.7812814890254671  0.7738380647499454  1.0000
  C   C9        1.0  0.5582790770725907  0.3071575225243136  0.2647720519818222  1.0000
  C   C10       1.0  0.4417223742052414  0.6928412687798584  0.7352276883414604  1.0000
  C   C11       1.0  0.49658026456381077  0.08116611218613197  0.31344292170770427  1.0000
  C   C12       1.0  0.5034182093646394  0.9188315485448298  0.6865576911004112  1.0000
  C   C13       1.0  0.20644510792257625  0.11777972572452458  0.0487886133711726  1.0000
  C   C14       1.0  0.7935545760220748  0.8822179350064372  0.9512125179817019  1.0000
  C   C15       1.0  0.6527961845691195  0.1028708567502861  0.2730821717203753  1.0000
  C   C16       1.0  0.3472047093917325  0.8971268039806759  0.7269189867767523  1.0000
  C   C17       1.0  0.2509455935595284  0.3952834434164031  0.4479013201919102  1.0000
  C   C18       1.0  0.749053151539151  0.6047221313270583  0.5520976377748212  1.0000
  C   C19       1.0  0.32095329662819694  0.9476577737845487  0.2845314745612697  1.0000
  C   C20       1.0  0.6790445246010249  0.0523410175196304  0.7154686757297171  1.0000
  C   C21       1.0  0.2343098506770431  0.24874306569858357  0.015275738899539704  1.0000
  C   C22       1.0  0.7656880659344195  0.751253464459168  0.9847238350799756  1.0000
  C   C23       1.0  0.2389320375828916  0.2599606131288041  0.47468352265361347  1.0000
  C   C24       1.0  0.7610672648327681  0.7400460921878675  0.5253164741417251  1.0000
  C   C25       1.0  0.2403227802025611  0.2543280973761952  0.5442998434709523  1.0000
  C   C26       1.0  0.7596795949447355  0.7456774773672663  0.4556996873290585  1.0000
  C   C27       1.0  0.24802621514161416  0.0018473566318278  0.018728451890396496  1.0000
  C   C28       1.0  0.7519729114860568  0.998149173525924  0.9812726234348546  1.0000
  C   C29       1.0  0.3392279794624359  0.1394528142386804  0.9228061314364028  1.0000
  C   C30       1.0  0.6607664024826718  0.860541454772644  0.0771932761993455  1.0000
  C   C31       1.0  0.3147377804852312  0.3862015487875965  0.9198308867368752  1.0000
  C   C32       1.0  0.6852590214922787  0.6137927202237208  0.0801685751873933  1.0000
  C   C33       1.0  0.29801609606847285  0.2585078265487013  0.9516812791987662  1.0000
  C   C34       1.0  0.7019831259414459  0.7414864424626229  0.048318237014022686  1.0000
  C   C35       1.0  0.2650011114302799  0.6476963497679264  0.4622230831168395  1.0000
  C   C36       1.0  0.7349946563190175  0.3523080944023177  0.5377747817327645  1.0000
  C   C37       1.0  0.257401968494527  0.5188641403024405  0.49127212911913887  1.0000
  C   C38       1.0  0.7425950092709713  0.48114030386781076  0.5087272370762009  1.0000
  C   C39       1.0  0.2069532397724672  0.0130818626602647  0.4551231123956683  1.0000
  C   C40       1.0  0.7930496926918025  0.986924842656407  0.544876965832458  1.0000
  C   C41       1.0  0.10718702257806705  0.9894652406684726  0.1398399341953009  1.0000
  C   C42       1.0  0.8928090313179666  0.0105324200624892  0.8601616071252778  1.0000
  C   C43       1.0  0.2573818538868267  0.5195130893273259  0.3554254083663224  1.0000
  C   C44       1.0  0.7426199639434828  0.4804913548429184  0.6445735750055733  1.0000
  C   C45       1.0  0.3156715522944822  0.0162474676597242  0.9551551114035703  1.0000
  C   C46       1.0  0.6843270170162086  0.9837479319248102  0.04484541649356539  1.0000
  C   C47       1.0  0.21795903216443693  0.8764214861377866  0.05425247422693501  1.0000
  C   C48       1.0  0.7820412090971943  0.12357730516639259  0.9457506787555233  1.0000
  C   C49       1.0  0.2707195149680146  0.495282644202895  0.951383914122971  1.0000
  C   C50       1.0  0.7292832417082664  0.5047138859548568  0.0486167512345688  1.0000
  C   C51       1.0  0.2131807374643842  0.4778299854969461  0.015117562004832101  1.0000
  C   C52       1.0  0.7868213665126689  0.5221676752340159  0.9848826408355791  1.0000
  C   C53       1.0  0.2526190899070713  0.5084153826577946  0.5610574139756039  1.0000
  C   C54       1.0  0.7473820752240173  0.49159019208566684  0.43894208968014675  1.0000
  C   C55       1.0  0.2461051093010411  0.3810800521277571  0.5864822884477334  1.0000
  C   C56       1.0  0.7539015485940938  0.6189243920424872  0.4135177863021937  1.0000
  C   C57       1.0  0.1467426940630076  0.869384798453275  0.11442476452328522  1.0000
  C   C58       1.0  0.8532539171500063  0.130613992850904  0.8855763414244322  1.0000
  C   C59       1.0  0.26492824088097683  0.647960903900028  0.3943648028780303  1.0000
  C   C60       1.0  0.7350693895837496  0.3520424096970061  0.6056350258344452  1.0000
  C   C61       1.0  0.22827997650287563  0.1187520186886459  0.5678062838763083  1.0000
  C   C62       1.0  0.7717241659776021  0.8812546866280326  0.43219431289657  1.0000
  C   C63       1.0  0.21209022687246912  0.9982226607848403  0.5232365147820985  1.0000
  C   C64       1.0  0.7879115909578477  0.0017817833854109999  0.4767634513907808  1.0000
  N   N1        1.0  0.13875676006590254  0.1106955539650158  0.1081753196498809  1.0000
  N   N2        1.0  0.8612417138625477  0.8893021067659461  0.8918252931582415  1.0000
  N   N3        1.0  0.2511779522525401  0.3970754019607412  0.3813789601658257  1.0000
  N   N4        1.0  0.7488226555615753  0.602929042209503  0.6186204874623016  1.0000
  N   N5        1.0  0.1958179680424124  0.3583204827548627  0.0461875719263105  1.0000
  N   N6        1.0  0.8041834832354197  0.6416783085493165  0.9538121683969721  1.0000
  N   N7        1.0  0.2207541026986846  0.1402555212206806  0.4314854556631076  1.0000
  N   N8        1.0  0.7792458524162029  0.8597500535227809  0.5685140208483759  1.0000
  O   O1        1.0  0.4803487020533837  0.2239688148581678  0.3190723091160095  1.0000
  O   O2        1.0  0.5196515392082404  0.7760299764460044  0.6809283868639966  1.0000
  O   O3        1.0  0.883080258363968  0.2584038138130039  0.158391683996804  1.0000
  O   O4        1.0  0.1169220363775807  0.7415893246251031  0.8416103146236082  1.0000
  O   O5        1.0  0.17804835349118525  0.9663653687581331  0.2907338664305641  1.0000
  O   O6        1.0  0.8219535597213792  0.0336368142656838  0.7092655234308367  1.0000
  O   O7        1.0  0.263513291889808  0.295348685303118  0.23767547281585172  1.0000
  O   O8        1.0  0.7364875066888033  0.7046512365742714  0.762324787791286  1.0000
  O   O9        1.0  0.9407730226962556  0.1115853150845112  0.2914567114965649  1.0000
  O   O10       1.0  0.059226008549167417  0.888413476219668  0.7085439573391739  1.0000
  O   O11       1.0  0.4680361657635572  0.3881755296194028  0.16706080824059197  1.0000
  O   O12       1.0  0.5319595215799993  0.6118164782454869  0.8329380502279379  1.0000
  O   O13       1.0  0.1846026664047002  0.5587620690277646  0.1711986210442475  1.0000
  O   O14       1.0  0.8153975748569239  0.4412367222764146  0.8288010921347748  1.0000
  O   O15       1.0  0.9076396175091973  0.4527516104619451  0.23314953327447088  1.0000
  O   O16       1.0  0.09235885641925282  0.5472460502690168  0.7668481311307005  1.0000
  O   O17       1.0  0.3310626815614768  0.829296933427983  0.2603524060213687  1.0000
  O   O18       1.0  0.6689357923669662  0.1707007273029859  0.7396482067867538  1.0000
  O   O19       1.0  0.8496731461843297  0.2282220312895831  0.3728292048510724  1.0000
  O   O20       1.0  0.15032932434520768  0.7717812823074438  0.6271702410379447  1.0000
