data_image0
_chemical_formula_structural       Cd4H20C16O26
_chemical_formula_sum              "Cd4 H20 C16 O26"
_cell_length_a       7.4502345588912275
_cell_length_b       9.03365280600326
_cell_length_c       11.311457726028152
_cell_angle_alpha    90.00024124010521
_cell_angle_beta     89.99988415959119
_cell_angle_gamma    95.7204459997229

_space_group_name_H-M_alt    "P 1"
_space_group_IT_number       1

loop_
  _space_group_symop_operation_xyz
  'x, y, z'

loop_
  _atom_site_type_symbol
  _atom_site_label
  _atom_site_symmetry_multiplicity
  _atom_site_fract_x
  _atom_site_fract_y
  _atom_site_fract_z
  _atom_site_occupancy
  Cd  Cd1       1.0  0.7204599914500847  0.751901140500884  0.3329959664902518  1.0000
  Cd  Cd2       1.0  0.279540889274422  0.24809215618952857  0.8329945771995142  1.0000
  Cd  Cd3       1.0  0.8274838404016691  0.7394850210878233  0.8309352382415652  1.0000
  Cd  Cd4       1.0  0.17251593098646367  0.2605183385771638  0.330940893236928  1.0000
  H   H1        1.0  0.01155111855295127  0.5271510664795257  0.7405774266616589  1.0000
  H   H2        1.0  0.9884495458344137  0.4728473714262834  0.24058017590398614  1.0000
  H   H3        1.0  0.7572641621056134  0.7046788924363413  0.5599639562977288  1.0000
  H   H4        1.0  0.24273315969192308  0.29531987243527885  0.059964342410936  1.0000
  H   H5        1.0  0.8434363225586381  0.3515291017707298  0.656481355964118  1.0000
  H   H6        1.0  0.15656241803181806  0.6484723262119018  0.1564821865596357  1.0000
  H   H7        1.0  0.6034900578918538  0.40933856924411327  0.5107311563961048  1.0000
  H   H8        1.0  0.3965008840291021  0.5906612288259155  0.0107279593905574  1.0000
  H   H9        1.0  0.5662351297574942  0.9495632470697543  0.7712069427117427  1.0000
  H   H10       1.0  0.4337607927986937  0.050439917852159497  0.2712062483827395  1.0000
  H   H11       1.0  0.008217821303261938  0.9371714960080125  0.4898315008746579  1.0000
  H   H12       1.0  0.9917787382996365  0.0628148469205527  0.9898268375271899  1.0000
  H   H13       1.0  0.6999452525525739  0.13634047391386866  0.6872427992980548  1.0000
  H   H14       1.0  0.30005189217631306  0.8636600245698673  0.1872442017268199  1.0000
  H   H15       1.0  0.8711599936695863  0.12728002988745146  0.5084743858047318  1.0000
  H   H16       1.0  0.12884898963305597  0.8727148565333139  0.0084724910241931  1.0000
  H   H17       1.0  0.6717033917143737  0.8879828036345357  0.9991959545527254  1.0000
  H   H18       1.0  0.32830661851525633  0.11202111917103962  0.49919648562323005  1.0000
  H   H19       1.0  0.8486956813000504  0.8450651966213272  0.06851997005017552  1.0000
  H   H20       1.0  0.1513148212091551  0.1549321748192867  0.5685263699023864  1.0000
  C   C1        1.0  0.6262148038550491  0.44872666048215126  0.7422141959549435  1.0000
  C   C2        1.0  0.37378149594722737  0.5512696582727086  0.2422108899787787  1.0000
  C   C3        1.0  0.7867031737974485  0.4592162867643381  0.6555754161530274  1.0000
  C   C4        1.0  0.2132908624102043  0.5407807855892416  0.1555802249889169  1.0000
  C   C5        1.0  0.721896517872267  0.48823645754001876  0.5303343534248768  1.0000
  C   C6        1.0  0.2780905301679084  0.5117646452519438  0.0303274903208006  1.0000
  C   C7        1.0  0.8634985086849056  0.45914645766013246  0.43618012792206434  1.0000
  C   C8        1.0  0.13649673685381455  0.5408474722082204  0.9361799268065313  1.0000
  C   C9        1.0  0.9545986006477846  0.04923602042287461  0.723637449377307  1.0000
  C   C10       1.0  0.0454039683270011  0.9507656385682282  0.2236412306628068  1.0000
  C   C11       1.0  0.7643863788964255  0.034347336886831684  0.6692139610781638  1.0000
  C   C12       1.0  0.23561401118357847  0.9656563450489345  0.1692175632929391  1.0000
  C   C13       1.0  0.7888273567142506  0.0243422536915503  0.5341411525348079  1.0000
  C   C14       1.0  0.2111755606461684  0.9756573678438584  0.034142166881864  1.0000
  C   C15       1.0  0.6147676366001703  0.03672687866095  0.46488937417665  1.0000
  C   C16       1.0  0.3852384547875332  0.9632769735695205  0.9648921036658892  1.0000
  O   O1        1.0  0.6128079350419996  0.5463169288298318  0.821457033326773  1.0000
  O   O2        1.0  0.387191515673031  0.4536841604381222  0.3214524887863206  1.0000
  O   O3        1.0  0.5152938028965721  0.3345926875212725  0.7251163575289893  1.0000
  O   O4        1.0  0.48470539291808723  0.6654045951292246  0.225108008270162  1.0000
  O   O5        1.0  0.9259878388186707  0.5741485345599174  0.6854470123564624  1.0000
  O   O6        1.0  0.07401181299461258  0.4258507784776029  0.1854498236318491  1.0000
  O   O7        1.0  0.6643087854098866  0.634639555127123  0.5226751518290769  1.0000
  O   O8        1.0  0.33568479915754773  0.3653602366346291  0.022672131736406705  1.0000
  O   O9        1.0  0.8803673625569173  0.5452343793868194  0.346074285438192  1.0000
  O   O10       1.0  0.11962463796086098  0.45476254353655315  0.8460755745218193  1.0000
  O   O11       1.0  0.9492564019379868  0.34704998567816847  0.4506784550459458  1.0000
  O   O12       1.0  0.050739497258113914  0.6529484631494713  0.9506725580566878  1.0000
  O   O13       1.0  0.015647916517764277  0.9416551805738107  0.7748089206745163  1.0000
  O   O14       1.0  0.9843566669111325  0.058343327553089394  0.2748146584906266  1.0000
  O   O15       1.0  0.045476266578845084  0.17661940226064127  0.7075969644434891  1.0000
  O   O16       1.0  0.9545223332699138  0.8233822753380124  0.2075947813778782  1.0000
  O   O17       1.0  0.6535003865986582  0.9089158928796195  0.7159760953271075  1.0000
  O   O18       1.0  0.3464958614232144  0.09108811437182851  0.2159782998940756  1.0000
  O   O19       1.0  0.8807500918258383  0.89787208065043  0.5019867197903096  1.0000
  O   O20       1.0  0.1192443672994514  0.10212424162681087  0.0019812816868736  1.0000
  O   O21       1.0  0.5705725295306578  0.9525997023243563  0.3764001831937733  1.0000
  O   O22       1.0  0.429427414085751  0.04739717478815209  0.8764032208596504  1.0000
  O   O23       1.0  0.5282045232245807  0.14204060369846166  0.4982045018400925  1.0000
  O   O24       1.0  0.47181071676763503  0.8579710016379635  0.9982173700479109  1.0000
  O   O25       1.0  0.8100733360592968  0.8922314539147602  0.9949285235139983  1.0000
  O   O26       1.0  0.18993651252537086  0.10777133601285267  0.4949309757838519  1.0000
