data_image0
_chemical_formula_structural       Zn4H84C84S4N20O24
_chemical_formula_sum              "Zn4 H84 C84 S4 N20 O24"
_cell_length_a       8.048702697442803
_cell_length_b       15.421912151024085
_cell_length_c       21.9356330874649
_cell_angle_alpha    89.99989114941127
_cell_angle_beta     95.05268347392563
_cell_angle_gamma    90.00017986173326

_space_group_name_H-M_alt    "P 1"
_space_group_IT_number       1

loop_
  _space_group_symop_operation_xyz
  'x, y, z'

loop_
  _atom_site_type_symbol
  _atom_site_label
  _atom_site_symmetry_multiplicity
  _atom_site_fract_x
  _atom_site_fract_y
  _atom_site_fract_z
  _atom_site_occupancy
  Zn  Zn1       1.0  0.1572787980747492  0.9760428529723485  0.23218156786974484  1.0000
  Zn  Zn2       1.0  0.3427266873514938  0.4760407568149603  0.2678195024491217  1.0000
  Zn  Zn3       1.0  0.8427317262121223  0.023959713579557704  0.7678181845258718  1.0000
  Zn  Zn4       1.0  0.6572700835487738  0.523957270724587  0.7321838935108287  1.0000
  H   H1        1.0  0.16263567170081222  0.3077104047940225  0.44132687747760707  1.0000
  H   H2        1.0  0.3373700762169847  0.8077132662507084  0.058676706211649284  1.0000
  H   H3        1.0  0.8373611362355788  0.6922921617478934  0.5586719609037303  1.0000
  H   H4        1.0  0.6626379275968047  0.19228865186691016  0.9413261531681555  1.0000
  H   H5        1.0  0.43451000691291614  0.3830942706606423  0.44502634460192775  1.0000
  H   H6        1.0  0.06548995955844109  0.8830960483343873  0.054974209846534394  1.0000
  H   H7        1.0  0.5654830369751809  0.6169076474466308  0.5549751033462939  1.0000
  H   H8        1.0  0.9345168228865504  0.1169032760745168  0.9450254175718484  1.0000
  H   H9        1.0  0.605288341099147  0.19401167260509314  0.3193692802416592  1.0000
  H   H10       1.0  0.8946984510922177  0.6940045710224181  0.1806282599065483  1.0000
  H   H11       1.0  0.39469970627980194  0.8059921907811398  0.6806329125818562  1.0000
  H   H12       1.0  0.10529958559340002  0.30599215966515203  0.8193728989258418  1.0000
  H   H13       1.0  0.4851888873920133  0.021970205220029  0.1700508760022501  1.0000
  H   H14       1.0  0.0148165156672562  0.5219679124384555  0.32994715198719143  1.0000
  H   H15       1.0  0.5148166884878194  0.9780245801985786  0.8299436964254241  1.0000
  H   H16       1.0  0.9851827571777962  0.4780249276800816  0.6700554157799203  1.0000
  H   H17       1.0  0.1837581836409043  0.09312412749596892  0.009945074024202  1.0000
  H   H18       1.0  0.3162401257076369  0.5931277304030473  0.4900549012422887  1.0000
  H   H19       1.0  0.8162423587178652  0.9068764937635336  0.9900548008525476  1.0000
  H   H20       1.0  0.6837516708917663  0.4068702971351216  0.509946505048461  1.0000
  H   H21       1.0  0.9812449128456466  0.03338693231875571  0.098462895289309  1.0000
  H   H22       1.0  0.5187559172577849  0.5333902878109668  0.4015362403762238  1.0000
  H   H23       1.0  0.0187581388718314  0.9666117436610903  0.901535239877546  1.0000
  H   H24       1.0  0.48123961378074404  0.4666116302969955  0.5984662024065912  1.0000
  H   H25       1.0  0.4806226505840884  0.1063075691834783  0.003745997372341499  1.0000
  H   H26       1.0  0.019373262079021503  0.6063035362620611  0.49625114492400246  1.0000
  H   H27       1.0  0.5193754268529888  0.8936982395032373  0.9962501481212271  1.0000
  H   H28       1.0  0.98061978920439  0.39369513970634523  0.5037493915108726  1.0000
  H   H29       1.0  0.6111508704289931  0.0364991455002794  0.052850042260054395  1.0000
  H   H30       1.0  0.8888474903738554  0.5364971477930423  0.44714809500703717  1.0000
  H   H31       1.0  0.38885219981118974  0.9635034210508027  0.9471458141165597  1.0000
  H   H32       1.0  0.1111393060103723  0.46350152816743423  0.5528545119173456  1.0000
  H   H33       1.0  0.7482620833128095  0.09222502874182942  0.1512280697012542  1.0000
  H   H34       1.0  0.7517353612154382  0.5922263152085988  0.34876859476411676  1.0000
  H   H35       1.0  0.2517347357249236  0.9077755925178791  0.8487694014083899  1.0000
  H   H36       1.0  0.24826394126111498  0.40777106391106344  0.6512303269395899  1.0000
  H   H37       1.0  0.8233997264012273  0.36792564270504613  0.165611859647214  1.0000
  H   H38       1.0  0.6765992600032219  0.867920360783103  0.3343895021755472  1.0000
  H   H39       1.0  0.1766008048524768  0.6320756269806154  0.8343893825019676  1.0000
  H   H40       1.0  0.3234100317930242  0.1320744246340553  0.6656083855344335  1.0000
  H   H41       1.0  0.6249656601660974  0.3896758264924074  0.07325512033062859  1.0000
  H   H42       1.0  0.8750322186315813  0.8896732130302212  0.42674435187264936  1.0000
  H   H43       1.0  0.3750386203229398  0.6103247947693689  0.9267453352828168  1.0000
  H   H44       1.0  0.12496834222198325  0.1103215723801796  0.5732532442194368  1.0000
  H   H45       1.0  0.4845418943087978  0.2626668891496777  0.020635904384768398  1.0000
  H   H46       1.0  0.0154636320520538  0.7626648408760135  0.479363173355587  1.0000
  H   H47       1.0  0.5154636593850981  0.7373376226855443  0.9793614025829385  1.0000
  H   H48       1.0  0.9845356556171223  0.2373331866691899  0.5206375713781525  1.0000
  H   H49       1.0  0.8507548328227446  0.23558915451314277  0.26325861123479644  1.0000
  H   H50       1.0  0.6492458995946891  0.7355873345860574  0.23674161830319204  1.0000
  H   H51       1.0  0.14924446595149732  0.7644082246059015  0.7367407662265109  1.0000
  H   H52       1.0  0.35075838459665226  0.2644132866763442  0.763258381552653  1.0000
  H   H53       1.0  0.9368866269282068  0.14364671756693784  0.22850024067679442  1.0000
  H   H54       1.0  0.5631073302170008  0.6436466076064348  0.2715012532095925  1.0000
  H   H55       1.0  0.06310767903362802  0.8563506615476228  0.7714994259033218  1.0000
  H   H56       1.0  0.4368894480897509  0.3563520683623835  0.7285012312347874  1.0000
  H   H57       1.0  0.0287583346271276  0.3584642602791419  0.28861134887444706  1.0000
  H   H58       1.0  0.47124149045609437  0.8584649818426726  0.2113892338030325  1.0000
  H   H59       1.0  0.9712334767796521  0.6415331188334932  0.7113882343862697  1.0000
  H   H60       1.0  0.5287702662972009  0.1415369362796994  0.7886123832830589  1.0000
  H   H61       1.0  0.4314959522451005  0.3143009528883098  0.18020276599828824  1.0000
  H   H62       1.0  0.0685023646400111  0.8143007208554209  0.3197987371507266  1.0000
  H   H63       1.0  0.5685058447995388  0.6857009652294438  0.8197962390222171  1.0000
  H   H64       1.0  0.9315093884109801  0.18570119726633288  0.6802033356929655  1.0000
  H   H65       1.0  0.1878170026567645  0.18831576239410452  0.1544599955691339  1.0000
  H   H66       1.0  0.3121868385217823  0.6883152113572067  0.3455404929971663  1.0000
  H   H67       1.0  0.8121822924281971  0.8116861557204799  0.8455398376471732  1.0000
  H   H68       1.0  0.6878174493681471  0.31168411304976473  0.654459051101817  1.0000
  H   H69       1.0  0.9824373031315902  0.20345623154283032  0.39620674728612215  1.0000
  H   H70       1.0  0.5175569899288561  0.7034532593773477  0.10379558956952199  1.0000
  H   H71       1.0  0.0175507553468464  0.7965450381331821  0.6037940782660769  1.0000
  H   H72       1.0  0.4824497665869386  0.29654152603105643  0.8962072281546652  1.0000
  H   H73       1.0  0.0541854661736139  0.12034586759759239  0.3486432923696512  1.0000
  H   H74       1.0  0.4458080103138684  0.6203447649308489  0.15135648506195307  1.0000
  H   H75       1.0  0.9458113269516771  0.879656050513816  0.6513573690424648  1.0000
  H   H76       1.0  0.5541950302966824  0.3796539110471429  0.8486430173777038  1.0000
  H   H77       1.0  0.8288097860114618  0.9254602085669106  0.21214163314468953  1.0000
  H   H78       1.0  0.6711920474502975  0.42546166766103244  0.2878570115077252  1.0000
  H   H79       1.0  0.1711957528583028  0.07453911584164531  0.7878574968563896  1.0000
  H   H80       1.0  0.3288047456712776  0.5745389535943346  0.7121436499051298  1.0000
  H   H81       1.0  0.8547787462517816  0.9897148291421021  0.27023893229262086  1.0000
  H   H82       1.0  0.6452234597497578  0.4897138094517075  0.2297591829615016  1.0000
  H   H83       1.0  0.14523302530889742  0.010286440554729402  0.729760861763438  1.0000
  H   H84       1.0  0.3547745880502405  0.510285514949814  0.7702406085965874  1.0000
  C   C1        1.0  0.3576244074824544  0.1752193433573979  0.344358745116331  1.0000
  C   C2        1.0  0.1423643911864545  0.6752183804113725  0.15564125854360358  1.0000
  C   C3        1.0  0.6423698910859273  0.8247819263240572  0.6556418329767553  1.0000
  C   C4        1.0  0.8576298999735813  0.3247815924127977  0.8443602310654298  1.0000
  C   C5        1.0  0.2281320053998854  0.2076879266348115  0.379061150645846  1.0000
  C   C6        1.0  0.2718607177796315  0.7076866214546272  0.12093939653879458  1.0000
  C   C7        1.0  0.771862282057846  0.7923120461887337  0.6209407947207879  1.0000
  C   C8        1.0  0.7281373226082977  0.29231010923356854  0.8790613065359947  1.0000
  C   C9        1.0  0.26145028113100466  0.28310591975923666  0.4152480839275086  1.0000
  C   C10       1.0  0.23854787889246154  0.7831040096583379  0.0847507204294331  1.0000
  C   C11       1.0  0.7385465231030751  0.716896646782061  0.5847512102114294  1.0000
  C   C12       1.0  0.7614576599661405  0.21689142418208718  0.9152484095738769  1.0000
  C   C13       1.0  0.413098881706894  0.3249627184705873  0.41730437937105336  1.0000
  C   C14       1.0  0.0869019983421779  0.8249631592259304  0.0826962833623455  1.0000
  C   C15       1.0  0.5868941732937073  0.6750411449226162  0.5826957013032512  1.0000
  C   C16       1.0  0.9131085185344929  0.17503746204067033  0.917304380549595  1.0000
  C   C17       1.0  0.5388313115137678  0.29368334916327404  0.3825602702271737  1.0000
  C   C18       1.0  0.9611685108179556  0.7936843088685067  0.11743939531026366  1.0000
  C   C19       1.0  0.4611580164672162  0.7063218110855587  0.6174378624368869  1.0000
  C   C20       1.0  0.03884323483028141  0.20631825768002443  0.8825635890482673  1.0000
  C   C21       1.0  0.5101761197362721  0.2193767645717699  0.3470501578388081  1.0000
  C   C22       1.0  0.9898120394404588  0.7193763781049114  0.1529505851975657  1.0000
  C   C23       1.0  0.48981069517252956  0.7806264503879631  0.6529501702949715  1.0000
  C   C24       1.0  0.010188469597523  0.28062424314900625  0.8470533914975887  1.0000
  C   C25       1.0  0.336525773077483  0.09779577890336098  0.3033496296629821  1.0000
  C   C26       1.0  0.1634638321245561  0.5977921456575858  0.19665004863559685  1.0000
  C   C27       1.0  0.6634685292025111  0.9022087329188296  0.696650492670649  1.0000
  C   C28       1.0  0.8365329535775031  0.40220328817235895  0.8033515242954363  1.0000
  C   C29       1.0  0.3752998846345719  0.03160125925337811  0.1385991174395897  1.0000
  C   C30       1.0  0.12470558112460137  0.5316023033843678  0.36139798799460005  1.0000
  C   C31       1.0  0.6247094367857359  0.9683954714528157  0.8613951242084568  1.0000
  C   C32       1.0  0.8752924555666013  0.4683963725872786  0.6386031708366673  1.0000
  C   C33       1.0  0.21269469557162782  0.07107558997635978  0.0565580616856565  1.0000
  C   C34       1.0  0.287307203123305  0.5710779749635435  0.4434452541336285  1.0000
  C   C35       1.0  0.7873108544199569  0.9289289218582437  0.9434397010396508  1.0000
  C   C36       1.0  0.7126857889343228  0.4289245915630602  0.5565625744206386  1.0000
  C   C37       1.0  0.1151746553936732  0.0418157844720994  0.10048958784180678  1.0000
  C   C38       1.0  0.38482711605079345  0.5418132608712513  0.39950874818129006  1.0000
  C   C39       1.0  0.8848283889322062  0.9581874305026616  0.8995094588376489  1.0000
  C   C40       1.0  0.615175913445384  0.45818282139278205  0.6004921215326603  1.0000
  C   C41       1.0  0.5241268429662896  0.09146567126457232  0.0513730027069954  1.0000
  C   C42       1.0  0.9758705823865697  0.5914644605424684  0.44862548566051424  1.0000
  C   C43       1.0  0.4758712307610297  0.9085375437094284  0.9486235985456586  1.0000
  C   C44       1.0  0.024119966935309396  0.4085335669947412  0.5513758789705392  1.0000
  C   C45       1.0  0.6064505659368677  0.1694877979754636  0.08275787398709869  1.0000
  C   C46       1.0  0.8935485582781268  0.6694891311722059  0.41724011086002116  1.0000
  C   C47       1.0  0.393546249398554  0.8305128232836266  0.9172400528801461  1.0000
  C   C48       1.0  0.1064457476892855  0.33051019322642355  0.5827595557189723  1.0000
  C   C49       1.0  0.7186777551014245  0.1576916170344802  0.1346163877565516  1.0000
  C   C50       1.0  0.7813237959504705  0.6576916100865658  0.3653816939303169  1.0000
  C   C51       1.0  0.28132405305199626  0.8423109495131555  0.8653812499907687  1.0000
  C   C52       1.0  0.21867424814721662  0.34230771431433743  0.6346185533853799  1.0000
  C   C53       1.0  0.7948757599583373  0.22840206519431658  0.16537497168675228  1.0000
  C   C54       1.0  0.7051261858917143  0.7284026652152633  0.3346243962314546  1.0000
  C   C55       1.0  0.20512602967981758  0.7715992044941729  0.8346249448493238  1.0000
  C   C56       1.0  0.2948818623404819  0.27159601076968437  0.6653729940589911  1.0000
  C   C57       1.0  0.7608327117458558  0.31226002178211587  0.1429017058714805  1.0000
  C   C58       1.0  0.739169715478944  0.8122606166603319  0.35709756593727343  1.0000
  C   C59       1.0  0.23916908158902572  0.6877393026229229  0.8570977549081107  1.0000
  C   C60       1.0  0.26084208198672343  0.18773676247271  0.6428990378178127  1.0000
  C   C61       1.0  0.6501394163184671  0.3244536904528489  0.09097270436428319  1.0000
  C   C62       1.0  0.8498630660895259  0.8244530290592209  0.4090283765004513  1.0000
  C   C63       1.0  0.3498586166741476  0.6755462823742208  0.9090289102238457  1.0000
  C   C64       1.0  0.15014748039259024  0.17554305321618813  0.5909686413532782  1.0000
  C   C65       1.0  0.5714809438423103  0.25342486084172583  0.06115630497895099  1.0000
  C   C66       1.0  0.9285261199430934  0.7534235990656628  0.43884502393093777  1.0000
  C   C67       1.0  0.4285208532023219  0.7465770572760277  0.9388427000415474  1.0000
  C   C68       1.0  0.0714731640237716  0.24657442847891528  0.5611561765604023  1.0000
  C   C69       1.0  0.9092827769196957  0.21292929170027008  0.22273128225945973  1.0000
  C   C70       1.0  0.5907165781494613  0.7129292113298787  0.2772689315882602  1.0000
  C   C71       1.0  0.09071901271473591  0.787070681132171  0.7772686342773555  1.0000
  C   C72       1.0  0.409283986413854  0.2870681677932297  0.7227282087447404  1.0000
  C   C73       1.0  0.10849480594486492  0.33130625887530846  0.25603133694598057  1.0000
  C   C74       1.0  0.39150239089427424  0.8313048162272098  0.2439664589934765  1.0000
  C   C75       1.0  0.8915007473093796  0.6686963076644049  0.7439683712908617  1.0000
  C   C76       1.0  0.608506893517827  0.1686971018969601  0.7560323402276197  1.0000
  C   C77       1.0  0.31228749977595527  0.30544719384564434  0.19878271303812767  1.0000
  C   C78       1.0  0.1877157590948002  0.8054459106066929  0.30121851113996456  1.0000
  C   C79       1.0  0.6877080534820194  0.69455666955011  0.8012169951979686  1.0000
  C   C80       1.0  0.8122959976659415  0.19455860122776872  0.6987831059446419  1.0000
  C   C81       1.0  0.19414058884220967  0.24252236239220787  0.1858812572298518  1.0000
  C   C82       1.0  0.30585358899701726  0.7425264251505863  0.31411838017252336  1.0000
  C   C83       1.0  0.8058549570148585  0.7574827978583514  0.8141193625207064  1.0000
  C   C84       1.0  0.6941482302596141  0.2574748445428696  0.6858778903027412  1.0000
  S   S1        1.0  0.733965493369837  0.34666007334519133  0.3863188215143012  1.0000
  S   S2        1.0  0.7660383637883257  0.8466594267164425  0.1136822755594196  1.0000
  S   S3        1.0  0.2660300413635568  0.6533392510512995  0.6136831655123984  1.0000
  S   S4        1.0  0.23396841125017434  0.15333924926319034  0.8863182633745337  1.0000
  N   N1        1.0  0.21818902575736837  0.017424531259294402  0.15147419271576718  1.0000
  N   N2        1.0  0.2818175910839855  0.5174232739507758  0.3485247936577736  1.0000
  N   N3        1.0  0.7818190261808624  0.9825754415823269  0.8485227418163389  1.0000
  N   N4        1.0  0.7181829438608603  0.4825741051673731  0.6514759927360387  1.0000
  N   N5        1.0  0.3760575645830287  0.0638016247285407  0.08127773143362299  1.0000
  N   N6        1.0  0.12393934766632245  0.5638012153889065  0.4187199569939323  1.0000
  N   N7        1.0  0.6239454945409266  0.9361976996805766  0.9187194922176615  1.0000
  N   N8        1.0  0.8760524526335234  0.43619616372186687  0.5812809935395861  1.0000
  N   N9        1.0  0.06692417926284829  0.2598268071568981  0.22253290829861777  1.0000
  N   N10       1.0  0.4330713488777889  0.7598266386669722  0.2774662951756852  1.0000
  N   N11       1.0  0.9330713776843993  0.7401725172433232  0.7774663441824784  1.0000
  N   N12       1.0  0.5669329575199668  0.240171388887056  0.7225309701360414  1.0000
  N   N13       1.0  0.2569814476866911  0.3606192360530969  0.24247933162717317  1.0000
  N   N14       1.0  0.24301589891083356  0.8606188102772593  0.2575207095041492  1.0000
  N   N15       1.0  0.7430128397747564  0.6393820336264967  0.7575226137387145  1.0000
  N   N16       1.0  0.7569958541494658  0.13938634998460495  0.7424813633376883  1.0000
  N   N17       1.0  0.07694128080824209  0.1690946632043904  0.37946321398132443  1.0000
  N   N18       1.0  0.423052460705712  0.669093606792366  0.12053833060974739  1.0000
  N   N19       1.0  0.9230492759294223  0.8309072549021934  0.6205372391322967  1.0000
  N   N20       1.0  0.5769493104097306  0.3309037723248877  0.8794638647165625  1.0000
  O   O1        1.0  0.183283691620332  0.06658682434397178  0.2947269284677744  1.0000
  O   O2        1.0  0.31670571962066424  0.5665827703356997  0.20527460862997768  1.0000
  O   O3        1.0  0.8167106180661394  0.9334183359074829  0.705272282350279  1.0000
  O   O4        1.0  0.6832910512758872  0.43341396034780644  0.7947287873307188  1.0000
  O   O5        1.0  0.45569432727967296  0.06575059779278551  0.27814806969876565  1.0000
  O   O6        1.0  0.044296344952464005  0.565747349448813  0.22185123122861225  1.0000
  O   O7        1.0  0.5442975026609815  0.9342545624592232  0.7218492347694863  1.0000
  O   O8        1.0  0.9557066697437762  0.4342519749528508  0.778151461513886  1.0000
  O   O9        1.0  0.7785572856459169  0.3533934742041184  0.32157048179077913  1.0000
  O   O10       1.0  0.7214478648439596  0.8533919306040475  0.1784297377108146  1.0000
  O   O11       1.0  0.2214382527786185  0.6466019596248601  0.6784310494805509  1.0000
  O   O12       1.0  0.2785626520252648  0.14660609695046395  0.821570926202611  1.0000
  O   O13       1.0  0.8542744704128181  0.2928269784985247  0.42360517300791406  1.0000
  O   O14       1.0  0.6457216014725587  0.7928294779782306  0.07639482428863427  1.0000
  O   O15       1.0  0.14571981334260187  0.7071729943244094  0.5763972281163204  1.0000
  O   O16       1.0  0.3542801807628351  0.20717244013704317  0.9236060037622733  1.0000
  O   O17       1.0  0.7117426368020858  0.4327939554153346  0.41295856128847663  1.0000
  O   O18       1.0  0.7882579877705851  0.9327927689690443  0.0870404890581682  1.0000
  O   O19       1.0  0.28825663606343704  0.5672060174114578  0.5870440064745565  1.0000
  O   O20       1.0  0.21174257679086855  0.06720396172604383  0.912956651275202  1.0000
  O   O21       1.0  0.9000524091457719  0.9748088547057564  0.2319699949186713  1.0000
  O   O22       1.0  0.5999509548722699  0.4748102508356737  0.2680286348350833  1.0000
  O   O23       1.0  0.09995811142576372  0.025189172849373193  0.7680302132371535  1.0000
  O   O24       1.0  0.4000445983726665  0.5251890735639222  0.7319710734036133  1.0000
