data_image0
_chemical_formula_structural       Cs4H40C36Cl4O16
_chemical_formula_sum              "Cs4 H40 C36 Cl4 O16"
_cell_length_a       7.137128049789165
_cell_length_b       8.773429254057918
_cell_length_c       18.109928437615515
_cell_angle_alpha    89.99992385839187
_cell_angle_beta     94.56726130221283
_cell_angle_gamma    89.99959880773014

_space_group_name_H-M_alt    "P 1"
_space_group_IT_number       1

loop_
  _space_group_symop_operation_xyz
  'x, y, z'

loop_
  _atom_site_type_symbol
  _atom_site_label
  _atom_site_symmetry_multiplicity
  _atom_site_fract_x
  _atom_site_fract_y
  _atom_site_fract_z
  _atom_site_occupancy
  Cs  Cs1       1.0  0.2757316707357943  0.5646032172055372  0.5655805608578675  1.0000
  Cs  Cs2       1.0  0.22426140352800417  0.06460748847587182  0.4344209106998632  1.0000
  Cs  Cs3       1.0  0.7242674000343995  0.43539608557625104  0.43442093713005636  1.0000
  Cs  Cs4       1.0  0.7757362562602805  0.93539523372624  0.565579992945807  1.0000
  H   H1        1.0  0.21141368360851934  0.5526200555994194  0.987415894566645  1.0000
  H   H2        1.0  0.2885865132944332  0.05262624641721911  0.01258469335896  1.0000
  H   H3        1.0  0.7885839546499012  0.4473758277747495  0.012582799688644291  1.0000
  H   H4        1.0  0.7114167580363354  0.9473730563546994  0.9874152735606784  1.0000
  H   H5        1.0  0.4941106452744321  0.7116050005936146  0.9688943767943526  1.0000
  H   H6        1.0  0.0058811504107723  0.21161160920308228  0.0311086155896092  1.0000
  H   H7        1.0  0.5058856197320551  0.2883943021955205  0.0311075895573794  1.0000
  H   H8        1.0  0.9941207045430714  0.7883922527950916  0.9688902046388534  1.0000
  H   H9        1.0  0.6394329095456611  0.7058601306085777  0.8500827099516854  1.0000
  H   H10       1.0  0.8605573124403704  0.20586439929315503  0.1499185232523601  1.0000
  H   H11       1.0  0.3605661504445407  0.2941391721747381  0.14991768333946703  1.0000
  H   H12       1.0  0.13944454791350577  0.7941371830939232  0.8500808493255504  1.0000
  H   H13       1.0  0.105389382818295  0.6663280989689897  0.4141927413831539  1.0000
  H   H14       1.0  0.39461121820703227  0.1663241514208025  0.5858077831729389  1.0000
  H   H15       1.0  0.8946082877550126  0.33367348342641634  0.5858092669598135  1.0000
  H   H16       1.0  0.6053878525581451  0.8336762911661567  0.4141937148144592  1.0000
  H   H17       1.0  0.943161700726847  0.7936111897724488  0.4062338810531329  1.0000
  H   H18       1.0  0.5568333707049362  0.29361142135858387  0.5937674388082427  1.0000
  H   H19       1.0  0.05683315331781098  0.20638697321633262  0.5937674909584556  1.0000
  H   H20       1.0  0.44316712180206247  0.706390161027187  0.40623575821607716  1.0000
  H   H21       1.0  0.7945105684310859  0.5753623611620852  0.7727601260001505  1.0000
  H   H22       1.0  0.7054779864103152  0.0753616028653354  0.22724059179780906  1.0000
  H   H23       1.0  0.20548850770902757  0.4246415008396056  0.22724192433405213  1.0000
  H   H24       1.0  0.294521057419935  0.9246354203099402  0.7727581444492413  1.0000
  H   H25       1.0  0.6709976540927156  0.7280681743636068  0.7251523977977  1.0000
  H   H26       1.0  0.8289881609631138  0.22807000370512046  0.2748492412001156  1.0000
  H   H27       1.0  0.3290028222543313  0.27193112841413125  0.2748491421825179  1.0000
  H   H28       1.0  0.17100525515969164  0.7719292990974793  0.7251487747283321  1.0000
  H   H29       1.0  0.3090441397893287  0.3227852827441637  0.7090540101357161  1.0000
  H   H30       1.0  0.19095648338076637  0.8227867987089044  0.290945859082143  1.0000
  H   H31       1.0  0.6909563042177423  0.6772140200381642  0.2909442157541875  1.0000
  H   H32       1.0  0.809043966016297  0.17721250407265646  0.709052919156143  1.0000
  H   H33       1.0  0.083231906311255  0.4056771096690854  0.7136502130661739  1.0000
  H   H34       1.0  0.41676378083278814  0.9056773537926192  0.28635055806122967  1.0000
  H   H35       1.0  0.9167657427121013  0.5943221931190481  0.2863495858843023  1.0000
  H   H36       1.0  0.5832352629824129  0.09432308879816283  0.7136481781842363  1.0000
  H   H37       1.0  0.1468566892556069  0.24358288280857474  0.7677427327523247  1.0000
  H   H38       1.0  0.35314322592193986  0.7435847754995636  0.2322571678652423  1.0000
  H   H39       1.0  0.8531479930420075  0.7564164199585264  0.23225782850798987  1.0000
  H   H40       1.0  0.6468586236619842  0.2564145272787073  0.7677411000169555  1.0000
  C   C1        1.0  0.4406625108143841  0.5415327735669565  0.7997866397289426  1.0000
  C   C2        1.0  0.05932936106673739  0.041537479134198904  0.20021481121430174  1.0000
  C   C3        1.0  0.5593379547526709  0.45846652921230213  0.20021379555449664  1.0000
  C   C4        1.0  0.9406696719684716  0.9584629634581102  0.7997828203343929  1.0000
  C   C5        1.0  0.2784754857821312  0.4524095782246392  0.8078276495609344  1.0000
  C   C6        1.0  0.22152118455014858  0.9524111885773299  0.1921720155571478  1.0000
  C   C7        1.0  0.7215235580280462  0.547592004171314  0.1921710866840058  1.0000
  C   C8        1.0  0.7784778484950932  0.047586974404652004  0.8078256159926056  1.0000
  C   C9        1.0  0.199367035132191  0.4625744930415151  0.8760503527150403  1.0000
  C   C10       1.0  0.30062954565732264  0.9625792581429309  0.12394930298235349  1.0000
  C   C11       1.0  0.8006334088648402  0.537427089351148  0.12394787317380458  1.0000
  C   C12       1.0  0.6993680979810576  0.037418904840805615  0.8760499436202664  1.0000
  C   C13       1.0  0.2753723488636766  0.5521047531896459  0.9348235899886459  1.0000
  C   C14       1.0  0.22462364664139756  0.052107745550728196  0.0651779771358392  1.0000
  C   C15       1.0  0.7246252893746712  0.4478956894051934  0.06517510426452588  1.0000
  C   C16       1.0  0.7753782029475502  0.9478904174223715  0.9348202907468773  1.0000
  C   C17       1.0  0.4336247309618102  0.6394783623342166  0.9241719054514094  1.0000
  C   C18       1.0  0.0663676892207121  0.1394822258588135  0.0758300490725361  1.0000
  C   C19       1.0  0.5663729396064737  0.36052435986636067  0.0758301028910324  1.0000
  C   C20       1.0  0.9336313438044499  0.8605204963438312  0.9241675824751071  1.0000
  C   C21       1.0  0.516214450001577  0.6359778771609683  0.8568847988292986  1.0000
  C   C22       1.0  0.9837805988154784  0.13598374309433583  0.1431160727582395  1.0000
  C   C23       1.0  0.48379023767097346  0.3640248450208716  0.14311631477782066  1.0000
  C   C24       1.0  0.0162198451765292  0.8640189791034913  0.8568821531300798  1.0000
  C   C25       1.0  0.6926024873637857  0.6038783605329386  0.7257123048380052  1.0000
  C   C26       1.0  0.8073886274708642  0.10387803465101092  0.274288470520247  1.0000
  C   C27       1.0  0.307399394555098  0.39612208204590627  0.274289277133974  1.0000
  C   C28       1.0  0.19261181654123047  0.8961201283261461  0.7257097553701825  1.0000
  C   C29       1.0  0.7806811585286653  0.5575405668091379  0.6549878315918107  1.0000
  C   C30       1.0  0.71931036981605  0.05754168962265283  0.3450135390526512  1.0000
  C   C31       1.0  0.21931932322846137  0.4424541767471553  0.3450142607389068  1.0000
  C   C32       1.0  0.2806858682304139  0.9424598927806402  0.654985665556097  1.0000
  C   C33       1.0  0.20069376065636385  0.3504474717329345  0.7464281521739264  1.0000
  C   C34       1.0  0.2993023967468957  0.8504507525619972  0.2535710130849438  1.0000
  C   C35       1.0  0.7993066833507071  0.6495518310493864  0.2535700737159771  1.0000
  C   C36       1.0  0.700695246886461  0.14954855022691052  0.7464282335171432  1.0000
  Cl  Cl1       1.0  0.9970795681407906  0.3577112714755658  0.8888789991399405  1.0000
  Cl  Cl2       1.0  0.5029233721442663  0.8577200442835393  0.11112251327347877  1.0000
  Cl  Cl3       1.0  0.002925081841951299  0.6422823322702912  0.1111182480327031  1.0000
  Cl  Cl4       1.0  0.4970742822640587  0.14228039830900494  0.8888778380248608  1.0000
  O   O1        1.0  0.014761646121058899  0.7258535043918714  0.4417146708903842  1.0000
  O   O2        1.0  0.48523843599798505  0.22585367534961165  0.5582863508535212  1.0000
  O   O3        1.0  0.9852360136722493  0.27414807800506946  0.5582862327558118  1.0000
  O   O4        1.0  0.5147620510989412  0.77415246625759  0.4417162938202991  1.0000
  O   O5        1.0  0.5181667873102498  0.5270776348313716  0.7329119421559723  1.0000
  O   O6        1.0  0.9818278043202254  0.027079755783063306  0.2670878836556411  1.0000
  O   O7        1.0  0.4818350946086341  0.4729228077474732  0.2670896398160067  1.0000
  O   O8        1.0  0.018174045253665793  0.9729218266055429  0.732910384225498  1.0000
  O   O9        1.0  0.7142990893927531  0.44411081631011484  0.6170070266766954  1.0000
  O   O10       1.0  0.7857002788082781  0.9441092638195342  0.38299432169558395  1.0000
  O   O11       1.0  0.28570700387171394  0.5558884864521617  0.3829941289243024  1.0000
  O   O12       1.0  0.2143015815456053  0.055892318567544015  0.6170050508823265  1.0000
  O   O13       1.0  0.9203654330116746  0.6364386436312445  0.6398448749687231  1.0000
  O   O14       1.0  0.5796352556371077  0.13643937995942682  0.3601583735569277  1.0000
  O   O15       1.0  0.07964350376153818  0.3635572397028356  0.3601596787087473  1.0000
  O   O16       1.0  0.42037081067737586  0.8635599228066797  0.639840020302131  1.0000
