data_image0
_chemical_formula_structural       Mg6H36C66N6O24
_chemical_formula_sum              "Mg6 H36 C66 N6 O24"
_cell_length_a       6.939473947009896
_cell_length_b       34.83606377299332
_cell_length_c       34.83658406396614
_cell_angle_alpha    119.56475925481709
_cell_angle_beta     93.81054208557967
_cell_angle_gamma    93.80607318688409

_space_group_name_H-M_alt    "P 1"
_space_group_IT_number       1

loop_
  _space_group_symop_operation_xyz
  'x, y, z'

loop_
  _atom_site_type_symbol
  _atom_site_label
  _atom_site_symmetry_multiplicity
  _atom_site_fract_x
  _atom_site_fract_y
  _atom_site_fract_z
  _atom_site_occupancy
  Mg  Mg1       1.0  0.7627228949983474  0.6929014425575772  0.3268985275245271  1.0000
  Mg  Mg2       1.0  0.2724636584987508  0.30605900436518857  0.6713863911713959  1.0000
  Mg  Mg3       1.0  0.06981175884465778  0.6339794606276216  0.30709592190500257  1.0000
  Mg  Mg4       1.0  0.9663051220714108  0.3653407950758947  0.6939531344929647  1.0000
  Mg  Mg5       1.0  0.43582355179901094  0.6730940264451206  0.36600700465766073  1.0000
  Mg  Mg6       1.0  0.6010221450282032  0.32861775491559087  0.6346844392513233  1.0000
  H   H1        1.0  0.9906507911763922  0.5513249324176994  0.11910241864264039  1.0000
  H   H2        1.0  0.9990434686025578  0.6075482012324114  0.19621641470234852  1.0000
  H   H3        1.0  0.2962301972726633  0.5615496562084556  0.18370354813421835  1.0000
  H   H4        1.0  0.46400386054827436  0.5310623975214669  0.11522332191215418  1.0000
  H   H5        1.0  0.17828235558773994  0.548794678818517  0.07415529287230528  1.0000
  H   H6        1.0  0.3646060834264586  0.5124683695654325  0.01133041753801932  1.0000
  H   H7        1.0  0.8332631682143227  0.4446262558098154  0.9234247178693665  1.0000
  H   H8        1.0  0.646388215417076  0.48066155697006246  0.9864357225414296  1.0000
  H   H9        1.0  0.029135228950103464  0.4455828134238828  0.8786489308356736  1.0000
  H   H10       1.0  0.028763137602233285  0.38851176955788713  0.8015640259753738  1.0000
  H   H11       1.0  0.7324890554614853  0.4358537915099491  0.8181419448806367  1.0000
  H   H12       1.0  0.5567154790754996  0.46564473265868134  0.8854617755783565  1.0000
  H   H13       1.0  0.4394332689405401  0.5677693740882717  0.4486526793409666  1.0000
  H   H14       1.0  0.3913763650556489  0.5886722200444511  0.39245323480288624  1.0000
  H   H15       1.0  0.7346875949323532  0.6221577697534287  0.43846776858622866  1.0000
  H   H16       1.0  0.9329890836824007  0.5841642336079717  0.4689416970008438  1.0000
  H   H17       1.0  0.6296107442244434  0.52537049472204  0.4512144800852341  1.0000
  H   H18       1.0  0.8523761506681777  0.4988642933878324  0.48752476060435873  1.0000
  H   H19       1.0  0.3887280233385155  0.4787860212433657  0.5553281201572844  1.0000
  H   H20       1.0  0.16584139591382296  0.5057689372474884  0.5193183300224007  1.0000
  H   H21       1.0  0.5835613936575257  0.43307205194293624  0.5544318996112807  1.0000
  H   H22       1.0  0.6402811783785863  0.41304789987394486  0.6114800035516907  1.0000
  H   H23       1.0  0.29665357235390377  0.38228473796780804  0.5641498245618453  1.0000
  H   H24       1.0  0.0911115131971484  0.41980256147299844  0.5343613091382053  1.0000
  H   H25       1.0  0.871726589730876  0.8808671889307219  0.43221421472424026  1.0000
  H   H26       1.0  0.8027993572038878  0.8037482933398863  0.41131039711698497  1.0000
  H   H27       1.0  0.11262877761980399  0.8163032790120964  0.3778462646690458  1.0000
  H   H28       1.0  0.34891234675410476  0.884752345766934  0.41582250151298444  1.0000
  H   H29       1.0  0.10426742251862448  0.9258297270522106  0.4746198031839058  1.0000
  H   H30       1.0  0.3535471499044858  0.9886574644367272  0.5011315568700923  1.0000
  H   H31       1.0  0.909947538659452  0.0765443916014661  0.5211939532614593  1.0000
  H   H32       1.0  0.6601455359776623  0.013547557147653301  0.4942250046133482  1.0000
  H   H33       1.0  0.150528413208086  0.1213488463988099  0.5669201032094124  1.0000
  H   H34       1.0  0.22728898661367938  0.19845079595711468  0.5869540793886614  1.0000
  H   H35       1.0  0.9144485522881497  0.1818472188106313  0.6177280636544396  1.0000
  H   H36       1.0  0.6712574799107714  0.11453661107965023  0.58019089796732  1.0000
  C   C1        1.0  0.7657697417683166  0.5370487582306467  0.07078195406383271  1.0000
  C   C2        1.0  0.7426149474615328  0.5678269527131263  0.15120736278184674  1.0000
  C   C3        1.0  0.8440910423591956  0.5971357971393515  0.1928983254368859  1.0000
  C   C4        1.0  0.7510284468186511  0.6153176438731975  0.23192336427647584  1.0000
  C   C5        1.0  0.5466317634483316  0.6024007121541358  0.22785983901631826  1.0000
  C   C6        1.0  0.4499698915560444  0.5718368006039612  0.1854608721986822  1.0000
  C   C7        1.0  0.5421971125873595  0.5545429434099204  0.1474381745709649  1.0000
  C   C8        1.0  0.4317421057490093  0.6183574313766799  0.26568205419353325  1.0000
  C   C9        1.0  0.8962277916663197  0.5169209345114751  0.03495587387994459  1.0000
  C   C10       1.0  0.09956370147304476  0.5255778972410782  0.04156099983111976  1.0000
  C   C11       1.0  0.20711155999426714  0.5054547058125181  0.005761743741700816  1.0000
  C   C12       1.0  0.11477349178885986  0.47654949926946705  0.9627406828360849  1.0000
  C   C13       1.0  0.91142751717625  0.46791578987568977  0.956061354658317  1.0000
  C   C14       1.0  0.8038234933687176  0.48796124650988304  0.9919248534367284  1.0000
  C   C15       1.0  0.24652355796302314  0.45622966675929183  0.9272121333972622  1.0000
  C   C16       1.0  0.28081098063695004  0.42847121924720005  0.8478819320497308  1.0000
  C   C17       1.0  0.18391199134520508  0.3991547332733417  0.8057918893524842  1.0000
  C   C18       1.0  0.28148299821386047  0.3813240369082465  0.7674633247521214  1.0000
  C   C19       1.0  0.48606872804251106  0.39462999126626397  0.7726258018805937  1.0000
  C   C20       1.0  0.5784495706449418  0.42518128129550803  0.8155156522482444  1.0000
  C   C21       1.0  0.48159750040289845  0.44210771059616144  0.852886270693631  1.0000
  C   C22       1.0  0.604338204325728  0.37931210793457376  0.7353862396909464  1.0000
  C   C23       1.0  0.22887572409014464  0.5337401553785311  0.4629465102763746  1.0000
  C   C24       1.0  0.17486617183750036  0.5833981180485921  0.4322010145465499  1.0000
  C   C25       1.0  0.24689736234510207  0.5957797052770745  0.402887990709445  1.0000
  C   C26       1.0  0.13569679170478097  0.616626135455597  0.38471950870201244  1.0000
  C   C27       1.0  0.9442526033485023  0.625491123680739  0.39764101081741643  1.0000
  C   C28       1.0  0.8781868918448834  0.6136507145140513  0.4281992868352091  1.0000
  C   C29       1.0  0.9877407966583218  0.5929026046270423  0.44547190910004986  1.0000
  C   C30       1.0  0.8134068880078756  0.6473195549069005  0.3816385856531356  1.0000
  C   C31       1.0  0.379470975785871  0.5180425943399313  0.4830712721138752  1.0000
  C   C32       1.0  0.5741852150101392  0.5160065821225288  0.47444192428906723  1.0000
  C   C33       1.0  0.7019271073999744  0.5003349140579444  0.4945631288922954  1.0000
  C   C34       1.0  0.6383951930552882  0.48620859890041856  0.5234555287810139  1.0000
  C   C35       1.0  0.44364144053599824  0.48815690923371585  0.5320620371261101  1.0000
  C   C36       1.0  0.3159778672045163  0.5039707611590742  0.5120200589969104  1.0000
  C   C37       1.0  0.7903485928092093  0.4709714744606472  0.5437654362078135  1.0000
  C   C38       1.0  0.8523828373610343  0.4194156080610226  0.5715283036583898  1.0000
  C   C39       1.0  0.7848034664805467  0.40664833689397994  0.6008456847777667  1.0000
  C   C40       1.0  0.900228633758452  0.38615802792496373  0.6186828330561767  1.0000
  C   C41       1.0  0.09156009723788829  0.3780212243455523  0.6054020623706862  1.0000
  C   C42       1.0  0.1533139734272452  0.3903366800797556  0.5748319795376275  1.0000
  C   C43       1.0  0.03949791267532276  0.410766207702018  0.5578940761148133  1.0000
  C   C44       1.0  0.22506859612638402  0.3560712009312894  0.6207097246372086  1.0000
  C   C45       1.0  0.6952149167317215  0.9291946678257048  0.466245512504493  1.0000
  C   C46       1.0  0.5915518748894114  0.8487763010963006  0.41659560149943087  1.0000
  C   C47       1.0  0.6511961664379554  0.8070770917283525  0.40420033882956835  1.0000
  C   C48       1.0  0.5190617928342078  0.7680628227518441  0.38335974285646307  1.0000
  C   C49       1.0  0.3187398365863031  0.7721247326798705  0.37450540524736203  1.0000
  C   C50       1.0  0.26461502420024613  0.8145315326271642  0.38635943222166697  1.0000
  C   C51       1.0  0.394942687057167  0.8525462000771994  0.40708968955325286  1.0000
  C   C52       1.0  0.16602111689313398  0.7343103524162516  0.3526785021298694  1.0000
  C   C53       1.0  0.8614769372982138  0.9650270651531444  0.4819645483889447  1.0000
  C   C54       1.0  0.058212275568528975  0.9584365173949793  0.48402963230905294  1.0000
  C   C55       1.0  0.2016407984177846  0.9942363394288166  0.49969700582354204  1.0000
  C   C56       1.0  0.15226041808200108  0.03724971697913299  0.5137928566674291  1.0000
  C   C57       1.0  0.9555584798946698  0.043915676158000794  0.5118409176240277  1.0000
  C   C58       1.0  0.8121064618550662  0.008057384787818499  0.49603673929926373  1.0000
  C   C59       1.0  0.31946246129300687  0.07279608254378189  0.529016054355921  1.0000
  C   C60       1.0  0.433004033035317  0.15212983722011586  0.5806003859800413  1.0000
  C   C61       1.0  0.37821547237034275  0.1942193933538974  0.5933624044398869  1.0000
  C   C62       1.0  0.5142219656968123  0.23253503856395952  0.6138512384630559  1.0000
  C   C63       1.0  0.7136663084683335  0.22737950755617217  0.6220048241447174  1.0000
  C   C64       1.0  0.7630432944661862  0.1844833633746958  0.609692129871938  1.0000
  C   C65       1.0  0.6287744731631761  0.14711881717557418  0.5892428616933287  1.0000
  C   C66       1.0  0.8691741767609641  0.2646311394764211  0.6439348468818267  1.0000
  N   N1        1.0  0.8448856823890765  0.5510536717370796  0.11369002613156443  1.0000
  N   N2        1.0  0.17364317546083186  0.4448468402926551  0.8846319355573726  1.0000
  N   N3        1.0  0.293952916114378  0.5626436980105466  0.44894613101285336  1.0000
  N   N4        1.0  0.7288049503838535  0.43977470704773935  0.5551427504147242  1.0000
  N   N5        1.0  0.7313802327349705  0.8862837026884733  0.43734848220931616  1.0000
  N   N6        1.0  0.28908122447155904  0.1153732152202664  0.5602114393965038  1.0000
  O   O1        1.0  0.2523343796288626  0.6041980699166557  0.2606579770198962  1.0000
  O   O2        1.0  0.5175062521823152  0.6476675588529874  0.30455452177516673  1.0000
  O   O3        1.0  0.8579102044121851  0.6439494281978497  0.2706187114627242  1.0000
  O   O4        1.0  0.7841013215867392  0.39358675305773255  0.7411777647826554  1.0000
  O   O5        1.0  0.5209465055910272  0.35052154267822994  0.6960683614745875  1.0000
  O   O6        1.0  0.17713189587072256  0.35272214889982934  0.7284214966201646  1.0000
  O   O7        1.0  0.5940491847294708  0.5401688977930306  0.06205822031144231  1.0000
  O   O8        1.0  0.4146079696179966  0.4509086797518336  0.935958428684657  1.0000
  O   O9        1.0  0.6481532725001101  0.6564508468774973  0.39579254968361965  1.0000
  O   O10       1.0  0.8698383790747001  0.6568538174000481  0.3523095526167951  1.0000
  O   O11       1.0  0.213914762308498  0.6266693588042572  0.3560738265307109  1.0000
  O   O12       1.0  0.3905272287097573  0.34757840171729976  0.6064242623619762  1.0000
  O   O13       1.0  0.17046751609495187  0.34553301614311477  0.6494884052993299  1.0000
  O   O14       1.0  0.8244149383323957  0.3757038708211979  0.6472723802486372  1.0000
  O   O15       1.0  0.05405109358841285  0.5219152105570756  0.45985907925909697  1.0000
  O   O16       1.0  0.9637928125488315  0.48502884819374953  0.5490897582341816  1.0000
  O   O17       1.0  0.9916442822718851  0.7393494484975991  0.34355630249259417  1.0000
  O   O18       1.0  0.2129114804896658  0.6954435282576837  0.34312874994771647  1.0000
  O   O19       1.0  0.5872775604616719  0.7293727423790413  0.37331576718947446  1.0000
  O   O20       1.0  0.04312501957573997  0.2588442468615  0.652431566075002  1.0000
  O   O21       1.0  0.8250582562637305  0.30394246475666625  0.6544510672590179  1.0000
  O   O22       1.0  0.4488481596108257  0.2715739389729351  0.6242877601895032  1.0000
  O   O23       1.0  0.5321886378944285  0.9379266263809143  0.4780577521012433  1.0000
  O   O24       1.0  0.47887016119820197  0.064061105156398  0.5149691227244872  1.0000
