data_image0
_chemical_formula_structural       Zn8H56C58S4O26
_chemical_formula_sum              "Zn8 H56 C58 S4 O26"
_cell_length_a       17.85498501854655
_cell_length_b       18.594470326687446
_cell_length_c       19.366130000726532
_cell_angle_alpha    118.82394222379139
_cell_angle_beta     115.98051875360889
_cell_angle_gamma    89.91151852191716

_space_group_name_H-M_alt    "P 1"
_space_group_IT_number       1

loop_
  _space_group_symop_operation_xyz
  'x, y, z'

loop_
  _atom_site_type_symbol
  _atom_site_label
  _atom_site_symmetry_multiplicity
  _atom_site_fract_x
  _atom_site_fract_y
  _atom_site_fract_z
  _atom_site_occupancy
  Zn  Zn1       1.0  0.8709150702225942  0.45795809061817755  0.9211943082992349  1.0000
  Zn  Zn2       1.0  0.036930066208611785  0.44880732121792744  0.06906064661507119  1.0000
  Zn  Zn3       1.0  0.0324429560166948  0.6187729689367885  0.0669198281111179  1.0000
  Zn  Zn4       1.0  0.046528120278836016  0.4559626674498249  0.9087833986490425  1.0000
  Zn  Zn5       1.0  0.6232085123606481  0.032299326281410905  0.06809501215673922  1.0000
  Zn  Zn6       1.0  0.45877012725895827  0.8717816172146585  0.9138796213495796  1.0000
  Zn  Zn7       1.0  0.46388065924065097  0.04220883965305684  0.9143433205311879  1.0000
  Zn  Zn8       1.0  0.44074029159429534  0.03542263215708631  0.06731757808469041  1.0000
  H   H1        1.0  0.7916041870007078  0.1800166026979255  0.3617181658966118  1.0000
  H   H2        1.0  0.31355551162354084  0.6921017778240001  0.6130000349562009  1.0000
  H   H3        1.0  0.7859578968053356  0.6834123335692086  0.8793897982960958  1.0000
  H   H4        1.0  0.8717383585220945  0.7687436976834123  0.9827711441076732  1.0000
  H   H5        1.0  0.7822792488619897  0.86043470727725  0.9796174384707755  1.0000
  H   H6        1.0  0.6966279094659173  0.7744320352524244  0.8767444531505078  1.0000
  H   H7        1.0  0.8030919758407508  0.8935381544368184  0.1296769886536779  1.0000
  H   H8        1.0  0.7322508764735502  0.8326615867948634  0.13474584549257432  1.0000
  H   H9        1.0  0.8917814947516406  0.8007233988812743  0.13263873519133543  1.0000
  H   H10       1.0  0.8194271825862175  0.739494248444757  0.13588916111481103  1.0000
  H   H11       1.0  0.6822942354715877  0.5932824896618386  0.883188224381101  1.0000
  H   H12       1.0  0.6960184988615836  0.6157922770474402  0.9877199403260948  1.0000
  H   H13       1.0  0.6071211305376281  0.7080130051890238  0.9858010707822515  1.0000
  H   H14       1.0  0.5933985961523193  0.685403691590537  0.8812907882933346  1.0000
  H   H15       1.0  0.09143844639264394  0.1825487429450805  0.8700502614181149  1.0000
  H   H16       1.0  0.10896161251623224  0.2086329457750083  0.9776483013453259  1.0000
  H   H17       1.0  0.19787673853298318  0.116042846167261  0.9787084971426909  1.0000
  H   H18       1.0  0.18019539438095927  0.09102631520573119  0.8713781881416622  1.0000
  H   H19       1.0  0.3205872937875114  0.23817294346822857  0.12200307910897122  1.0000
  H   H20       1.0  0.39200337913544564  0.3000023341844198  0.11835691345982723  1.0000
  H   H21       1.0  0.2328671622294181  0.33191347996452697  0.12117375684883312  1.0000
  H   H22       1.0  0.3038328239994216  0.3919750433959024  0.11538007347711951  1.0000
  H   H23       1.0  0.1914900875844907  0.26986310340642217  0.860626523888776  1.0000
  H   H24       1.0  0.27797127734046256  0.35568959318108295  0.9602902515662849  1.0000
  H   H25       1.0  0.3673905721885333  0.2641062814635974  0.9626508621387374  1.0000
  H   H26       1.0  0.2811173716168441  0.17836118287906547  0.8628598830461415  1.0000
  H   H27       1.0  0.8250019364468458  0.19365372730230504  0.9137668507668196  1.0000
  H   H28       1.0  0.7335079051496578  0.22259595002578442  0.8582440979175274  1.0000
  H   H29       1.0  0.6457910516370619  0.12658086260930193  0.8551962807785857  1.0000
  H   H30       1.0  0.737929936939473  0.09905959579022297  0.9119499104504954  1.0000
  H   H31       1.0  0.5979936462566897  0.24793011674515944  0.9447128729697312  1.0000
  H   H32       1.0  0.6547847256937872  0.3054492163809713  0.06458753263328991  1.0000
  H   H33       1.0  0.6870771342961106  0.3445378098406025  0.9492191325437389  1.0000
  H   H34       1.0  0.7441908056104793  0.40056232386812235  0.06905652978376511  1.0000
  H   H35       1.0  0.9087946879544829  0.27529835713718853  0.08701751640116132  1.0000
  H   H36       1.0  0.8760483409311491  0.35996302997912727  0.1501583163809812  1.0000
  H   H37       1.0  0.786954476074243  0.2654451410858131  0.14725573393635472  1.0000
  H   H38       1.0  0.8202066112243926  0.18082521876371524  0.08482105931253162  1.0000
  H   H39       1.0  0.08695212530203368  0.7198951507584255  0.9025773872685079  1.0000
  H   H40       1.0  0.12230792050787898  0.6350062269998347  0.8417536687402319  1.0000
  H   H41       1.0  0.2097999685228728  0.7304234884443448  0.8439889021714039  1.0000
  H   H42       1.0  0.17562693984594088  0.8152118482308739  0.9067556987364612  1.0000
  H   H43       1.0  0.3388288822758909  0.6896461449990741  0.924583452471538  1.0000
  H   H44       1.0  0.39824831061216776  0.7462089364936589  0.04433914284517471  1.0000
  H   H45       1.0  0.25112807172683194  0.5956421348395012  0.9243160063513757  1.0000
  H   H46       1.0  0.3101506564271049  0.6538591498548741  0.044163500102833105  1.0000
  H   H47       1.0  0.17030563497983311  0.8046012749771309  0.07568732617219351  1.0000
  H   H48       1.0  0.26063514994877585  0.7774980050005952  0.13404888464650358  1.0000
  H   H49       1.0  0.3505809743055934  0.8704120602116702  0.1360720541924536  1.0000
  H   H50       1.0  0.26043595062834873  0.8986582542682842  0.07909981829467941  1.0000
  H   H51       1.0  0.6743409181855782  0.38218192404275436  0.6698185144869696  1.0000
  H   H52       1.0  0.5988759687032683  0.2846188409790288  0.5698250478844998  1.0000
  H   H53       1.0  0.6749031175978075  0.28786481226261884  0.670037201560902  1.0000
  H   H54       1.0  0.11368620887959928  0.8146599963597795  0.32740431560815614  1.0000
  H   H55       1.0  0.21352510805569844  0.8869633039946268  0.426556724683195  1.0000
  H   H56       1.0  0.20938262694919266  0.8130024822823076  0.3218353645995862  1.0000
  C   C1        1.0  0.8579548638283968  0.3639732683202652  0.0028194266546179994  1.0000
  C   C2        1.0  0.1209208301208378  0.6190931242781376  0.23707841848247574  1.0000
  C   C3        1.0  0.8558557195410829  0.6361832623304056  0.0005601078838282017  1.0000
  C   C4        1.0  0.13559998247103514  0.6313192827884394  0.9850009709996004  1.0000
  C   C5        1.0  0.8712783141370013  0.3726871519425076  0.746113560986352  1.0000
  C   C6        1.0  0.13637966488489878  0.3545633490004577  0.9845087469394899  1.0000
  C   C7        1.0  0.6395111659056667  0.8579358401678123  0.9955535385470144  1.0000
  C   C8        1.0  0.38117744599834685  0.8716353186122563  0.7451022188666842  1.0000
  C   C9        1.0  0.642605825893341  0.1357015265611921  0.9962935821464853  1.0000
  C   C10       1.0  0.35359905948232034  0.1327884891944039  0.9879472007021662  1.0000
  C   C11       1.0  0.6109916066235999  0.11813039935938016  0.23667942583325904  1.0000
  C   C12       1.0  0.3513353702865912  0.8570688875915452  0.9881420364755797  1.0000
  C   C13       1.0  0.7285108923078668  0.29665421925091107  0.5932493921899323  1.0000
  C   C14       1.0  0.7491957712726319  0.19485274908397096  0.39055599456440865  1.0000
  C   C15       1.0  0.8185720036089849  0.32303122291077824  0.6465416597903443  1.0000
  C   C16       1.0  0.6599989414819804  0.16835029566916404  0.3368121318201887  1.0000
  C   C17       1.0  0.7747067183299948  0.2416973576434175  0.48376204579469834  1.0000
  C   C18       1.0  0.704468137856054  0.2501259335971398  0.49997148522396634  1.0000
  C   C19       1.0  0.1984064843948232  0.7584286611920207  0.39413813186447305  1.0000
  C   C20       1.0  0.30006815711770674  0.7346434624368995  0.5880587147984214  1.0000
  C   C21       1.0  0.17031824679735763  0.6699044714835977  0.3365879666471728  1.0000
  C   C22       1.0  0.3291246302573967  0.8224099937680124  0.6454997469895148  1.0000
  C   C23       1.0  0.2523842356128442  0.710644557814348  0.4963904241121497  1.0000
  C   C24       1.0  0.2456138655712863  0.7806520863994779  0.4855741869680302  1.0000
  C   C25       1.0  0.8038274243996355  0.7346255420761808  0.9489199206513561  1.0000
  C   C26       1.0  0.7445443542452921  0.7954659062719076  0.9471759792811768  1.0000
  C   C27       1.0  0.6967149820796622  0.7973379144881536  0.9979317135046062  1.0000
  C   C28       1.0  0.765138821335782  0.8286639320809358  0.0969469807454928  1.0000
  C   C29       1.0  0.8236669181059852  0.767228732436209  0.09834470589942872  1.0000
  C   C30       1.0  0.7960247289424629  0.6945595463840989  0.00032265639835319813  1.0000
  C   C31       1.0  0.7014502679522963  0.6456808969773604  0.9524480349932319  1.0000
  C   C32       1.0  0.6426468969856317  0.706616444456863  0.9511766767571502  1.0000
  C   C33       1.0  0.1419301019101765  0.2052303963491298  0.9401715704349343  1.0000
  C   C34       1.0  0.20109021379203534  0.14405722160616827  0.9410888653493146  1.0000
  C   C35       1.0  0.29581853324084045  0.19307629741186366  0.9861350746980622  1.0000
  C   C36       1.0  0.323964018724773  0.26591942438869154  0.08428679229985653  1.0000
  C   C37       1.0  0.26541520307939953  0.3272675764600238  0.0830740795905385  1.0000
  C   C38       1.0  0.19609912470636448  0.29585509987028763  0.9841469984504272  1.0000
  C   C39       1.0  0.24074628181339355  0.2913656191182597  0.9306444253059782  1.0000
  C   C40       1.0  0.2999994714119438  0.23070877466665252  0.9320908245646607  1.0000
  C   C41       1.0  0.7689146739660515  0.21620241783453772  0.9169473691957323  1.0000
  C   C42       1.0  0.710677125885212  0.15299098999224742  0.9152164747713274  1.0000
  C   C43       1.0  0.7024032639831219  0.19889378273927605  0.0017631217918107989  1.0000
  C   C44       1.0  0.6629357056780664  0.27360191708628184  0.0044446744652262  1.0000
  C   C45       1.0  0.721971735078121  0.3369733800136033  0.0071179235235164  1.0000
  C   C46       1.0  0.8013088862588378  0.3050767780476208  0.0051964821798407  1.0000
  C   C47       1.0  0.8516027913804081  0.29664928556786674  0.08757122369182471  1.0000
  C   C48       1.0  0.792810067550299  0.23399000958829677  0.08579082781568562  1.0000
  C   C49       1.0  0.14473372731882242  0.6988009194224035  0.9032567634981491  1.0000
  C   C50       1.0  0.2034470053345386  0.7619493895592983  0.9051086675545861  1.0000
  C   C51       1.0  0.2945672910056416  0.797636459046352  0.9899937512028745  1.0000
  C   C52       1.0  0.3324908040171123  0.721798017043625  0.9856655702000197  1.0000
  C   C53       1.0  0.274049173371921  0.6598837402613499  0.9851931281593522  1.0000
  C   C54       1.0  0.19529259332016835  0.6925926151066834  0.9878596775919704  1.0000
  C   C55       1.0  0.22663117315553905  0.7820214767275218  0.07386068556481722  1.0000
  C   C56       1.0  0.2859893107826467  0.8439691860950875  0.07553535011753351  1.0000
  C   C57       1.0  0.665457814715893  0.3135262516578125  0.6271125315228192  1.0000
  C   C58       1.0  0.18309570996492394  0.8219345382066194  0.3663248381942736  1.0000
  S   S1        1.0  0.8719871250775173  0.29165177511914936  0.5841120320784726  1.0000
  S   S2        1.0  0.6067349531928983  0.20015566353561107  0.39924947446007053  1.0000
  S   S3        1.0  0.2003682707803875  0.6156435146541527  0.3928823263178245  1.0000
  S   S4        1.0  0.2983325743821794  0.8761706109382391  0.5889609980602445  1.0000
  O   O1        1.0  0.9975223087002193  0.4943415050819059  0.9901899043163951  1.0000
  O   O2        1.0  0.8197084930927616  0.3851950210969834  0.9449007698739467  1.0000
  O   O3        1.0  0.10517854409212653  0.5380216310061601  0.1990219091145917  1.0000
  O   O4        1.0  0.9368441976476304  0.6723851496114934  0.0518891246238766  1.0000
  O   O5        1.0  0.9390458048492365  0.38606194358055046  0.05689647480738811  1.0000
  O   O6        1.0  0.8212511843197277  0.5561164248128493  0.9486649510494871  1.0000
  O   O7        1.0  0.09807238240942702  0.6597346755117357  0.19679134181417623  1.0000
  O   O8        1.0  0.1066210497527393  0.6648526437095797  0.039763376199971404  1.0000
  O   O9        1.0  0.9535841923184307  0.3896313686976143  0.7801446785592248  1.0000
  O   O10       1.0  0.11821572158807915  0.5517301509131445  0.9278502533309948  1.0000
  O   O11       1.0  0.8304708414895073  0.39473146089383  0.7902569067940419  1.0000
  O   O12       1.0  0.10490811065919563  0.3694449624441774  0.03648249885984709  1.0000
  O   O13       1.0  0.1217912120064071  0.38357606040395364  0.9334301298371416  1.0000
  O   O14       1.0  0.49682412901942996  0.996281732461114  0.9926789816819265  1.0000
  O   O15       1.0  0.677279156335814  0.9375423308581293  0.0455559788547504  1.0000
  O   O16       1.0  0.4030431019306561  0.8294242345673697  0.7835556671996571  1.0000
  O   O17       1.0  0.5629800206842431  0.11209973401216192  0.935942476234132  1.0000
  O   O18       1.0  0.5583412095146444  0.8246082541840637  0.9430564315836849  1.0000
  O   O19       1.0  0.6759910784864901  0.11054690121098792  0.05109328959697731  1.0000
  O   O20       1.0  0.40005001718353134  0.952760226889865  0.7842589663638578  1.0000
  O   O21       1.0  0.38697259098669423  0.1141819574912333  0.9372792972132444  1.0000
  O   O22       1.0  0.5284822640584822  0.10196057094502463  0.19838360355910822  1.0000
  O   O23       1.0  0.36416507927508235  0.10547818877955713  0.0399746328252562  1.0000
  O   O24       1.0  0.6560756204407099  0.09534999627508262  0.1973948800756347  1.0000
  O   O25       1.0  0.37458157331125363  0.8217368896009491  0.9283417177662089  1.0000
  O   O26       1.0  0.37078945574091193  0.9367995684963119  0.0451320464428093  1.0000
