data_image0
_chemical_formula_structural       Zn8H37C70Br5O33
_chemical_formula_sum              "Zn8 H37 C70 Br5 O33"
_cell_length_a       18.449633071188586
_cell_length_b       18.46885707327884
_cell_length_c       18.460733166943204
_cell_angle_alpha    59.533614245714226
_cell_angle_beta     60.22637348016488
_cell_angle_gamma    59.64498225650339

_space_group_name_H-M_alt    "P 1"
_space_group_IT_number       1

loop_
  _space_group_symop_operation_xyz
  'x, y, z'

loop_
  _atom_site_type_symbol
  _atom_site_label
  _atom_site_symmetry_multiplicity
  _atom_site_fract_x
  _atom_site_fract_y
  _atom_site_fract_z
  _atom_site_occupancy
  Zn  Zn1       1.0  0.9580978822338508  0.4530393891148278  0.46046946132973  1.0000
  Zn  Zn2       1.0  0.1326679765411924  0.45333424243809617  0.45622494680767295  1.0000
  Zn  Zn3       1.0  0.9551313248333672  0.45785558892934825  0.6307439620566909  1.0000
  Zn  Zn4       1.0  0.9570879424579529  0.629673776346408  0.4584209313580774  1.0000
  Zn  Zn5       1.0  0.5414963869271006  0.0450473155826145  0.04592159221376594  1.0000
  Zn  Zn6       1.0  0.5455075630257014  0.040870457665207  0.8733411540467697  1.0000
  Zn  Zn7       1.0  0.37055281564945375  0.0381983202321479  0.048772364921738635  1.0000
  Zn  Zn8       1.0  0.5454235949211748  0.8672036624821761  0.04623917691557022  1.0000
  H   H1        1.0  0.6685243727112463  0.3605730836949094  0.5430670276631346  1.0000
  H   H2        1.0  0.8021956279199925  0.5857375141862067  0.8176738846433054  1.0000
  H   H3        1.0  0.7178715383214326  0.39402133203898165  0.38013390027108324  1.0000
  H   H4        1.0  0.709243752085577  0.6786524199533941  0.9146744358913917  1.0000
  H   H5        1.0  0.6456821381836944  0.9634566182695681  0.6320512632076857  1.0000
  H   H6        1.0  0.7506360177246594  0.8734908067390351  0.5304892714738825  1.0000
  H   H7        1.0  0.8423124742045687  0.8791510065005853  0.5344514595536936  1.0000
  H   H8        1.0  0.3185164779642662  0.5830538095747145  0.29803126209242947  1.0000
  H   H9        1.0  0.414590768824013  0.6772562730619782  0.19960213138919877  1.0000
  H   H10       1.0  0.12503013779786437  0.9625912786830355  0.15613861698534487  1.0000
  H   H11       1.0  0.04163654855531013  0.8721861830881039  0.3557615879872244  1.0000
  H   H12       1.0  0.7503567434236018  0.09976063830496433  0.1755335350595075  1.0000
  H   H13       1.0  0.7536833387044696  0.5326065941585655  0.2732173288883287  1.0000
  H   H14       1.0  0.024955840219966777  0.8719447145218099  0.268623883043638  1.0000
  H   H15       1.0  0.09290881043371972  0.3437947383132496  0.8084518425478533  1.0000
  H   H16       1.0  0.3381923649000811  0.17098774541727832  0.5823579300566164  1.0000
  H   H17       1.0  0.6935033534836135  0.6036070366253343  0.49090537289799824  1.0000
  H   H18       1.0  0.43026883197320837  0.2965273478407511  0.0930590644193927  1.0000
  H   H19       1.0  0.3318762406341235  0.4007884280377638  0.18099926095971602  1.0000
  H   H20       1.0  0.6578327461390359  0.46504062102803806  0.5979660534279745  1.0000
  H   H21       1.0  0.6478239754233854  0.7004636937620248  0.2524455107458722  1.0000
  H   H22       1.0  0.850827973586533  0.7974461820792058  0.255582611727604  1.0000
  H   H23       1.0  0.7240184174693239  0.9547447010165229  0.25826802977084645  1.0000
  H   H24       1.0  0.8383270315250826  0.06167554778696879  0.9287554094479873  1.0000
  H   H25       1.0  0.7935408299981362  0.9677331987524626  0.6377769346278866  1.0000
  H   H26       1.0  0.13714700087847828  0.9625215136425211  0.3031821453146577  1.0000
  H   H27       1.0  0.21785245402468698  0.21191420861377713  0.955182417860946  1.0000
  H   H28       1.0  0.5150197888923103  0.18825098970627607  0.5637617211199029  1.0000
  H   H29       1.0  0.050710675010058964  0.280316577122143  0.39797109291392  1.0000
  H   H30       1.0  0.21830034786513863  0.10137955499551773  0.22742961006417767  1.0000
  H   H31       1.0  0.4177859579488014  0.26514933734839735  0.3073628182781647  1.0000
  H   H32       1.0  0.7524707600829004  0.3413551842117642  0.8117882601002008  1.0000
  H   H33       1.0  0.657819200617887  0.24616737963415147  0.9068357188451369  1.0000
  H   H34       1.0  0.8180070642260873  0.0842673393477043  0.6698904447528379  1.0000
  H   H35       1.0  0.731307336350426  0.17090883528585718  0.6258504603860543  1.0000
  H   H36       1.0  0.9145359928602589  0.1798194927004033  0.5735679485702007  1.0000
  H   H37       1.0  0.8282645538300245  0.26833327153330094  0.5293881426392345  1.0000
  C   C1        1.0  0.13873628197718804  0.6364371372221669  0.3658473649751314  1.0000
  C   C2        1.0  0.7429000786653361  0.6622835106076013  0.31147453180460616  1.0000
  C   C3        1.0  0.7972881000029235  0.9575293999415778  0.04902107621415287  1.0000
  C   C4        1.0  0.8618886408144348  0.36040212479932876  0.64138707291405  1.0000
  C   C5        1.0  0.8129572905189378  0.0386226117095347  0.0009675627005948303  1.0000
  C   C6        1.0  0.7963298466347768  0.08875403830109012  0.04745797812498142  1.0000
  C   C7        1.0  0.7638021701032686  0.05968442921776071  0.13998957947945462  1.0000
  C   C8        1.0  0.7493256047406123  0.9782638724207473  0.1858851497489413  1.0000
  C   C9        1.0  0.7655421487796229  0.9248657207377704  0.14230251416532985  1.0000
  C   C10       1.0  0.8032344341909764  0.24916971341374963  0.6674415688621949  1.0000
  C   C11       1.0  0.8056164324832551  0.3031468020192492  0.6978139291812299  1.0000
  C   C12       1.0  0.6997029533749812  0.5570417448713556  0.46669657055229397  1.0000
  C   C13       1.0  0.7516448733140135  0.300617398790486  0.7856517521380795  1.0000
  C   C14       1.0  0.6983136137957331  0.2472920352718404  0.8389791900349051  1.0000
  C   C15       1.0  0.6954520565846425  0.1936426937086324  0.8074364523717177  1.0000
  C   C16       1.0  0.1404171498421222  0.3526469744650739  0.3690635493085778  1.0000
  C   C17       1.0  0.7494321082471558  0.1960461076876214  0.7207265497315446  1.0000
  C   C18       1.0  0.7818316941084335  0.1565773317616816  0.6508235715584759  1.0000
  C   C19       1.0  0.84279600161549  0.21676739975470838  0.5904924943949226  1.0000
  C   C20       1.0  0.7767909151357343  0.7902043554629898  0.6598979262253267  1.0000
  C   C21       1.0  0.8057284235262756  0.6971086969645058  0.6948442019667026  1.0000
  C   C22       1.0  0.7801240163233774  0.6582991918299256  0.7882966720460444  1.0000
  C   C23       1.0  0.6790443481842203  0.47962563407974557  0.526779657484532  1.0000
  C   C24       1.0  0.7281116428000018  0.7103353236824717  0.8426884560468011  1.0000
  C   C25       1.0  0.6980357570145088  0.8043990104863923  0.806933452388037  1.0000
  C   C26       1.0  0.7237969163667516  0.8424469063715918  0.7143782560365962  1.0000
  C   C27       1.0  0.7135748726865502  0.9297722036322326  0.6352604008483949  1.0000
  C   C28       1.0  0.8616407475733893  0.6403529268901949  0.6380673201513146  1.0000
  C   C29       1.0  0.7776517871566638  0.8693640388120016  0.5742921536523937  1.0000
  C   C30       1.0  0.16018815210489384  0.7866422358903405  0.2815292087563606  1.0000
  C   C31       1.0  0.19544107792621188  0.6935810416765877  0.30822323711431193  1.0000
  C   C32       1.0  0.2887927485443242  0.6555728243645332  0.27756680131158623  1.0000
  C   C33       1.0  0.34269857110683694  0.708376139093275  0.22228592322348825  1.0000
  C   C34       1.0  0.685142397696211  0.4208961001207925  0.49594559048264125  1.0000
  C   C35       1.0  0.3064572037298348  0.802397621011842  0.19363297905621826  1.0000
  C   C36       1.0  0.21416495726426635  0.8394402444225191  0.22500016963143582  1.0000
  C   C37       1.0  0.13483549421507487  0.9265551649208987  0.2213465973086173  1.0000
  C   C38       1.0  0.07468426866983437  0.8654862790138084  0.28976382602422046  1.0000
  C   C39       1.0  0.28385910047024515  0.24974262986860654  0.6686536751983496  1.0000
  C   C40       1.0  0.13757709911477883  0.35844851574955783  0.6393134484336827  1.0000
  C   C41       1.0  0.19520393942660522  0.3035992186088095  0.6968700034985247  1.0000
  C   C42       1.0  0.16149828917993858  0.30338654365851175  0.7833962644675763  1.0000
  C   C43       1.0  0.21299825658147853  0.251332344724652  0.8408931902694828  1.0000
  C   C44       1.0  0.3030283348718116  0.19703742758763806  0.8119391931241536  1.0000
  C   C45       1.0  0.6938885386523523  0.7205842389853955  0.2527459863283283  1.0000
  C   C46       1.0  0.3347957641920941  0.1991676400534459  0.7248809158878798  1.0000
  C   C47       1.0  0.4141256519715171  0.15803682021563498  0.657857440512842  1.0000
  C   C48       1.0  0.3532942625556359  0.21176178470769  0.5964566631033462  1.0000
  C   C49       1.0  0.2844255026709845  0.28552641786143346  0.2639213899141949  1.0000
  C   C50       1.0  0.19605100759693536  0.2912264117605758  0.31820718515020724  1.0000
  C   C51       1.0  0.16209415772942037  0.23612485960827462  0.3201899977184155  1.0000
  C   C52       1.0  0.8617375826688944  0.63370435669583  0.3651635810796845  1.0000
  C   C53       1.0  0.2149487761932889  0.1801043579620085  0.2662977280721535  1.0000
  C   C54       1.0  0.3021005090065216  0.1789904317952136  0.20966536346968206  1.0000
  C   C55       1.0  0.33467379034865274  0.2319424607230047  0.2120803247739929  1.0000
  C   C56       1.0  0.6981896234854333  0.8060936420368848  0.19702994968458393  1.0000
  C   C57       1.0  0.4106692579696015  0.2656671885005508  0.16552608398068705  1.0000
  C   C58       1.0  0.3533463839803589  0.330350650576868  0.22292627995550157  1.0000
  C   C59       1.0  0.6408746060403915  0.8592812486190197  0.8656147739894563  1.0000
  C   C60       1.0  0.35575404948894374  0.127293953605502  0.14946426478184088  1.0000
  C   C61       1.0  0.6377598969011801  0.1377260345557332  0.864931600479977  1.0000
  C   C62       1.0  0.36437476328463714  0.858211069026666  0.13359734418411048  1.0000
  C   C63       1.0  0.35925683055768337  0.14222449467221307  0.8693161593377993  1.0000
  C   C64       1.0  0.7122400214502422  0.4399667535828442  0.4046805213380012  1.0000
  C   C65       1.0  0.6372263823880076  0.8638736002059206  0.14252168651994174  1.0000
  C   C66       1.0  0.7322569479829042  0.5178665860217606  0.3444951986781461  1.0000
  C   C67       1.0  0.7548463481584874  0.8359223484735807  0.19749805091902314  1.0000
  C   C68       1.0  0.7265123671951841  0.5771161392957541  0.37482767991583876  1.0000
  C   C69       1.0  0.8051005039827999  0.7770849854369786  0.25499142733083596  1.0000
  C   C70       1.0  0.8006293777941024  0.6915911235878269  0.31081336188338327  1.0000
  Br  Br1       1.0  0.8204271906681555  0.19775043806344433  0.9835594573544312  1.0000
  Br  Br2       1.0  0.4386087814071829  0.024417295976206805  0.6984175561455428  1.0000
  Br  Br3       1.0  0.4041189115359742  0.29113254123601007  0.4785488316839377  1.0000
  Br  Br4       1.0  0.5236763136619302  0.17774680239577387  0.18889837829689055  1.0000
  Br  Br5       1.0  0.8243269632063033  0.8900290710012085  0.9820856161814077  1.0000
  O   O1        1.0  0.001973684582885898  0.4985451440307643  0.5006016934325999  1.0000
  O   O2        1.0  0.32532074784882775  0.9414748366065524  0.09868534601232438  1.0000
  O   O3        1.0  0.4407489540051374  0.1049492120855575  0.8338555521367252  1.0000
  O   O4        1.0  0.05512172078604037  0.67710005093182  0.38086580463586006  1.0000
  O   O5        1.0  0.6186545401599518  0.823248138867619  0.11853580134868497  1.0000
  O   O6        1.0  0.3207684053070352  0.1362384208660856  0.9523203882185738  1.0000
  O   O7        1.0  0.6073659165195407  0.9477354767458123  0.12703309546444796  1.0000
  O   O8        1.0  0.613110822371233  0.11870333322653438  0.9485918947244016  1.0000
  O   O9        1.0  0.4473829708827921  0.8189520673760811  0.12221450930032764  1.0000
  O   O10       1.0  0.6188221372082695  0.9434897923276253  0.8261313531885219  1.0000
  O   O11       1.0  0.31930158537884523  0.08447426720656637  0.14681492625374656  1.0000
  O   O12       1.0  0.05730459817211652  0.35968381661542986  0.409189199622098  1.0000
  O   O13       1.0  0.8861678536479899  0.379559390347694  0.5577035991039098  1.0000
  O   O14       1.0  0.17608860586091882  0.3952596770119925  0.37041949586890144  1.0000
  O   O15       1.0  0.8799518749732373  0.5561739781269991  0.6777740315390373  1.0000
  O   O16       1.0  0.1762961879622793  0.3649273878332123  0.5576845554413764  1.0000
  O   O17       1.0  0.8761640354330141  0.6736709847157343  0.3938004352066428  1.0000
  O   O18       1.0  0.05526529441345222  0.3935388368314676  0.6768489388681118  1.0000
  O   O19       1.0  0.8959426657496578  0.5505336182317322  0.3762706008744347  1.0000
  O   O20       1.0  0.7395710269253686  0.9968123894896335  0.6222772191650562  1.0000
  O   O21       1.0  0.12888695193173313  0.9914977143301371  0.2453385799620521  1.0000
  O   O22       1.0  0.17349354219087587  0.2556730001668654  0.9231041922594159  1.0000
  O   O23       1.0  0.886881295082098  0.6806231868254357  0.5541294347377319  1.0000
  O   O24       1.0  0.49023754148620924  0.17401338860188534  0.6285043929909973  1.0000
  O   O25       1.0  0.07972214482899183  0.23341229925757287  0.370313314632483  1.0000
  O   O26       1.0  0.17580843311108646  0.13164397501075337  0.27245099449406496  1.0000
  O   O27       1.0  0.38959569668446653  0.3276448020498393  0.27569202360729855  1.0000
  O   O28       1.0  0.17798582904082133  0.5523100289694585  0.3949985647701765  1.0000
  O   O29       1.0  0.8811401349865802  0.3857361372582345  0.6805473934763882  1.0000
  O   O30       1.0  0.4998183595175618  0.9982878357690128  0.0040302908018434325  1.0000
  O   O31       1.0  0.6188744367793717  0.8180821465117205  0.949493127377366  1.0000
  O   O32       1.0  0.43400663703177855  0.1288289998667693  0.10259150715852167  1.0000
  O   O33       1.0  0.6177936985365874  0.11377793735455552  0.8251535025563327  1.0000
