data_image0
_chemical_formula_structural       Cd2H32C40N4O8
_chemical_formula_sum              "Cd2 H32 C40 N4 O8"
_cell_length_a       9.16093716525951
_cell_length_b       9.657782830096586
_cell_length_c       11.311028576063961
_cell_angle_alpha    93.03123683159252
_cell_angle_beta     110.98329134967389
_cell_angle_gamma    110.49410692353196

_space_group_name_H-M_alt    "P 1"
_space_group_IT_number       1

loop_
  _space_group_symop_operation_xyz
  'x, y, z'

loop_
  _atom_site_type_symbol
  _atom_site_label
  _atom_site_symmetry_multiplicity
  _atom_site_fract_x
  _atom_site_fract_y
  _atom_site_fract_z
  _atom_site_occupancy
  Cd  Cd1       1.0  0.5010498679191712  0.17103616965334112  0.10292651303878127  1.0000
  Cd  Cd2       1.0  0.4989508193135281  0.8289647466066725  0.8970718601594289  1.0000
  H   H1        1.0  0.10276461483520188  0.25239592673716515  0.23792256078245808  1.0000
  H   H2        1.0  0.8972339001369178  0.7476027284641873  0.7620750787252747  1.0000
  H   H3        1.0  0.2651566962230731  0.2870207734388046  0.39223790397418423  1.0000
  H   H4        1.0  0.7348408161695518  0.7129756227259706  0.6077602255231727  1.0000
  H   H5        1.0  0.40073817717971144  0.5372172324024335  0.5238934706545424  1.0000
  H   H6        1.0  0.5992615089112692  0.46278142652192855  0.4761036248418622  1.0000
  H   H7        1.0  0.4541334287480297  0.80859595253213  0.5460532612023031  1.0000
  H   H8        1.0  0.5458669253748383  0.1914015784707885  0.4539457448918683  1.0000
  H   H9        1.0  0.34395905453300907  0.9123091227757243  0.3506018708474913  1.0000
  H   H10       1.0  0.656040460861938  0.08769178891081708  0.6493979302077622  1.0000
  H   H11       1.0  0.14127822426693373  0.47405134789581643  0.11119604695384315  1.0000
  H   H12       1.0  0.858722462246874  0.5259495675137346  0.8888032100900817  1.0000
  H   H13       1.0  0.16469852050850883  0.8692902523086589  0.12721389489363596  1.0000
  H   H14       1.0  0.8353061752599729  0.130711797409738  0.8727901139643354  1.0000
  H   H15       1.0  0.029559870187362874  0.6790307190444125  0.04067868238375641  1.0000
  H   H16       1.0  0.9704404763721685  0.32097470359043  0.9593242180864296  1.0000
  H   H17       1.0  0.8769423746258624  0.3893776281003838  0.3000588130073894  1.0000
  H   H18       1.0  0.12305379738965178  0.610621018804494  0.6999407983687151  1.0000
  H   H19       1.0  0.09088157971072519  0.4147101527815593  0.5193352829905822  1.0000
  H   H20       1.0  0.9091164328933203  0.5852873716258105  0.4806639272805315  1.0000
  H   H21       1.0  0.7899589505685612  0.9495062966021734  0.5056328854086872  1.0000
  H   H22       1.0  0.2100383932846981  0.050492354876169494  0.49436529811037405  1.0000
  H   H23       1.0  0.5878081478411091  0.9460599375483058  0.28907735491036146  1.0000
  H   H24       1.0  0.4121891960121502  0.0539387139300374  0.710920828608707  1.0000
  H   H25       1.0  0.297690578993695  0.3871002511615487  0.6707498830770577  1.0000
  H   H26       1.0  0.7023094380504489  0.6129017904685127  0.32924923106052983  1.0000
  H   H27       1.0  0.4874452362877904  0.38423256068242045  0.8860786482253007  1.0000
  H   H28       1.0  0.5125582912373756  0.615769488714818  0.11392236926115375  1.0000
  H   H29       1.0  0.10836994466120592  0.021237063326303502  0.924598772257568  1.0000
  H   H30       1.0  0.8916283988960032  0.9787638437867726  0.07540245665472164  1.0000
  H   H31       1.0  0.8981725697806199  0.008508765993426  0.7114845658323504  1.0000
  H   H32       1.0  0.10183045825201734  0.991492156011674  0.28851448703463944  1.0000
  C   C1        1.0  0.3416976561175389  0.2739922342135657  0.23654252581960836  1.0000
  C   C2        1.0  0.6583015254487066  0.7260052913654248  0.763458791977314  1.0000
  C   C3        1.0  0.2376920574483208  0.32174859922829296  0.29824140476671357  1.0000
  C   C4        1.0  0.762306457523799  0.6782500559730593  0.7017562347410264  1.0000
  C   C5        1.0  0.2689147943227185  0.48640707248356563  0.3153682065120976  1.0000
  C   C6        1.0  0.7310865623796445  0.5135927175559374  0.6846303095924571  1.0000
  C   C7        1.0  0.3558421190358487  0.582125684978962  0.43775382489806003  1.0000
  C   C8        1.0  0.6441585674779589  0.4178752304305888  0.562245432145865  1.0000
  C   C9        1.0  0.3852418818132648  0.7351671317492644  0.4503680116758205  1.0000
  C   C10       1.0  0.6147583044891292  0.26483265541769196  0.5496301645943475  1.0000
  C   C11       1.0  0.32377374283014154  0.7932781327941427  0.3413816633627534  1.0000
  C   C12       1.0  0.6762269422458899  0.2067227809144825  0.6586193613725941  1.0000
  C   C13       1.0  0.23215752172242077  0.6982756148822559  0.2187066083694305  1.0000
  C   C14       1.0  0.7678448354027765  0.301726431642436  0.7812940692826374  1.0000
  C   C15       1.0  0.20863646655132578  0.5464334336876604  0.20724870821555197  1.0000
  C   C16       1.0  0.7913653903624507  0.4535674845944369  0.7927508886627594  1.0000
  C   C17       1.0  0.16126270708666374  0.7575447963286592  0.09952581754058801  1.0000
  C   C18       1.0  0.8387408190007336  0.2424572513676537  0.9004769676372891  1.0000
  C   C19       1.0  0.2683880551252074  0.7706132548665963  0.021009196252151714  1.0000
  C   C20       1.0  0.7316119604811604  0.2293887850625396  0.9789916855768585  1.0000
  C   C21       1.0  0.8619198886100464  0.2956654192697457  0.35081908993631583  1.0000
  C   C22       1.0  0.13807929367507654  0.7043321071597148  0.6491813440148919  1.0000
  C   C23       1.0  0.9816418953399904  0.3079395009493524  0.4729902406570759  1.0000
  C   C24       1.0  0.018356618913237806  0.6920591534015372  0.5270082826963718  1.0000
  C   C25       1.0  0.9582845168334587  0.18470451969599821  0.5349029146664608  1.0000
  C   C26       1.0  0.041717507900799006  0.8152941424220614  0.465097512035854  1.0000
  C   C27       1.0  0.8145809421649304  0.0513621687444825  0.4658273246013638  1.0000
  C   C28       1.0  0.18542275318071694  0.9486376244887252  0.5341745227090942  1.0000
  C   C29       1.0  0.7008758202431764  0.047944736661016  0.34404921500721036  1.0000
  C   C30       1.0  0.2991243631836724  0.9520550471040962  0.655952496645803  1.0000
  C   C31       1.0  0.0784260430668908  0.1936893154578243  0.6666510522855591  1.0000
  C   C32       1.0  0.9215724697485684  0.8063093371921397  0.3333492387593113  1.0000
  C   C33       1.0  0.24649295702211302  0.3020897242262209  0.7209125486927378  1.0000
  C   C34       1.0  0.7535058874653943  0.6979123119799128  0.2790888771476007  1.0000
  C   C35       1.0  0.35591302640099093  0.3018220757577126  0.8436118646862386  1.0000
  C   C36       1.0  0.6440881581675697  0.6981799653430444  0.15639112466858057  1.0000
  C   C37       1.0  0.1450519450614181  0.09925187312585138  0.8640757649971537  1.0000
  C   C38       1.0  0.854948239803207  0.9007479123401795  0.13592417896443731  1.0000
  C   C39       1.0  0.0279855246173355  0.09184578744326899  0.7424953141349919  1.0000
  C   C40       1.0  0.9720139907776191  0.9081551242432728  0.25750448692026157  1.0000
  N   N1        1.0  0.7221674405655989  0.16846060121589088  0.2877111350061058  1.0000
  N   N2        1.0  0.27783107224986026  0.831538051434073  0.7122891560387645  1.0000
  N   N3        1.0  0.3071098722937294  0.2009944283507608  0.9139278823787935  1.0000
  N   N4        1.0  0.6928884705445952  0.7990064779118525  0.08607423037921078  1.0000
  O   O1        1.0  0.2951869018422073  0.13180821930930614  0.2009154319851305  1.0000
  O   O2        1.0  0.7048116124110279  0.8681904350415836  0.7990830913683172  1.0000
  O   O3        1.0  0.4669083070496781  0.37239599397012296  0.2239694994381907  1.0000
  O   O4        1.0  0.5330915461428914  0.6276004079397453  0.7760293097279389  1.0000
  O   O5        1.0  0.2458768117026082  0.6570352174683407  0.9456167653187253  1.0000
  O   O6        1.0  0.7541215318546008  0.34296568964473545  0.054384463593564164  1.0000
  O   O7        1.0  0.38723151946541634  0.9010146301775707  0.039810524808821454  1.0000
  O   O8        1.0  0.6127691670483912  0.09898628523198032  0.9601887322351034  1.0000
