data_image0
_chemical_formula_structural       Zn4H40C32O16
_chemical_formula_sum              "Zn4 H40 C32 O16"
_cell_length_a       4.845436806075251
_cell_length_b       6.622258790047977
_cell_length_c       26.003953220239104
_cell_angle_alpha    90.00006451533417
_cell_angle_beta     90.00048672015392
_cell_angle_gamma    89.99957730483025

_space_group_name_H-M_alt    "P 1"
_space_group_IT_number       1

loop_
  _space_group_symop_operation_xyz
  'x, y, z'

loop_
  _atom_site_type_symbol
  _atom_site_label
  _atom_site_symmetry_multiplicity
  _atom_site_fract_x
  _atom_site_fract_y
  _atom_site_fract_z
  _atom_site_occupancy
  Zn  Zn1       1.0  0.05063767406374349  0.912146426494466  0.0396772157969565  1.0000
  Zn  Zn2       1.0  0.4493624752735812  0.08786427738331067  0.5396760042532946  1.0000
  Zn  Zn3       1.0  0.9493593260419433  0.41213733281912807  0.46032389628975773  1.0000
  Zn  Zn4       1.0  0.550648296039661  0.5878589847557192  0.9603237367682026  1.0000
  H   H1        1.0  0.7754807478381238  0.09532230412905554  0.8622752899081476  1.0000
  H   H2        1.0  0.7245120808244677  0.9046796229619852  0.3622775433652449  1.0000
  H   H3        1.0  0.22453201055802205  0.5953233588300716  0.6377267606094961  1.0000
  H   H4        1.0  0.2754705494782073  0.4046862657490207  0.1377251047853321  1.0000
  H   H5        1.0  0.2971215767116107  0.8367699649656045  0.8563763001716609  1.0000
  H   H6        1.0  0.20286825970661937  0.163225519665353  0.3563740753181365  1.0000
  H   H7        1.0  0.7028886973366754  0.3367773938336142  0.6436215898937974  1.0000
  H   H8        1.0  0.7971209824497336  0.6632235725908441  0.1436254267043395  1.0000
  H   H9        1.0  0.9611958291142956  0.7602112080710907  0.8375281415961097  1.0000
  H   H10       1.0  0.5387979339817689  0.23978154993459797  0.3375272176153317  1.0000
  H   H11       1.0  0.0388111050970963  0.26021619089734555  0.662471649158256  1.0000
  H   H12       1.0  0.4611987756707663  0.7397920323262496  0.16247422929129837  1.0000
  H   H13       1.0  0.23440037487041113  0.8816926606813736  0.7614049279305135  1.0000
  H   H14       1.0  0.2655933827688131  0.11829334634369096  0.2614031738531395  1.0000
  H   H15       1.0  0.7655908627822399  0.3817031953152037  0.7385929750837547  1.0000
  H   H16       1.0  0.7344087044297396  0.6182996984376388  0.2385963152145436  1.0000
  H   H17       1.0  0.9413319600037366  0.03388945657998479  0.772156806738721  1.0000
  H   H18       1.0  0.5586588198883504  0.966101504176059  0.2721565083187087  1.0000
  H   H19       1.0  0.05866492007573499  0.53388574396633  0.7278436878102496  1.0000
  H   H20       1.0  0.4413396887948764  0.46611219606106846  0.22784538845578337  1.0000
  H   H21       1.0  0.3416672719091594  0.25322251153160374  0.755119723860588  1.0000
  H   H22       1.0  0.15831587992145302  0.7467695081468191  0.2551195197409939  1.0000
  H   H23       1.0  0.6583376703681125  0.7532323135899615  0.7448792957623311  1.0000
  H   H24       1.0  0.841672502674058  0.2467706077496955  0.2448811600604017  1.0000
  H   H25       1.0  0.5357402539456119  0.13106136941426874  0.8032840749188921  1.0000
  H   H26       1.0  0.964256074058419  0.8689282180231215  0.3032843898233821  1.0000
  H   H27       1.0  0.4642700727148609  0.631085576564878  0.6967133712304729  1.0000
  H   H28       1.0  0.0357393068888072  0.36892430715685975  0.19671670979125372  1.0000
  H   H29       1.0  0.0227163499350524  0.3947960340922875  0.8183641067295753  1.0000
  H   H30       1.0  0.4772861984226112  0.6051977734486084  0.31836359701412675  1.0000
  H   H31       1.0  0.9773077737398168  0.8948008516375052  0.6816361074326167  1.0000
  H   H32       1.0  0.5227057045412096  0.10520481195766958  0.1816366573804231  1.0000
  H   H33       1.0  0.3636372473412024  0.453568172671062  0.8376226104505164  1.0000
  H   H34       1.0  0.1363723712894469  0.5464181691648375  0.33762116012516696  1.0000
  H   H35       1.0  0.6363903991433233  0.953588298786272  0.6623772361197098  1.0000
  H   H36       1.0  0.8636242640193217  0.04642483048869647  0.16237792364021428  1.0000
  H   H37       1.0  0.3567387876167842  0.18342938973266598  0.9028861044373355  1.0000
  H   H38       1.0  0.1432572989334204  0.8165587489243363  0.4028847429644173  1.0000
  H   H39       1.0  0.6432751279558035  0.6834431524477932  0.5971144332805949  1.0000
  H   H40       1.0  0.8567283017542949  0.3165696901345568  0.0971155724184669  1.0000
  C   C1        1.0  0.9728258173987074  0.044633675229761076  0.8785560401328993  1.0000
  C   C2        1.0  0.5271636266052157  0.9553622831558426  0.378555304253986  1.0000
  C   C3        1.0  0.027191590064305198  0.5446387219914397  0.6214444575340464  1.0000
  C   C4        1.0  0.4728184822096182  0.4553663008639929  0.1214458202937152  1.0000
  C   C5        1.0  0.0992130868923695  0.8913968302487445  0.8408273618768617  1.0000
  C   C6        1.0  0.4007781037861307  0.10859556595125497  0.340826203326344  1.0000
  C   C7        1.0  0.9007945613345074  0.39140479103195935  0.6591716976210974  1.0000
  C   C8        1.0  0.5992096366251191  0.6086022839561378  0.1591740520453797  1.0000
  C   C9        1.0  0.14305469357842074  0.9905259175966631  0.7884188409433576  1.0000
  C   C10       1.0  0.3569382330412481  0.0094632282312261  0.2884175844612642  1.0000
  C   C11       1.0  0.856945743346131  0.4905328304086679  0.7115806317114917  1.0000
  C   C12       1.0  0.6430608463313376  0.5094684345896708  0.21158302686934854  1.0000
  C   C13       1.0  0.3252406899425395  0.17797791887548428  0.7927416720188135  1.0000
  C   C14       1.0  0.17475243396719262  0.8220127560048449  0.29274151559567935  1.0000
  C   C15       1.0  0.674769154071285  0.6779935090105979  0.7072569413384571  1.0000
  C   C16       1.0  0.8252372382597172  0.32201377722748226  0.2072591859197814  1.0000
  C   C17       1.0  0.21691003467525857  0.3284420592868073  0.832596317521947  1.0000
  C   C18       1.0  0.28309316317943  0.6715487906614893  0.3325955198763637  1.0000
  C   C19       1.0  0.783114771652059  0.8284538813590527  0.6674031083800998  1.0000
  C   C20       1.0  0.7169001209108146  0.1715532297619616  0.1674043691090077  1.0000
  C   C21       1.0  0.16006238588477834  0.22903364620442082  0.8853478528991515  1.0000
  C   C22       1.0  0.3399349640858489  0.7709574355146596  0.3853464047146602  1.0000
  C   C23       1.0  0.839955188087835  0.7290434258938631  0.6146526979811853  1.0000
  C   C24       1.0  0.6600531696096469  0.27096345349248446  0.11465389751028  1.0000
  C   C25       1.0  0.8986432799620302  0.9415258412765508  0.9288411575103908  1.0000
  C   C26       1.0  0.6013443311614992  0.05847788832749498  0.42883989556140273  1.0000
  C   C27       1.0  0.10138036298499029  0.4415225418426088  0.571160223805883  1.0000
  C   C28       1.0  0.39862122319501486  0.5584807500609796  0.0711622681142501  1.0000
  C   C29       1.0  0.026082702997449306  0.3860847193165141  0.9199721204870812  1.0000
  C   C30       1.0  0.4739203546286888  0.6139095346215908  0.4199704542919918  1.0000
  C   C31       1.0  0.9739332550862443  0.8860921283980825  0.5800273220413601  1.0000
  C   C32       1.0  0.5260673310580372  0.11391912906265839  0.0800282643859092  1.0000
  O   O1        1.0  0.6765812631945421  0.83826256819691  0.9284494880994814  1.0000
  O   O2        1.0  0.82339188357534  0.16173662955590368  0.428451683538789  1.0000
  O   O3        1.0  0.32343931453743124  0.3382731968987044  0.57155147886062  1.0000
  O   O4        1.0  0.17657879976631113  0.6617331167885182  0.071549356266793  1.0000
  O   O5        1.0  0.06445296695216741  0.9648389061980464  0.9662436604409733  1.0000
  O   O6        1.0  0.4355171177530366  0.03515555111787449  0.4662433047607023  1.0000
  O   O7        1.0  0.9355704359748245  0.46485217237511706  0.5337546511496711  1.0000
  O   O8        1.0  0.5644528040867273  0.5351603917930206  0.0337561602901317  1.0000
  O   O9        1.0  0.7636799294510865  0.37576303734741845  0.9244201028878152  1.0000
  O   O10       1.0  0.7363198627424837  0.6242361426264648  0.42441960218502567  1.0000
  O   O11       1.0  0.23633407106106566  0.8757667767346927  0.5755797212169184  1.0000
  O   O12       1.0  0.2636677167953181  0.12423653458409226  0.07558142681291  1.0000
  O   O13       1.0  0.16372536443410013  0.5271269115364062  0.9410786558849864  1.0000
  O   O14       1.0  0.3362807202326152  0.47286441500767024  0.4410782695646986  1.0000
  O   O15       1.0  0.8362901592847861  0.02712873273439699  0.5589179911589071  1.0000
  O   O16       1.0  0.6637135912392509  0.9728748816900459  0.0589220909303734  1.0000
