data_image0
_chemical_formula_structural       Cu2H20C24N20
_chemical_formula_sum              "Cu2 H20 C24 N20"
_cell_length_a       7.296646932257633
_cell_length_b       9.29909435918885
_cell_length_c       9.95948554267011
_cell_angle_alpha    90.00070675192724
_cell_angle_beta     91.90955599665197
_cell_angle_gamma    89.99979316407622

_space_group_name_H-M_alt    "P 1"
_space_group_IT_number       1

loop_
  _space_group_symop_operation_xyz
  'x, y, z'

loop_
  _atom_site_type_symbol
  _atom_site_label
  _atom_site_symmetry_multiplicity
  _atom_site_fract_x
  _atom_site_fract_y
  _atom_site_fract_z
  _atom_site_occupancy
  Cu  Cu1       1.0  0.734309026400908  0.5557772430622379  0.39043369141715795  1.0000
  Cu  Cu2       1.0  0.2656911245812097  0.05578009191888358  0.6095651716922532  1.0000
  H   H1        1.0  0.36103940789787703  0.4066638897362011  0.3296165281645216  1.0000
  H   H2        1.0  0.6389605870213586  0.9066607085939821  0.6703813338038528  1.0000
  H   H3        1.0  0.17501375154197518  0.3548824744573481  0.12603059368092323  1.0000
  H   H4        1.0  0.8249892097184455  0.8548933305419196  0.8739687571303775  1.0000
  H   H5        1.0  0.3073154799050997  0.4118660799421646  0.8966331981798064  1.0000
  H   H6        1.0  0.6926858622767681  0.9118842648433375  0.10336576138706019  1.0000
  H   H7        1.0  0.6102986722460527  0.5266230517568218  0.8909897015431909  1.0000
  H   H8        1.0  0.38969886361352474  0.026635057615550295  0.10900876181420932  1.0000
  H   H9        1.0  0.8880605848191793  0.5937056381557753  0.9028453753769908  1.0000
  H   H10       1.0  0.11194488418311009  0.0937246767944586  0.0971550600321791  1.0000
  H   H11       1.0  0.17956232633311942  0.7248507327101308  0.9329447091685381  1.0000
  H   H12       1.0  0.8204425707802016  0.22486641425578574  0.0670562114867224  1.0000
  H   H13       1.0  0.2923373950760392  0.7889603637968605  0.16980052993791617  1.0000
  H   H14       1.0  0.7076562482441844  0.2889638917676436  0.8302038559020275  1.0000
  H   H15       1.0  0.10190501738964032  0.7158719761857169  0.3615633804530489  1.0000
  H   H16       1.0  0.898080722665476  0.21586815136222265  0.6384359530165895  1.0000
  H   H17       1.0  0.5955354917010282  0.21106439813456745  0.4068658578308018  1.0000
  H   H18       1.0  0.4044708393636398  0.7110661914478411  0.593132932472308  1.0000
  H   H19       1.0  0.09017161141118629  0.4455030101908761  0.5775290568514037  1.0000
  H   H20       1.0  0.9098364461424139  0.9455001202420946  0.42246543620354515  1.0000
  C   C1        1.0  0.41589435710945816  0.42903093473092463  0.231416811441413  1.0000
  C   C2        1.0  0.5841041687969336  0.9290345796465258  0.7685812702068587  1.0000
  C   C3        1.0  0.31174610883630993  0.39917255590975737  0.11526372405098331  1.0000
  C   C4        1.0  0.6882525439011715  0.8991849935410627  0.8847370306849882  1.0000
  C   C5        1.0  0.38298639885902463  0.43199007007598295  0.9909008297210207  1.0000
  C   C6        1.0  0.6170079979120829  0.9320039786341993  0.009099190578851299  1.0000
  C   C7        1.0  0.5556381085282638  0.4954174982670166  0.9872112037890943  1.0000
  C   C8        1.0  0.444360127234539  0.9954362159478761  0.012787631840417603  1.0000
  C   C9        1.0  0.6546528421673656  0.5204999936990687  0.10761453148988662  1.0000
  C   C10       1.0  0.34535157672269895  0.020509611068284504  0.8923840341313038  1.0000
  C   C11       1.0  0.8351494296728461  0.5902893983852949  0.1155367801079308  1.0000
  C   C12       1.0  0.164851940510772  0.0903026162420133  0.8844635133858317  1.0000
  C   C13       1.0  0.9364436572392947  0.6243789358319558  0.0033544853059055027  1.0000
  C   C14       1.0  0.0635616825637939  0.12439713793651208  0.9966422822770937  1.0000
  C   C15       1.0  0.1011707750640909  0.6985884632585666  0.0208634975890263  1.0000
  C   C16       1.0  0.8988328655622695  0.19860421399570777  0.9791370904660539  1.0000
  C   C17       1.0  0.16245662699963498  0.7342206691285894  0.1505155737019592  1.0000
  C   C18       1.0  0.8375441142086187  0.23423056025309558  0.8494863542777652  1.0000
  C   C19       1.0  0.057547434096150596  0.6932476416317712  0.2583530038965307  1.0000
  C   C20       1.0  0.9424466311189689  0.19325259654598878  0.7416472829096961  1.0000
  C   C21       1.0  0.5626388784966069  0.27724779962933604  0.49256746589654904  1.0000
  C   C22       1.0  0.43736304959217875  0.7772462172478142  0.5074319728888952  1.0000
  C   C23       1.0  0.04460566298887161  0.5529771453428436  0.6028239472702097  1.0000
  C   C24       1.0  0.955393128986415  0.0529753427601563  0.3971748496521244  1.0000
  N   N1        1.0  0.5843485444488935  0.4860147302731832  0.22772939785826912  1.0000
  N   N2        1.0  0.41565247372312086  0.9860231731519846  0.7722704036963464  1.0000
  N   N3        1.0  0.8977616359127794  0.6234772541063761  0.2415220876663255  1.0000
  N   N4        1.0  0.10223410787179431  0.12348358914788088  0.7584754331112507  1.0000
  N   N5        1.0  0.6210434038246432  0.412622338675014  0.5141794401423566  1.0000
  N   N6        1.0  0.37895518773992626  0.9126238507316058  0.4858234753452706  1.0000
  N   N7        1.0  0.5492393211367101  0.45554459695362215  0.6315381500478452  1.0000
  N   N8        1.0  0.4507590852814757  0.9555443604786616  0.3684632447854241  1.0000
  N   N9        1.0  0.450952299903811  0.34958417912183387  0.6779154560857563  1.0000
  N   N10       1.0  0.5490479420318194  0.8495819905553786  0.32208376575856323  1.0000
  N   N11       1.0  0.4570644878066403  0.23616288198677884  0.5925424363729306  1.0000
  N   N12       1.0  0.5429348797345526  0.7361629182203444  0.40745445905463373  1.0000
  N   N13       1.0  0.9076444592791121  0.622561903060422  0.5361997181670688  1.0000
  N   N14       1.0  0.09235814115939431  0.12256005145600567  0.46380097609482357  1.0000
  N   N15       1.0  0.8964863134648552  0.7542407076416991  0.5927661880824857  1.0000
  N   N16       1.0  0.10351296539551669  0.25423915096403243  0.40723894493437746  1.0000
  N   N17       1.0  0.022756489299965203  0.7621959782363134  0.6903032920004861  1.0000
  N   N18       1.0  0.9772427572151726  0.2621951072233344  0.3096999232855282  1.0000
  N   N19       1.0  0.11834303495109567  0.6370267324525897  0.6992685077821008  1.0000
  N   N20       1.0  0.8816608759525053  0.13702384559283587  0.3007303770250259  1.0000
