data_image0
_chemical_formula_structural       Cs4Li4H32C16O32
_chemical_formula_sum              "Cs4 Li4 H32 C16 O32"
_cell_length_a       4.986803865248074
_cell_length_b       10.743563153210006
_cell_length_c       16.916605343272238
_cell_angle_alpha    89.99971110718171
_cell_angle_beta     90.00010143555731
_cell_angle_gamma    97.71049330510505

_space_group_name_H-M_alt    "P 1"
_space_group_IT_number       1

loop_
  _space_group_symop_operation_xyz
  'x, y, z'

loop_
  _atom_site_type_symbol
  _atom_site_label
  _atom_site_symmetry_multiplicity
  _atom_site_fract_x
  _atom_site_fract_y
  _atom_site_fract_z
  _atom_site_occupancy
  Cs  Cs1       1.0  0.6340570067076925  0.647888230886842  0.2747224095475858  1.0000
  Cs  Cs2       1.0  0.3659408917912828  0.8521130020159615  0.7747211262226797  1.0000
  Cs  Cs3       1.0  0.36593550651269163  0.35211405859149647  0.7252786178934088  1.0000
  Cs  Cs4       1.0  0.6340616233441665  0.14788920757798252  0.2252793100800545  1.0000
  Li  Li1       1.0  0.8960760729994848  0.04153722998456291  0.6681506201654486  1.0000
  Li  Li2       1.0  0.1039276468071435  0.45846509683379827  0.1681473862248239  1.0000
  Li  Li3       1.0  0.10393183216010027  0.9584630533931818  0.33185040728201903  1.0000
  Li  Li4       1.0  0.8960591707916024  0.5415381796962108  0.8318506855365726  1.0000
  H   H1        1.0  0.31277715498526243  0.3335470377995263  0.5133627089208019  1.0000
  H   H2        1.0  0.6872433552693025  0.1664546356297762  0.0133613673663575  1.0000
  H   H3        1.0  0.6872410576868972  0.666454104858353  0.48664009192326313  1.0000
  H   H4        1.0  0.3127451571456135  0.8335476857778588  0.9866367044001478  1.0000
  H   H5        1.0  0.3729318615337577  0.12353116591009437  0.4656534258938763  1.0000
  H   H6        1.0  0.6270744585570824  0.3764672834196788  0.9656481167431963  1.0000
  H   H7        1.0  0.6270783496078066  0.8764700406562009  0.5343499660878307  1.0000
  H   H8        1.0  0.3729088307937971  0.623531313340699  0.034348181642016605  1.0000
  H   H9        1.0  0.8354236342147845  0.42884142566857264  0.5377634188629656  1.0000
  H   H10       1.0  0.16459795143020273  0.07115590993029029  0.037757681631774204  1.0000
  H   H11       1.0  0.16459535658326985  0.5711559444367752  0.4622405642736851  1.0000
  H   H12       1.0  0.8353927283365863  0.9288407446424571  0.9622397990327015  1.0000
  H   H13       1.0  0.9028564327019666  0.1489048795961025  0.5375292063593164  1.0000
  H   H14       1.0  0.09715884048114991  0.35109156122431534  0.037527261916857  1.0000
  H   H15       1.0  0.09715886284431721  0.8510934615758927  0.4624706388268152  1.0000
  H   H16       1.0  0.9028247544526238  0.6489079746915253  0.9624702187329249  1.0000
  H   H17       1.0  0.8077316915849551  0.7996398952112285  0.6350502332373722  1.0000
  H   H18       1.0  0.19225336505528656  0.7003611555570474  0.13504884162667  1.0000
  H   H19       1.0  0.19228082550208112  0.2003622345209735  0.3649525676028347  1.0000
  H   H20       1.0  0.8077305354613956  0.2996393195142559  0.8649498212876807  1.0000
  H   H21       1.0  0.07121721125019316  0.8690778780629954  0.5935677645607456  1.0000
  H   H22       1.0  0.9287668204369411  0.6309225370436947  0.09356726571677142  1.0000
  H   H23       1.0  0.9287953058222341  0.1309242516601472  0.4064338540091654  1.0000
  H   H24       1.0  0.07121338488639141  0.3690789091304865  0.9064319883282437  1.0000
  H   H25       1.0  0.023944092075773  0.061588942953910895  0.8281693246186351  1.0000
  H   H26       1.0  0.9760774456395396  0.43840913413013277  0.3281668862783107  1.0000
  H   H27       1.0  0.9760532000102415  0.9384095420018356  0.17183052057310277  1.0000
  H   H28       1.0  0.02393276548011867  0.5615920724225774  0.6718347322979453  1.0000
  H   H29       1.0  0.7516786910077542  0.1068427709142696  0.8056950164240178  1.0000
  H   H30       1.0  0.24833967991805397  0.39315309948322164  0.3056954157932807  1.0000
  H   H31       1.0  0.24831890663925552  0.8931566531833539  0.1943042376268451  1.0000
  H   H32       1.0  0.7516685307952216  0.6068481230318739  0.694304429378157  1.0000
  C   C1        1.0  0.6074355805276639  0.35999430729332715  0.4215160035343999  1.0000
  C   C2        1.0  0.3925750390460294  0.1400015394818013  0.9215131008985935  1.0000
  C   C3        1.0  0.392576019839872  0.6400050049906056  0.578485615052692  1.0000
  C   C4        1.0  0.6074176410979247  0.8599950991104347  0.0784837886301091  1.0000
  C   C5        1.0  0.5213088949306055  0.3120696101858158  0.5042066701876919  1.0000
  C   C6        1.0  0.4787124727495353  0.18792908950872791  0.004203448102416  1.0000
  C   C7        1.0  0.47871131812603096  0.6879315164960929  0.49579613065574785  1.0000
  C   C8        1.0  0.5212731225760265  0.8120704304356678  0.9957946236818883  1.0000
  C   C9        1.0  0.514644554079382  0.1681335430428632  0.5101963238227327  1.0000
  C   C10       1.0  0.4853623477533802  0.3318634819661455  0.0101919659828127  1.0000
  C   C11       1.0  0.48536535149388993  0.8318667243770365  0.4898070681647014  1.0000
  C   C12       1.0  0.5146189412276315  0.6681351307792626  0.9898055146733213  1.0000
  C   C13       1.0  0.3982082187104368  0.12434718433220127  0.5910379058653845  1.0000
  C   C14       1.0  0.6017909842389669  0.3756520985064852  0.0910341227494982  1.0000
  C   C15       1.0  0.6018010757189388  0.8756512047903586  0.4089648949983555  1.0000
  C   C16       1.0  0.39819383293878735  0.6243511939768496  0.9089609933367838  1.0000
  O   O1        1.0  0.814415692566591  0.44185903984950403  0.4164464555542722  1.0000
  O   O2        1.0  0.18559171769672392  0.05813957864076261  0.9164446810782323  1.0000
  O   O3        1.0  0.18559621336193996  0.5581412115763058  0.5835545718919448  1.0000
  O   O4        1.0  0.8144009624691437  0.9418570599650665  0.0835539818559141  1.0000
  O   O5        1.0  0.4647747890409804  0.3146913198027619  0.3629247833494702  1.0000
  O   O6        1.0  0.5352357720937704  0.1853017348684602  0.8629224184781492  1.0000
  O   O7        1.0  0.5352382005744332  0.6853060982123936  0.6370768352484575  1.0000
  O   O8        1.0  0.4647552132340068  0.8146958588461501  0.1370744710454517  1.0000
  O   O9        1.0  0.6928232686042931  0.3715352667889462  0.5641976033131826  1.0000
  O   O10       1.0  0.30719866465205575  0.12846153475640418  0.0641946248053955  1.0000
  O   O11       1.0  0.30719772256362904  0.6284620873313785  0.4358051975525541  1.0000
  O   O12       1.0  0.6927849302963338  0.8715380011684958  0.9358040381146822  1.0000
  O   O13       1.0  0.7689781065138135  0.12889256525173923  0.49372448631234533  1.0000
  O   O14       1.0  0.2310261570494703  0.37109786191344085  0.9937189347671094  1.0000
  O   O15       1.0  0.23102996564967535  0.8711020672897405  0.5062789057094577  1.0000
  O   O16       1.0  0.7689548263632419  0.6288998116855639  0.0062785458947516  1.0000
  O   O17       1.0  0.5417941412604962  0.0768709933499423  0.641073590614731  1.0000
  O   O18       1.0  0.4582002968152779  0.42312910414010213  0.14106816036008502  1.0000
  O   O19       1.0  0.45820884646176546  0.9231265045631929  0.35893039252690073  1.0000
  O   O20       1.0  0.5417840478048815  0.5768789000421604  0.8589257734278846  1.0000
  O   O21       1.0  0.1547253136338256  0.14485711640109858  0.6040115137264833  1.0000
  O   O22       1.0  0.8452708202772925  0.35514427551029115  0.104010756730915  1.0000
  O   O23       1.0  0.845282591525759  0.8551431669766528  0.3959895137209841  1.0000
  O   O24       1.0  0.1547150806238662  0.6448561835850343  0.8959879061828104  1.0000
  O   O25       1.0  0.9568181370646229  0.870450537491422  0.6419725397912686  1.0000
  O   O26       1.0  0.04317248063583178  0.6295486931348435  0.14197151137869923  1.0000
  O   O27       1.0  0.043194685576104105  0.12955253137812411  0.3580290787729155  1.0000
  O   O28       1.0  0.9568134202653197  0.37045176596048185  0.8580271515350332  1.0000
  O   O29       1.0  0.9009628005325117  0.06721664597090181  0.7819404339337694  1.0000
  O   O30       1.0  0.09905867863782447  0.43277788930625855  0.2819392841900381  1.0000
  O   O31       1.0  0.09903679750627258  0.9327827621552771  0.2180594112516232  1.0000
  O   O32       1.0  0.9009469205616867  0.567221470896527  0.7180611521286338  1.0000
