data_image0
_chemical_formula_structural       Ag2P2H38C46I2N2
_chemical_formula_sum              "Ag2 P2 H38 C46 I2 N2"
_cell_length_a       9.142255809283828
_cell_length_b       9.645788839148421
_cell_length_c       12.962052600946073
_cell_angle_alpha    105.46151504258678
_cell_angle_beta     109.3153424165496
_cell_angle_gamma    92.18755008484355

_space_group_name_H-M_alt    "P 1"
_space_group_IT_number       1

loop_
  _space_group_symop_operation_xyz
  'x, y, z'

loop_
  _atom_site_type_symbol
  _atom_site_label
  _atom_site_symmetry_multiplicity
  _atom_site_fract_x
  _atom_site_fract_y
  _atom_site_fract_z
  _atom_site_occupancy
  Ag  Ag1       1.0  0.04572608599588793  0.9861604841400152  0.8965902727673337  1.0000
  Ag  Ag2       1.0  0.9542739289710055  0.013841667436444997  0.10340774521599626  1.0000
  P   P1        1.0  0.001925534595756115  0.7839143720526779  0.7294775763567641  1.0000
  P   P2        1.0  0.998074320623324  0.21608671002820762  0.2705217410206656  1.0000
  H   H1        1.0  0.05184832212696478  0.30633918916550573  0.8644469548245792  1.0000
  H   H2        1.0  0.9481515306329837  0.6936618845895168  0.13555158886776292  1.0000
  H   H3        1.0  0.23431958640031783  0.5257424458691986  0.9050705126264376  1.0000
  H   H4        1.0  0.7656834157861141  0.4742564580292451  0.0949291162375658  1.0000
  H   H5        1.0  0.6107272968228797  0.30034041828513847  0.05706609495419457  1.0000
  H   H6        1.0  0.38927471618139003  0.6996595903749352  0.942935060109832  1.0000
  H   H7        1.0  0.41203246025729356  0.09179779914570219  0.008262558965810698  1.0000
  H   H8        1.0  0.5879670730070287  0.9082011356181781  0.9917385835147242  1.0000
  H   H9        1.0  0.294171856191916  0.945964480687138  0.7710273991174288  1.0000
  H   H10       1.0  0.705829000504984  0.05403553826140949  0.2289742604854368  1.0000
  H   H11       1.0  0.5462076523106275  0.8789984900286782  0.7538472007706928  1.0000
  H   H12       1.0  0.45379320438627246  0.12100152891986939  0.24615445883217285  1.0000
  H   H13       1.0  0.5823412584137629  0.6180858106940477  0.697846313526135  1.0000
  H   H14       1.0  0.41765959828314436  0.3819142082544999  0.30215534607673067  1.0000
  H   H15       1.0  0.3662139951238146  0.42567359758336204  0.6615894142691515  1.0000
  H   H16       1.0  0.633785702806584  0.5743264233278039  0.33841197618746566  1.0000
  H   H17       1.0  0.1117076199970839  0.4927297854827017  0.6719909534346725  1.0000
  H   H18       1.0  0.8882920730150514  0.5072702187767462  0.3280088896517626  1.0000
  H   H19       1.0  0.9531120084383957  0.668504248447391  0.9016488625976959  1.0000
  H   H20       1.0  0.0468852023746607  0.33149467359001517  0.09835019422015279  1.0000
  H   H21       1.0  0.8105781915305454  0.4358630234083733  0.8910415978092059  1.0000
  H   H22       1.0  0.18941934861466336  0.5641380709236117  0.10895795496082167  1.0000
  H   H23       1.0  0.6631433134433138  0.25790260084254146  0.704026865783419  1.0000
  H   H24       1.0  0.33685389491061096  0.7420963128690017  0.2959714173493495  1.0000
  H   H25       1.0  0.6524279006471543  0.31184988540032776  0.5227816919772577  1.0000
  H   H26       1.0  0.34757162769890465  0.6881490327118343  0.477217903133095  1.0000
  H   H27       1.0  0.797951507315247  0.5392530087696911  0.5327969831352277  1.0000
  H   H28       1.0  0.20204669513910284  0.46074481683194063  0.46720132116769963  1.0000
  H   H29       1.0  0.713450549617839  0.8947828845474958  0.6416876765724665  1.0000
  H   H30       1.0  0.28654897380994976  0.10521601691295497  0.358310371167704  1.0000
  H   H31       1.0  0.5676826469217531  0.9309579197603666  0.45327051166297133  1.0000
  H   H32       1.0  0.43231671183996667  0.06903989555279108  0.5467272881011169  1.0000
  H   H33       1.0  0.6802797158222231  0.8790618379408456  0.29897153751125666  1.0000
  H   H34       1.0  0.3197209688312056  0.12093706988283512  0.7010275530602569  1.0000
  H   H35       1.0  0.9437032442368858  0.7978916308374479  0.3353794098614598  1.0000
  H   H36       1.0  0.05629627919091008  0.20210727062299572  0.6646186378787107  1.0000
  H   H37       1.0  0.08446131968255334  0.753147406643414  0.519580730285021  1.0000
  H   H38       1.0  0.9155395271778204  0.24685257900169685  0.4804178345774871  1.0000
  C   C1        1.0  0.1776286481301028  0.3093628398740051  0.9057783083306603  1.0000
  C   C2        1.0  0.8223712070889704  0.6906382422068801  0.09422100904676972  1.0000
  C   C3        1.0  0.2812490766118004  0.43258305359046284  0.9296663379764352  1.0000
  C   C4        1.0  0.7187507859846817  0.5674180534680033  0.0703353004562643  1.0000
  C   C5        1.0  0.4425697709235266  0.43542545349341577  0.9857268921263653  1.0000
  C   C6        1.0  0.5574302563390248  0.5645767397123364  0.014274994282423724  1.0000
  C   C7        1.0  0.4889399434474697  0.30913552518675397  0.013792157933551161  1.0000
  C   C8        1.0  0.5110602484811579  0.6908677541662839  0.9862099764513202  1.0000
  C   C9        1.0  0.3776916750380721  0.190109035792247  0.9859248606268733  1.0000
  C   C10       1.0  0.622305702900192  0.8098909807183076  0.014075217852159455  1.0000
  C   C11       1.0  0.18501067860612608  0.7240319807702846  0.7202268663974251  1.0000
  C   C12       1.0  0.8149890193242797  0.27596804014088155  0.2797745240591922  1.0000
  C   C13       1.0  0.3092085517175319  0.8318780661205735  0.744019134437508  1.0000
  C   C14       1.0  0.6907911486720053  0.16812196311645514  0.25598302970419695  1.0000
  C   C15       1.0  0.45037621928095456  0.7938825882990771  0.7339167332853193  1.0000
  C   C16       1.0  0.5496246423342156  0.20611744730118886  0.26608647368772853  1.0000
  C   C17       1.0  0.4711525385606521  0.6476509436370816  0.703939770973804  1.0000
  C   C18       1.0  0.5288481559293103  0.3523479974900353  0.29606241433806696  1.0000
  C   C19       1.0  0.35014466232664176  0.53992259766369  0.6837644713765414  1.0000
  C   C20       1.0  0.649854873396812  0.46007634542604586  0.3162374447890811  1.0000
  C   C21       1.0  0.20679653474394394  0.5776388097775039  0.6905438032344761  1.0000
  C   C22       1.0  0.7932031631864547  0.42236121113366204  0.3094575872221411  1.0000
  C   C23       1.0  0.8869469945292394  0.6179036830438137  0.7178708624773478  1.0000
  C   C24       1.0  0.11305269848289609  0.3820963212156343  0.28212898060908737  1.0000
  C   C25       1.0  0.888745805442582  0.5890113509152854  0.8188562839639885  1.0000
  C   C26       1.0  0.11125272880305198  0.41098865530678796  0.18114328997619814  1.0000
  C   C27       1.0  0.8086562980617984  0.45932547545681485  0.8129153051305522  1.0000
  C   C28       1.0  0.19134256305685676  0.5406766947339817  0.18708399107671167  1.0000
  C   C29       1.0  0.7247332493567029  0.3586825165760388  0.7068963812880326  1.0000
  C   C30       1.0  0.2752651177637233  0.6413163951728792  0.2931021709909842  1.0000
  C   C31       1.0  0.719999956143809  0.388203174417235  0.6061312398224316  1.0000
  C   C32       1.0  0.28000073096875155  0.6117957417323083  0.39386862443416953  1.0000
  C   C33       1.0  0.8015733497505052  0.5170105566957516  0.611614370491928  1.0000
  C   C34       1.0  0.1984273398211798  0.48298836777964727  0.3883862674497677  1.0000
  C   C35       1.0  0.9064988735638052  0.8169386953968709  0.5919046455944608  1.0000
  C   C36       1.0  0.09350214042177639  0.1830623847213957  0.40809494092921733  1.0000
  C   C37       1.0  0.7618798769699139  0.8702752729975384  0.5733071116794617  1.0000
  C   C38       1.0  0.2381221311160928  0.1297247190108166  0.4266924960143824  1.0000
  C   C39       1.0  0.6811123964035842  0.8918949753298334  0.4681266058830289  1.0000
  C   C40       1.0  0.31888696235812825  0.1081028399833173  0.5318711938810593  1.0000
  C   C41       1.0  0.7449427289707771  0.8639452452109423  0.38150445912284425  1.0000
  C   C42       1.0  0.25505779101656856  0.13605257646545246  0.6184943834725871  1.0000
  C   C43       1.0  0.891370225845627  0.8167997591486867  0.40135596712237037  1.0000
  C   C44       1.0  0.10863045634867058  0.18319914034913856  0.5986423497640487  1.0000
  C   C45       1.0  0.9713886166059776  0.7922891126309041  0.5056899719712361  1.0000
  C   C46       1.0  0.0286125620456801  0.20771305363465592  0.49430986252852444  1.0000
  I   I1        1.0  0.779054361069356  0.11907251696418797  0.911134106674396  1.0000
  I   I2        1.0  0.22094516481756435  0.8809263928221183  0.08886471475086914  1.0000
  N   N1        1.0  0.2238472673360903  0.18874857365030812  0.9329663680005638  1.0000
  N   N2        1.0  0.7761499483952293  0.8112503650388162  0.06703423618747444  1.0000
