data_image0
_chemical_formula_structural       Sm2H16C24N6O18
_chemical_formula_sum              "Sm2 H16 C24 N6 O18"
_cell_length_a       7.707546267071886
_cell_length_b       8.058004550693354
_cell_length_c       12.638565822232463
_cell_angle_alpha    85.54961957011717
_cell_angle_beta     94.2682949622213
_cell_angle_gamma    83.29115683538032

_space_group_name_H-M_alt    "P 1"
_space_group_IT_number       1

loop_
  _space_group_symop_operation_xyz
  'x, y, z'

loop_
  _atom_site_type_symbol
  _atom_site_label
  _atom_site_symmetry_multiplicity
  _atom_site_fract_x
  _atom_site_fract_y
  _atom_site_fract_z
  _atom_site_occupancy
  Sm  Sm1       1.0  0.3079929127478991  0.2085311193106278  0.4917965689061816  1.0000
  Sm  Sm2       1.0  0.6920171878209375  0.7914449910050934  0.5082054694807283  1.0000
  H   H1        1.0  0.6518177900963663  0.37047419391480924  0.0082162770481773  1.0000
  H   H2        1.0  0.34821092183371855  0.6295326860523431  0.9918104908587324  1.0000
  H   H3        1.0  0.7722047424166902  0.49920200957673433  0.8480342348062493  1.0000
  H   H4        1.0  0.22782051491488883  0.5008327057720835  0.1520049420946989  1.0000
  H   H5        1.0  0.9667302658986827  0.036098833931106404  0.7576994687823486  1.0000
  H   H6        1.0  0.03323796021242486  0.9639558814449387  0.24228554697795346  1.0000
  H   H7        1.0  0.8530230743126593  0.884947387372712  0.9129902859913841  1.0000
  H   H8        1.0  0.1469435267638062  0.11507806976208458  0.08698169304970799  1.0000
  H   H9        1.0  0.5594193145984221  0.2390282215278958  0.14522300264219004  1.0000
  H   H10       1.0  0.44055601669481353  0.76097246903781  0.854777616052175  1.0000
  H   H11       1.0  0.7466598867675815  0.6211822790834629  0.12001808360794539  1.0000
  H   H12       1.0  0.2533732217940994  0.37881729653246043  0.8799862990897082  1.0000
  H   H13       1.0  0.6541382688625391  0.36770225589771843  0.5221069843179009  1.0000
  H   H14       1.0  0.34586937344488433  0.632275670430289  0.47788852374095814  1.0000
  H   H15       1.0  0.5822904021114753  0.4133996348145317  0.40415950371403386  1.0000
  H   H16       1.0  0.4176961728096842  0.5865832757486301  0.5958388167536198  1.0000
  C   C1        1.0  0.4621268198597548  0.06313453804889238  0.31055782661245246  1.0000
  C   C2        1.0  0.5378756700432773  0.9368503875776567  0.6894449814921301  1.0000
  C   C3        1.0  0.5637258106405555  0.0010313204584165012  0.2236799815406059  1.0000
  C   C4        1.0  0.4362652317527562  0.9989683839299064  0.7763206457322979  1.0000
  C   C5        1.0  0.636188211210978  0.8459584609316122  0.1942675484985088  1.0000
  C   C6        1.0  0.36381651820219935  0.15404843536524024  0.8057267264401629  1.0000
  C   C7        1.0  0.6497731980383817  0.6751885792457061  0.24577057499438837  1.0000
  C   C8        1.0  0.350229504080616  0.3248021827011911  0.7542396171114659  1.0000
  C   C9        1.0  0.6825883327070131  0.031105305697280997  0.0685103250961561  1.0000
  C   C10       1.0  0.3173994006303004  0.9689053897564435  0.9314868556289966  1.0000
  C   C11       1.0  0.7445884838297091  0.11474086902582308  0.9748513756414849  1.0000
  C   C12       1.0  0.2554024616892434  0.8852749813231571  0.025146077298764186  1.0000
  C   C13       1.0  0.7210256579397907  0.2902613806805334  0.9552205770468376  1.0000
  C   C14       1.0  0.27898027809575143  0.7097578529018165  0.04479476235642468  1.0000
  C   C15       1.0  0.7894005795977679  0.3628778883894909  0.866133569217453  1.0000
  C   C16       1.0  0.21060590922822794  0.6371548780460471  0.13388998901605478  1.0000
  C   C17       1.0  0.897218627128069  0.10638069119278977  0.8155314307678764  1.0000
  C   C18       1.0  0.10275833151431611  0.8936573410088045  0.18446233384066346  1.0000
  C   C19       1.0  0.8332549953948244  0.021382181639040706  0.9018347483257401  1.0000
  C   C20       1.0  0.1667194999196155  0.978640019993783  0.0981534207582087  1.0000
  C   C21       1.0  0.9625596634528935  0.041563624871891094  0.443926614190957  1.0000
  C   C22       1.0  0.03744455720894275  0.95841287342693  0.5560801936531234  1.0000
  C   C23       1.0  0.9581914595904877  0.44586952360833004  0.5421317756381683  1.0000
  C   C24       1.0  0.04181023703591789  0.5541023391074303  0.45784287505990306  1.0000
  N   N1        1.0  0.5953311660338798  0.11374194721235399  0.1433670635519135  1.0000
  N   N2        1.0  0.4046594894313102  0.8862588423933532  0.8566318679614113  1.0000
  N   N3        1.0  0.7055799623563033  0.8667176239948944  0.09756721056772474  1.0000
  N   N4        1.0  0.2944197462786349  0.13328332031151285  0.9024316549907068  1.0000
  N   N5        1.0  0.878303284005959  0.2742127976888753  0.7978643380276225  1.0000
  N   N6        1.0  0.12168789129677288  0.7258307881808648  0.2021439215247725  1.0000
  O   O1        1.0  0.38621513227694493  0.2119530264146334  0.2973652238252171  1.0000
  O   O2        1.0  0.6137794999924967  0.7880316835307112  0.7026368537543776  1.0000
  O   O3        1.0  0.45448229277606345  0.966598624277644  0.395206173933218  1.0000
  O   O4        1.0  0.5455183213412766  0.033387198304993086  0.604793373718408  1.0000
  O   O5        1.0  0.6114351328160981  0.6358809631873041  0.33680987413088564  1.0000
  O   O6        1.0  0.38855091753111287  0.36412123219729153  0.6631666642552289  1.0000
  O   O7        1.0  0.7110061926225415  0.5572338159294218  0.18365539314495288  1.0000
  O   O8        1.0  0.2890272481794439  0.44277062113976484  0.8163469194387856  1.0000
  O   O9        1.0  0.06019103537931159  0.12918651931971678  0.39273399424267547  1.0000
  O   O10       1.0  0.9398268589016681  0.8707766892270145  0.6072644911277506  1.0000
  O   O11       1.0  0.809815603709481  0.015204391634206588  0.41186583288767037  1.0000
  O   O12       1.0  0.19019203301578366  0.9847802628006405  0.5881457262298965  1.0000
  O   O13       1.0  0.04392482114820238  0.3087418396629928  0.5779805648756948  1.0000
  O   O14       1.0  0.9560840588819276  0.6912258263945004  0.4220135551624437  1.0000
  O   O15       1.0  0.8065369150503233  0.5050305993488706  0.5665401285304199  1.0000
  O   O16       1.0  0.19348026237675245  0.4949369163566288  0.4334388403892858  1.0000
  O   O17       1.0  0.5763017750716415  0.3313125572092516  0.46491874897828467  1.0000
  O   O18       1.0  0.42369332939844634  0.6686668979799394  0.5350814540043202  1.0000
