data_image0
_chemical_formula_structural       Al2H24C48O36
_chemical_formula_sum              "Al2 H24 C48 O36"
_cell_length_a       4.033906704110259
_cell_length_b       28.95050258625119
_cell_length_c       28.950419914346664
_cell_angle_alpha    119.99470984604697
_cell_angle_beta     89.99962191180904
_cell_angle_gamma    90.0007998029533

_space_group_name_H-M_alt    "P 1"
_space_group_IT_number       1

loop_
  _space_group_symop_operation_xyz
  'x, y, z'

loop_
  _atom_site_type_symbol
  _atom_site_label
  _atom_site_symmetry_multiplicity
  _atom_site_fract_x
  _atom_site_fract_y
  _atom_site_fract_z
  _atom_site_occupancy
  Al  Al1       1.0  0.00034436613667309995  0.500010652655412  0.49999086334364057  1.0000
  Al  Al2       1.0  0.9988493400025503  0.16665847297178973  0.8333425958594276  1.0000
  H   H1        1.0  0.1358643666762376  0.15983540949837743  0.7199755814843626  1.0000
  H   H2        1.0  0.8625846459193197  0.2800358643188758  0.840246134587055  1.0000
  H   H3        1.0  0.8044837044502843  0.3755552678095243  0.7527557716585633  1.0000
  H   H4        1.0  0.19583983034700478  0.24725917928790858  0.6244125850515729  1.0000
  H   H5        1.0  0.8041539415967945  0.29108049757905247  0.5805640574346711  1.0000
  H   H6        1.0  0.19593526830458066  0.4194516169086884  0.7089296500311449  1.0000
  H   H7        1.0  0.13691442585482605  0.5068947143643218  0.6133741348326328  1.0000
  H   H8        1.0  0.8635396049320647  0.3866434572831637  0.4931338851663939  1.0000
  H   H9        1.0  0.1358346112246238  0.06011567125197102  0.8401734312189434  1.0000
  H   H10       1.0  0.8625720618072065  0.06020206226619958  0.7199725931829802  1.0000
  H   H11       1.0  0.8044582330046878  0.8772080189477336  0.6244609287452577  1.0000
  H   H12       1.0  0.195856697252772  0.8771435936090486  0.7527642188257107  1.0000
  H   H13       1.0  0.8041001529364775  0.7894824565896954  0.7089271912741425  1.0000
  H   H14       1.0  0.19593829681506486  0.7894902527564016  0.5805465560486242  1.0000
  H   H15       1.0  0.13690947195826203  0.60650805503181  0.493111369305801  1.0000
  H   H16       1.0  0.8635348383876574  0.6065042159045076  0.6133645818423048  1.0000
  H   H17       1.0  0.1358575839842828  0.2800219578040383  0.9398686235306928  1.0000
  H   H18       1.0  0.8625494328788433  0.15974801110236583  0.9398112140744247  1.0000
  H   H19       1.0  0.8044647488487157  0.24723488521514267  0.12280822941256282  1.0000
  H   H20       1.0  0.19590938021962498  0.37558870622272883  0.12283967650764545  1.0000
  H   H21       1.0  0.8041510820128791  0.4194332789575198  0.21049624428312805  1.0000
  H   H22       1.0  0.1959628894407288  0.2910668633934108  0.21053200068879366  1.0000
  H   H23       1.0  0.13692616199809748  0.3866271117363667  0.3935117204896131  1.0000
  H   H24       1.0  0.8635574640783973  0.5068660695139754  0.39347723950008634  1.0000
  C   C1        1.0  0.500311242664921  0.4583169087980891  0.416635892214032  1.0000
  C   C2        1.0  0.5003108712411474  0.45834569365688804  0.5416876978876106  1.0000
  C   C3        1.0  0.5003118108073822  0.5833652461434298  0.5416561482373936  1.0000
  C   C4        1.0  0.4989621638829788  0.20838018291122754  0.7917009168249936  1.0000
  C   C5        1.0  0.4989488290203495  0.08330274387034119  0.7916287103542956  1.0000
  C   C6        1.0  0.49894195640721506  0.20829344982168874  0.9166962363622275  1.0000
  C   C7        1.0  0.49931371931452156  0.23721777941651112  0.7628403602407944  1.0000
  C   C8        1.0  0.31164964828428765  0.21730421030093788  0.7146330578202296  1.0000
  C   C9        1.0  0.3205313159324774  0.24473018522043335  0.6863655636168602  1.0000
  C   C10       1.0  0.49993984468918024  0.2929363478015931  0.7070758827849916  1.0000
  C   C11       1.0  0.6791357345348814  0.3136326177221988  0.7553024684965877  1.0000
  C   C12       1.0  0.6873912801043713  0.2853864528354251  0.7827509505590485  1.0000
  C   C13       1.0  0.5000756788499601  0.3210755500065829  0.6789392831851515  1.0000
  C   C14       1.0  0.5000625215888234  0.34560904113180174  0.6544056519607581  1.0000
  C   C15       1.0  0.5000793643838791  0.37374755243192237  0.6262683615742048  1.0000
  C   C16       1.0  0.6793573072442951  0.35303907178202115  0.5780495472921032  1.0000
  C   C17       1.0  0.6880233234552903  0.38130094300704104  0.5506171534724233  1.0000
  C   C18       1.0  0.5002419200245355  0.4294968065371877  0.5705353680923582  1.0000
  C   C19       1.0  0.31234202564161956  0.44941083957389344  0.6187203773578389  1.0000
  C   C20       1.0  0.32084301050772973  0.42197081449145907  0.6469750005130877  1.0000
  C   C21       1.0  0.49929630242333894  0.02560856626377726  0.7627930991302634  1.0000
  C   C22       1.0  0.31163282796450176  0.9973138370684184  0.7827093297084322  1.0000
  C   C23       1.0  0.32053286688230304  0.9416237231382069  0.7552862606740832  1.0000
  C   C24       1.0  0.49993939697218087  0.9141351911802856  0.7070792543479172  1.0000
  C   C25       1.0  0.6791099122537503  0.9416673647528243  0.6863789557008106  1.0000
  C   C26       1.0  0.6873594828431776  0.9973595150687374  0.7146241102346381  1.0000
  C   C27       1.0  0.5000910815955707  0.8578613628973741  0.6789384600114944  1.0000
  C   C28       1.0  0.5000769323758546  0.808803640710181  0.6543984738051948  1.0000
  C   C29       1.0  0.5000848358278631  0.7525304105707845  0.6262570811629544  1.0000
  C   C30       1.0  0.6793385749072982  0.7250170564896197  0.6469686598877972  1.0000
  C   C31       1.0  0.6879932132966856  0.6693276814120779  0.6187083147021611  1.0000
  C   C32       1.0  0.500214714496714  0.6410571434858384  0.5705106187836722  1.0000
  C   C33       1.0  0.3123242043731835  0.66933084854346  0.5505956978649352  1.0000
  C   C34       1.0  0.32084648179147723  0.7250212004456175  0.5780337453815889  1.0000
  C   C35       1.0  0.49928162300071227  0.23715162747200227  0.9743908087600418  1.0000
  C   C36       1.0  0.31162943044950703  0.2853600950542798  0.0026767608805969238  1.0000
  C   C37       1.0  0.3205414501010182  0.3136298708492049  0.05836655227194857  1.0000
  C   C38       1.0  0.4999416154356452  0.2929187473436272  0.08586561637367407  1.0000
  C   C39       1.0  0.6791111918180378  0.2446894602049241  0.058343530051423946  1.0000
  C   C40       1.0  0.6873513180272751  0.21723932726724374  0.002651305202157116  1.0000
  C   C41       1.0  0.500112709348663  0.32105700268652976  0.1421414538770592  1.0000
  C   C42       1.0  0.5000953948625123  0.34558710400048653  0.19119262220453248  1.0000
  C   C43       1.0  0.5001003968996329  0.3737304619926221  0.24746957388417462  1.0000
  C   C44       1.0  0.6793699482380048  0.4219518956109241  0.2749722785572147  1.0000
  C   C45       1.0  0.6880290718286516  0.4493855413056878  0.3306623583023125  1.0000
  C   C46       1.0  0.5002492228961303  0.42946724915137224  0.35894385458306033  1.0000
  C   C47       1.0  0.31236273369339773  0.3812809600631438  0.3306813653213752  1.0000
  C   C48       1.0  0.32087055230680045  0.35302360203531435  0.2749916094168299  1.0000
  O   O1        1.0  0.7314957093533466  0.5578787638670875  0.5511410660560969  1.0000
  O   O2        1.0  0.7314728383360745  0.4932917879693406  0.44211762015893913  1.0000
  O   O3        1.0  0.7314742274266165  0.448858562814678  0.5067136445537913  1.0000
  O   O4        1.0  0.26921781151237667  0.5578680905483608  0.5066717745211875  1.0000
  O   O5        1.0  0.26920631558698455  0.49332559670689585  0.5511660703884615  1.0000
  O   O6        1.0  0.26919182968579486  0.4488385085061779  0.442138161706609  1.0000
  O   O7        1.0  0.7299452386604058  0.17329796907068146  0.891178285887854  1.0000
  O   O8        1.0  0.7299537686055757  0.21785280033449086  0.8266982837144854  1.0000
  O   O9        1.0  0.7299496419515421  0.10882636251960087  0.7821541398303254  1.0000
  O   O10       1.0  0.2676634666225652  0.2177903646462482  0.891230894636621  1.0000
  O   O11       1.0  0.267662277302378  0.10876319505499776  0.8265864166079879  1.0000
  O   O12       1.0  0.2676762550441438  0.17342110253056842  0.7822067368621788  1.0000
  O   O13       1.0  0.1335228915372539  0.17169557076818634  0.6933305423852261  1.0000
  O   O14       1.0  0.8653750326443089  0.30666978324021693  0.8283740783858066  1.0000
  O   O15       1.0  0.8492009048870486  0.3604682768397609  0.7757447536840376  1.0000
  O   O16       1.0  0.15075555528375867  0.22428665185723426  0.639506134144881  1.0000
  O   O17       1.0  0.8491834872664865  0.30618244502899467  0.5575975202404635  1.0000
  O   O18       1.0  0.15094309218391544  0.4424174089271985  0.6938254673057996  1.0000
  O   O19       1.0  0.13433263385469732  0.4950309480479405  0.6400151749566589  1.0000
  O   O20       1.0  0.8660468120286567  0.36000209133293765  0.5049988878704  1.0000
  O   O21       1.0  0.13349786033761288  0.021612741766581938  0.8283158057651081  1.0000
  O   O22       1.0  0.8653299650826015  0.021700051640110133  0.6933375363569709  1.0000
  O   O23       1.0  0.8491409364644936  0.9152827884069552  0.6395423582861994  1.0000
  O   O24       1.0  0.15076768450200717  0.9152066566001054  0.7757335522701042  1.0000
  O   O25       1.0  0.8491418853610144  0.7514167070787537  0.6938271699284189  1.0000
  O   O26       1.0  0.15095581614097137  0.7514232521073154  0.5575817515400133  1.0000
  O   O27       1.0  0.13430808172148548  0.6450113882573518  0.5049761841628424  1.0000
  O   O28       1.0  0.8660051172256404  0.6450045007161763  0.6400082780897877  1.0000
  O   O29       1.0  0.13350540449084744  0.3066644266899914  0.9783701980825442  1.0000
  O   O30       1.0  0.8653181424105584  0.1716155812193281  0.9783154039724452  1.0000
  O   O31       1.0  0.8491705740194889  0.22424368729775074  0.08473585922092754  1.0000
  O   O32       1.0  0.15080933598607518  0.3604920349791242  0.08477518161235767  1.0000
  O   O33       1.0  0.8491820859577927  0.44240288559488755  0.24856129219028136  1.0000
  O   O34       1.0  0.15097904598502507  0.3061731929538283  0.2485998625300141  1.0000
  O   O35       1.0  0.13436499037409527  0.35998527497486793  0.35501158072661815  1.0000
  O   O36       1.0  0.8660590799150044  0.4950032623893393  0.35497381866226624  1.0000
