data_image0
_chemical_formula_structural       Mg6H18C42S6O18
_chemical_formula_sum              "Mg6 H18 C42 S6 O18"
_cell_length_a       6.840724291238125
_cell_length_b       26.992627754955297
_cell_length_c       27.002340524591194
_cell_angle_alpha    119.32132031653889
_cell_angle_beta     94.8579094276568
_cell_angle_gamma    94.8573350490601

_space_group_name_H-M_alt    "P 1"
_space_group_IT_number       1

loop_
  _space_group_symop_operation_xyz
  'x, y, z'

loop_
  _atom_site_type_symbol
  _atom_site_label
  _atom_site_symmetry_multiplicity
  _atom_site_fract_x
  _atom_site_fract_y
  _atom_site_fract_z
  _atom_site_occupancy
  Mg  Mg1       1.0  0.8974655477604471  0.7030211912787151  0.374340857326345  1.0000
  Mg  Mg2       1.0  0.10254217779191774  0.29697924459649266  0.625659104021821  1.0000
  Mg  Mg3       1.0  0.5229618202501456  0.6254805525894438  0.32857798580837977  1.0000
  Mg  Mg4       1.0  0.4770423253313039  0.37451859480405847  0.6714216381621083  1.0000
  Mg  Mg5       1.0  0.19427381816301187  0.6712180095620325  0.29683547232570356  1.0000
  Mg  Mg6       1.0  0.805732655262595  0.32878285568729376  0.7031646721296523  1.0000
  H   H1        1.0  0.775938876355269  0.4591505200082081  0.5926667960125016  1.0000
  H   H2        1.0  0.4410070106873079  0.3991407681716339  0.5604448593363927  1.0000
  H   H3        1.0  0.3342360541885796  0.46876732730454046  0.5323378789312301  1.0000
  H   H4        1.0  0.22404386786190855  0.540846908490117  0.4073322659559793  1.0000
  H   H5        1.0  0.5589934196063453  0.6008626731447961  0.4395549340165558  1.0000
  H   H6        1.0  0.6657519608536973  0.5312318183005188  0.46765658188869696  1.0000
  H   H7        1.0  0.1835678775956495  0.4073089752555035  0.8664773244757383  1.0000
  H   H8        1.0  0.881190519964683  0.439579297942565  0.8388288280012617  1.0000
  H   H9        1.0  0.8025336576670482  0.4673798736088413  0.9364905466469935  1.0000
  H   H10       1.0  0.816437946427534  0.5926906020760185  0.13352476810949548  1.0000
  H   H11       1.0  0.11881785188698754  0.5604224261786966  0.1611710370022692  1.0000
  H   H12       1.0  0.1974744960621564  0.532621421381549  0.0635109553519584  1.0000
  H   H13       1.0  0.3165363896512474  0.1335163870296654  0.5409238076078039  1.0000
  H   H14       1.0  0.041991016556607995  0.161284616087535  0.6007028183821318  1.0000
  H   H15       1.0  0.8651909987019549  0.0635368321887597  0.5309516208218312  1.0000
  H   H16       1.0  0.6834640400217749  0.8664870543524116  0.4590763561021872  1.0000
  H   H17       1.0  0.9580061872054769  0.8387123834734352  0.39929449383758  1.0000
  H   H18       1.0  0.13479178598707628  0.9364636021757917  0.4690474315645831  1.0000
  C   C1        1.0  0.04644633170348555  0.4686279031656537  0.5603604703776809  1.0000
  C   C2        1.0  0.9230849958163388  0.44672369517640925  0.5856895834463386  1.0000
  C   C3        1.0  0.9846049988807195  0.4090015104488528  0.6040405006049452  1.0000
  C   C4        1.0  0.17515308273186037  0.3907872063809207  0.5940765028942322  1.0000
  C   C5        1.0  0.2957836025673045  0.4128997091441915  0.5673328741338323  1.0000
  C   C6        1.0  0.23572612761979883  0.45155557213415426  0.5517590776904342  1.0000
  C   C7        1.0  0.8488957458233483  0.3907443721173749  0.6336787475068846  1.0000
  C   C8        1.0  0.9535368450348898  0.5313703839883103  0.4396375397422502  1.0000
  C   C9        1.0  0.07690236672040375  0.5532741628390879  0.41430867728871584  1.0000
  C   C10       1.0  0.015393922553713048  0.59099892504765  0.395960011361538  1.0000
  C   C11       1.0  0.8248492042747557  0.6092140880725195  0.4059237613030503  1.0000
  C   C12       1.0  0.7042168264850941  0.5871037323035396  0.4326676599332087  1.0000
  C   C13       1.0  0.7642566595517194  0.5484448619678018  0.44823849326778026  1.0000
  C   C14       1.0  0.15111888293839118  0.6092552055271979  0.36632242410298227  1.0000
  C   C15       1.0  0.4865125545406883  0.4394749362320311  0.9083047824394724  1.0000
  C   C16       1.0  0.3377124727432771  0.4143230308494593  0.861077957310165  1.0000
  C   C17       1.0  0.3809942623113044  0.3961136298253365  0.8050445438298509  1.0000
  C   C18       1.0  0.5814665505742551  0.40608230978813237  0.7968190958145555  1.0000
  C   C19       1.0  0.7290127845692567  0.4326978645072756  0.8456809499610499  1.0000
  C   C20       1.0  0.6845065592183559  0.4480938087932386  0.8998560668348572  1.0000
  C   C21       1.0  0.2155680480206001  0.36651245232361873  0.7571373297890033  1.0000
  C   C22       1.0  0.5134945633223608  0.5605272174602972  0.09169637674239797  1.0000
  C   C23       1.0  0.6622912826506989  0.585678263557682  0.13892159785565641  1.0000
  C   C24       1.0  0.6190167846176562  0.6038846595344793  0.1949574014734878  1.0000
  C   C25       1.0  0.4185384152333781  0.5939155495099654  0.20318102654024267  1.0000
  C   C26       1.0  0.2709898932454564  0.5673012828668789  0.1543190126838567  1.0000
  C   C27       1.0  0.31550138259461136  0.5519070564097888  0.1001433685890305  1.0000
  C   C28       1.0  0.7844375609832354  0.6334866955487826  0.24286454800640192  1.0000
  C   C29       1.0  0.5775592728277558  0.09172622469826311  0.5312792695571673  1.0000
  C   C30       1.0  0.47616791861818797  0.13896612012353418  0.5533101327715002  1.0000
  C   C31       1.0  0.5755546180591437  0.1950637858080313  0.5910789982651748  1.0000
  C   C32       1.0  0.7843822315754067  0.2033113713501749  0.6092377166059036  1.0000
  C   C33       1.0  0.8829695933562148  0.15444382558020922  0.5869979948393578  1.0000
  C   C34       1.0  0.7840304579924364  0.10021223113876229  0.5482920908134403  1.0000
  C   C35       1.0  0.4582298197442326  0.24298964976422607  0.6094233379109397  1.0000
  C   C36       1.0  0.4224295599582106  0.90827163307398  0.46871717107526933  1.0000
  C   C37       1.0  0.523830579604379  0.8610334557325885  0.4466858756877983  1.0000
  C   C38       1.0  0.42443800599335896  0.8049357902989411  0.4089202166770533  1.0000
  C   C39       1.0  0.2156206662236428  0.7966882049578956  0.39075949797243226  1.0000
  C   C40       1.0  0.11702951007318768  0.8455540327213952  0.41299829721443604  1.0000
  C   C41       1.0  0.2159596231965607  0.8997851976532656  0.4517063888540918  1.0000
  C   C42       1.0  0.5417678501840655  0.7570112150407412  0.3905769868056908  1.0000
  S   S1        1.0  0.02980162965391028  0.4802868679925182  0.45687985767370515  1.0000
  S   S2        1.0  0.9701689523206125  0.5197097003823713  0.5431155583977086  1.0000
  S   S3        1.0  0.57203294204146  0.5432594386238989  0.023335385661397427  1.0000
  S   S4        1.0  0.42797792971937537  0.45674142720867633  0.9766667056270961  1.0000
  S   S5        1.0  0.5496533001470281  0.9766710184087514  0.519781484076496  1.0000
  S   S6        1.0  0.4503347852883762  0.023334140044795497  0.4802192536491177  1.0000
  O   O1        1.0  0.3143316311688906  0.589564171231423  0.35505933914478754  1.0000
  O   O2        1.0  0.10042610559993645  0.6461507668535375  0.3518738600700999  1.0000
  O   O3        1.0  0.7523280728400223  0.6454556785761979  0.3909818045128829  1.0000
  O   O4        1.0  0.6856731196193948  0.4104332586075614  0.6449405684201891  1.0000
  O   O5        1.0  0.899581009160002  0.35385138716703324  0.6481291508970131  1.0000
  O   O6        1.0  0.24768033638039808  0.3545490517395321  0.6090199026938165  1.0000
  O   O7        1.0  0.9589485940870756  0.6448065854456927  0.23449821291195147  1.0000
  O   O8        1.0  0.7483421572799924  0.6479065446552424  0.2942051121867023  1.0000
  O   O9        1.0  0.36103129532034467  0.6087765005192906  0.2543452909869898  1.0000
  O   O10       1.0  0.041062238443153425  0.3551912743893553  0.7655031472445158  1.0000
  O   O11       1.0  0.2516590502854967  0.35209260296215206  0.7057966705608222  1.0000
  O   O12       1.0  0.638979149504898  0.3912235060667939  0.7456545189366109  1.0000
  O   O13       1.0  0.7246766977923896  0.7653989483757327  0.4102832830999786  1.0000
  O   O14       1.0  0.45417384794774285  0.7056545815309075  0.35361925536223976  1.0000
  O   O15       1.0  0.10682439926101495  0.7454765404371386  0.35446128524341697  1.0000
  O   O16       1.0  0.2753148536458312  0.23459848017304805  0.5897133764649423  1.0000
  O   O17       1.0  0.5458349134707844  0.29434499564236205  0.6463810488030076  1.0000
  O   O18       1.0  0.8931835425519522  0.2545243247658817  0.6455381501804708  1.0000
