data_image0
_chemical_formula_structural       Li8Zn8H24C72O48
_chemical_formula_sum              "Li8 Zn8 H24 C72 O48"
_cell_length_a       11.28743814700071
_cell_length_b       16.45371926800106
_cell_length_c       16.453717083001006
_cell_angle_alpha    90.00002871802882
_cell_angle_beta     89.9999720824064
_cell_angle_gamma    90.00002948759091

_space_group_name_H-M_alt    "P 1"
_space_group_IT_number       1

loop_
  _space_group_symop_operation_xyz
  'x, y, z'

loop_
  _atom_site_type_symbol
  _atom_site_label
  _atom_site_symmetry_multiplicity
  _atom_site_fract_x
  _atom_site_fract_y
  _atom_site_fract_z
  _atom_site_occupancy
  Li  Li1       1.0  0.3786358830220137  0.09773853656458442  0.3253033545214237  1.0000
  Li  Li2       1.0  0.8786352565565564  0.9022619807133125  0.674696863195287  1.0000
  Li  Li3       1.0  0.1286375459818316  0.17469441356864485  0.5977366887339671  1.0000
  Li  Li4       1.0  0.6286379412173914  0.8253054075754916  0.4022630048145787  1.0000
  Li  Li5       1.0  0.3713622470911417  0.4022631220849746  0.8253053440031338  1.0000
  Li  Li6       1.0  0.8713626333749215  0.5977367848567283  0.17469487614550874  1.0000
  Li  Li7       1.0  0.6213642894630097  0.32530348444165486  0.09773898651994982  1.0000
  Li  Li8       1.0  0.12136405268309859  0.6746963341316031  0.90226131722622  1.0000
  Zn  Zn1       1.0  0.1580667858051612  0.174508397242235  0.4168018843545412  1.0000
  Zn  Zn2       1.0  0.658067052717719  0.8254920420698896  0.5831984071186654  1.0000
  Zn  Zn3       1.0  0.9080694410547991  0.08319732452988404  0.6745082457065834  1.0000
  Zn  Zn4       1.0  0.4080697951940451  0.9168019876214545  0.3254913544019047  1.0000
  Zn  Zn5       1.0  0.5919312793445073  0.3254914839667151  0.91680254606478  1.0000
  Zn  Zn6       1.0  0.09193073801233001  0.6745083242026199  0.08319776752362172  1.0000
  Zn  Zn7       1.0  0.841933389989336  0.4168020042240529  0.17450885950259482  1.0000
  Zn  Zn8       1.0  0.34193313915308465  0.583197892315134  0.8254913704869369  1.0000
  H   H1        1.0  0.9139522585805508  0.254306890746328  0.37120660964745883  1.0000
  H   H2        1.0  0.41395226916053923  0.7456930312498644  0.6287935962594633  1.0000
  H   H3        1.0  0.6639467188731415  0.1287967180086156  0.754304248823104  1.0000
  H   H4        1.0  0.1639470954984432  0.8712037233817967  0.2456954329184668  1.0000
  H   H5        1.0  0.8360530906334701  0.24569557541178003  0.8712036703291164  1.0000
  H   H6        1.0  0.33605346266067926  0.7543043190488206  0.1287959538612355  1.0000
  H   H7        1.0  0.0860496897685437  0.371206728354288  0.2543055330917952  1.0000
  H   H8        1.0  0.5860479220375578  0.6287936855006891  0.7456929591675135  1.0000
  H   H9        1.0  0.6282966536454565  0.1389869846298241  0.24252202858532715  1.0000
  H   H10       1.0  0.1282966592727419  0.861012836393897  0.7574782728426755  1.0000
  H   H11       1.0  0.37829297249410127  0.2574793981592905  0.6389838823729265  1.0000
  H   H12       1.0  0.8782933349815636  0.7425205112322574  0.36101633545813894  1.0000
  H   H13       1.0  0.12170685088730687  0.3610158480634666  0.7425204342814811  1.0000
  H   H14       1.0  0.6217063233616855  0.6389839706306689  0.25747926158478424  1.0000
  H   H15       1.0  0.37170351802247836  0.2425215593485746  0.138987437675425  1.0000
  H   H16       1.0  0.8717035367243896  0.7574783477136934  0.8610127823591611  1.0000
  H   H17       1.0  0.7702782656226858  0.02747732125438771  0.4584494771746536  1.0000
  H   H18       1.0  0.27027762217369394  0.9725219421908662  0.5415501690103286  1.0000
  H   H19       1.0  0.5202790912903552  0.041550708178739605  0.5274770859549065  1.0000
  H   H20       1.0  0.020279372245887797  0.9584496824285581  0.47252264382805015  1.0000
  H   H21       1.0  0.9797208200633775  0.4725227575648674  0.9584490345811008  1.0000
  H   H22       1.0  0.47972019812548444  0.5274771876786846  0.0415505415680215  1.0000
  H   H23       1.0  0.2297227940397732  0.45844958568091704  0.027477758150212108  1.0000
  H   H24       1.0  0.7297225717695356  0.5415502711944953  0.9725225093616959  1.0000
  C   C1        1.0  0.9219876535414286  0.1444697517696198  0.49895582973694275  1.0000
  C   C2        1.0  0.4219878371269985  0.8555307808320906  0.5010437657177251  1.0000
  C   C3        1.0  0.6719901649289638  0.0010456366138101006  0.6444706750563542  1.0000
  C   C4        1.0  0.17199144524071389  0.9989541998549074  0.35553021952605957  1.0000
  C   C5        1.0  0.8280096315046208  0.3555309551147802  0.9989547714623939  1.0000
  C   C6        1.0  0.32800824005015977  0.6444695442678068  0.0010454631834804005  1.0000
  C   C7        1.0  0.0780125232782893  0.49895653917455723  0.14447020275681416  1.0000
  C   C8        1.0  0.5780114677781683  0.5010432640747311  0.8555301154859978  1.0000
  C   C9        1.0  0.7677853973422514  0.27088606234885765  0.24030612566212994  1.0000
  C   C10       1.0  0.26778441661992497  0.7291138079806458  0.7596941291220602  1.0000
  C   C11       1.0  0.517780734053204  0.2596965837603663  0.7708817152130865  1.0000
  C   C12       1.0  0.0177810243613408  0.7403038059638264  0.22911801540530524  1.0000
  C   C13       1.0  0.9822191588700093  0.22911816150269712  0.7403037369217673  1.0000
  C   C14       1.0  0.48221945038117303  0.7708817846241162  0.259695838391778  1.0000
  C   C15       1.0  0.23221477687670944  0.24030626314580425  0.27088592381385024  1.0000
  C   C16       1.0  0.7322148908859989  0.7596942023756912  0.7291137350994463  1.0000
  C   C17       1.0  0.61023755354514  0.0039044783279891006  0.3433727654874944  1.0000
  C   C18       1.0  0.11023773199711678  0.996095336312152  0.6566269342138967  1.0000
  C   C19       1.0  0.36023662679381363  0.15662192135292233  0.5039019215581462  1.0000
  C   C20       1.0  0.8602369689492165  0.8433773738908033  0.4960983023106708  1.0000
  C   C21       1.0  0.13976322155985338  0.4960977971438823  0.8433779182793943  1.0000
  C   C22       1.0  0.639762664421326  0.5039014201674306  0.15662177154880652  1.0000
  C   C23       1.0  0.38976261744997487  0.3433728908037851  0.0039043058482662  1.0000
  C   C24       1.0  0.8897624646732679  0.6566270226417572  0.9960953003821233  1.0000
  C   C25       1.0  0.8495584894476023  0.1414485185994465  0.4233309841819804  1.0000
  C   C26       1.0  0.3495586216035064  0.858551380635099  0.5766692432577117  1.0000
  C   C27       1.0  0.5995583467050309  0.07666743109278681  0.6414464654735144  1.0000
  C   C28       1.0  0.0995577963229906  0.9233323797725319  0.35855384556445813  1.0000
  C   C29       1.0  0.9004415071127879  0.3585533659164427  0.9233329420290205  1.0000
  C   C30       1.0  0.40044183158364177  0.6414465513040711  0.07666726839575233  1.0000
  C   C31       1.0  0.15044168582598158  0.4233323121186461  0.1414477543413  1.0000
  C   C32       1.0  0.6504415707888711  0.5766687322631442  0.8585513241510938  1.0000
  C   C33       1.0  0.8523501322178575  0.20366179407417923  0.3654328359212117  1.0000
  C   C34       1.0  0.35235017664830787  0.7963381061471325  0.6345673905849909  1.0000
  C   C35       1.0  0.6023437436351102  0.13456803393510344  0.7036622083330428  1.0000
  C   C36       1.0  0.10234407998052569  0.8654329934454383  0.29633749400825593  1.0000
  C   C37       1.0  0.8976561070339102  0.2963376303646328  0.8654329402173107  1.0000
  C   C38       1.0  0.3976564370162022  0.7036622858713173  0.1345672711388772  1.0000
  C   C39       1.0  0.1476527009618209  0.36543417151707297  0.20366286134336065  1.0000
  C   C40       1.0  0.6476500156591952  0.6345668718788817  0.7963380413782843  1.0000
  C   C41       1.0  0.7718987726866616  0.20255259187334937  0.3005113487056407  1.0000
  C   C42       1.0  0.27189877185467987  0.797447279910152  0.6994882969374959  1.0000
  C   C43       1.0  0.521893272131784  0.19948829567415777  0.7025488118368486  1.0000
  C   C44       1.0  0.021894444980013396  0.800511487738703  0.2974515251714395  1.0000
  C   C45       1.0  0.9781048548388255  0.29745105438583147  0.8005108188915173  1.0000
  C   C46       1.0  0.47810513789278986  0.7025488902866786  0.19948875779781625  1.0000
  C   C47       1.0  0.22810140137266197  0.30051208592448836  0.20255244422843796  1.0000
  C   C48       1.0  0.728101421751724  0.6994883781430162  0.7974472160603554  1.0000
  C   C49       1.0  0.6912453747777788  0.13835493239650282  0.29271250044379843  1.0000
  C   C50       1.0  0.1912445305729449  0.8616449108779493  0.7072877799347739  1.0000
  C   C51       1.0  0.44124257904045544  0.2072883254849316  0.6383529987792687  1.0000
  C   C52       1.0  0.941243864630465  0.792712213923288  0.3616471980019185  1.0000
  C   C53       1.0  0.0587563222384233  0.3616473176849269  0.7927115352719272  1.0000
  C   C54       1.0  0.5587567158155479  0.6383524787578596  0.20728818164436555  1.0000
  C   C55       1.0  0.3087547978650775  0.2927120239411423  0.1383547769951576  1.0000
  C   C56       1.0  0.8087547785086286  0.7072872531047666  0.8616448563234514  1.0000
  C   C57       1.0  0.6929224165479937  0.07423631289927363  0.3485126413074014  1.0000
  C   C58       1.0  0.19292254594760994  0.9257635309679915  0.6514870307448108  1.0000
  C   C59       1.0  0.4429214383790523  0.15148755214460155  0.574234342221658  1.0000
  C   C60       1.0  0.9429218343177723  0.8485129878569  0.4257658539982786  1.0000
  C   C61       1.0  0.057078354909670295  0.42576596514714293  0.8485123166035822  1.0000
  C   C62       1.0  0.5570778541183969  0.5742338307023617  0.15148740087396112  1.0000
  C   C63       1.0  0.30707775593127445  0.348512765148037  0.0742367567361271  1.0000
  C   C64       1.0  0.8070776492384153  0.6514871190705307  0.9257634849088419  1.0000
  C   C65       1.0  0.7714167334405815  0.0763367801159518  0.413914871532704  1.0000
  C   C66       1.0  0.27141602176055807  0.9236630914971969  0.5860853820371403  1.0000
  C   C67       1.0  0.521414866512309  0.0860853324059576  0.5763341421739485  1.0000
  C   C68       1.0  0.021415148784946297  0.9139156663682898  0.4236661949947732  1.0000
  C   C69       1.0  0.9785850416873032  0.4236657074461122  0.9139150125928952  1.0000
  C   C70       1.0  0.4785844247403331  0.5763336296306463  0.0860845639358629  1.0000
  C   C71       1.0  0.2285843263073701  0.413914985938888  0.0763360079557742  1.0000
  C   C72       1.0  0.7285832861569972  0.5860848705336608  0.9236630444061549  1.0000
  O   O1        1.0  0.021739101405927396  0.18139255187564632  0.5002790947927098  1.0000
  O   O2        1.0  0.5217403083690256  0.818608447013375  0.49972124226743386  1.0000
  O   O3        1.0  0.771737694952627  0.9997207795795262  0.6813908336482657  1.0000
  O   O4        1.0  0.2717382531411801  0.0002784843822781  0.3186106353446974  1.0000
  O   O5        1.0  0.7282619172956118  0.3186113749449504  0.00027892241501350004  1.0000
  O   O6        1.0  0.22826161633459918  0.6813890891793905  0.999721345585563  1.0000
  O   O7        1.0  0.9782601902249296  0.5002785971116523  0.18139301635609686  1.0000
  O   O8        1.0  0.47825988172501605  0.4997213476158037  0.8186071680468033  1.0000
  O   O9        1.0  0.8755395236987551  0.10958767596051192  0.5601304554368768  1.0000
  O   O10       1.0  0.37553977685531936  0.890411624692412  0.43986976331478195  1.0000
  O   O11       1.0  0.6255371183551971  0.939869222302221  0.6095882228053571  1.0000
  O   O12       1.0  0.1255367844728994  0.0601305977460171  0.3904120795454703  1.0000
  O   O13       1.0  0.8744651604347028  0.3904128110022925  0.060130437360626815  1.0000
  O   O14       1.0  0.37446307628396625  0.6095877048009443  0.9398691739855851  1.0000
  O   O15       1.0  0.1244597676972319  0.5601305494305463  0.1095881227623963  1.0000
  O   O16       1.0  0.62446041347291  0.43986927023703976  0.8904121799485198  1.0000
  O   O17       1.0  0.8454044449446271  0.3281035373016294  0.2510702600848518  1.0000
  O   O18       1.0  0.3454043149309313  0.6718963604643591  0.7489293609785649  1.0000
  O   O19       1.0  0.595400625635868  0.2489349112480782  0.8280997734389217  1.0000
  O   O20       1.0  0.09540096463223341  0.7510648981475897  0.17189993122379835  1.0000
  O   O21       1.0  0.9045992176854155  0.17190008417826874  0.7510648297904441  1.0000
  O   O22       1.0  0.4045986737713676  0.8280998345115902  0.24893477147875842  1.0000
  O   O23       1.0  0.1545948446705481  0.25107039539497583  0.32810401339048684  1.0000
  O   O24       1.0  0.6545949912379356  0.7489294349245625  0.6718962792435762  1.0000
  O   O25       1.0  0.6916405918005494  0.269691168365938  0.18483174313512762  1.0000
  O   O26       1.0  0.19164045852777886  0.7303086750483346  0.8151685371111628  1.0000
  O   O27       1.0  0.4416315007721748  0.315172173124644  0.7696856595356467  1.0000
  O   O28       1.0  0.9416310268855028  0.6848277586554165  0.23031453711563193  1.0000
  O   O29       1.0  0.05836826933742859  0.2303140664767156  0.6848276734310803  1.0000
  O   O30       1.0  0.558368684729551  0.7696857298289004  0.3151720436149716  1.0000
  O   O31       1.0  0.3083595813036268  0.1848312809469377  0.2696910303953005  1.0000
  O   O32       1.0  0.8083597360331112  0.8151686037247714  0.7303092108209982  1.0000
  O   O33       1.0  0.5098277184054965  0.0150849021253663  0.3061307444552029  1.0000
  O   O34       1.0  0.009826976097443199  0.9849148770221205  0.6938689888226365  1.0000
  O   O35       1.0  0.2598223545254256  0.19386698091214782  0.5150860466351761  1.0000
  O   O36       1.0  0.7598217907722643  0.8061328866026826  0.4849142108117236  1.0000
  O   O37       1.0  0.24017751284413438  0.48491431585556916  0.8061328192377035  1.0000
  O   O38       1.0  0.7401778235828401  0.5150855447152765  0.19386683701273455  1.0000
  O   O39       1.0  0.49017245207682686  0.3061308756746897  0.015085339851609102  1.0000
  O   O40       1.0  0.9901723351448908  0.6938690732635068  0.9849148405678821  1.0000
  O   O41       1.0  0.6376240883350945  0.93792370921571  0.37643117859932573  1.0000
  O   O42       1.0  0.1376244763114087  0.06207550733962823  0.6235685119440363  1.0000
  O   O43       1.0  0.3876228344130793  0.12356920035293227  0.43792654309667983  1.0000
  O   O44       1.0  0.8876213826129838  0.8764307123360241  0.5620730638494466  1.0000
  O   O45       1.0  0.11237703796338387  0.5620737651881458  0.8764300453264939  1.0000
  O   O46       1.0  0.6123773407948008  0.43792605020827585  0.1235696536594517  1.0000
  O   O47       1.0  0.3623761016801267  0.3764312992076669  0.9379242682767883  1.0000
  O   O48       1.0  0.862375701338429  0.6235686045575053  0.06207595487688881  1.0000
