data_image0
_chemical_formula_structural       Cd4H52C60N4O20
_chemical_formula_sum              "Cd4 H52 C60 N4 O20"
_cell_length_a       6.704052513
_cell_length_b       13.471491665
_cell_length_c       15.229
_cell_angle_alpha    90.0
_cell_angle_beta     90.0
_cell_angle_gamma    90.0

_space_group_name_H-M_alt    "P 1"
_space_group_IT_number       1

loop_
  _space_group_symop_operation_xyz
  'x, y, z'

loop_
  _atom_site_type_symbol
  _atom_site_label
  _atom_site_symmetry_multiplicity
  _atom_site_fract_x
  _atom_site_fract_y
  _atom_site_fract_z
  _atom_site_occupancy
  Cd  Cd1       1.0  0.8610224918147225  0.689029116509495  0.4689802350778153  1.0000
  Cd  Cd2       1.0  0.6389747084607935  0.3109692752795824  0.9689802350778154  1.0000
  Cd  Cd3       1.0  0.138975641702288  0.1890288071525177  0.031020421564122106  1.0000
  Cd  Cd4       1.0  0.36102491669131354  0.8109703269448616  0.5310191082802549  1.0000
  H   H1        1.0  0.137903156069747  0.4593722917914179  0.6336266333968086  1.0000
  H   H2        1.0  0.3620959106887583  0.5406268423059615  0.13362597675487825  1.0000
  H   H3        1.0  0.8620934858121674  0.9593703742235107  0.8663720533193244  1.0000
  H   H4        1.0  0.6379022228282452  0.0406280175655667  0.3663727099612615  1.0000
  H   H5        1.0  0.15848921200119295  0.33048975649572304  0.7515628078009089  1.0000
  H   H6        1.0  0.34151134639240155  0.6695101199099442  0.2515621511589715  1.0000
  H   H7        1.0  0.8415089215158105  0.8304893235444126  0.748435222273294  1.0000
  H   H8        1.0  0.6584897703947946  0.1695098105529667  0.24843653555716125  1.0000
  H   H9        1.0  0.1282582435523381  0.511278199272823  0.020041368441788207  1.0000
  H   H10       1.0  0.3717423148412635  0.488722419441146  0.520040711799858  1.0000
  H   H11       1.0  0.8717443648699545  0.011278632224133403  0.47995797491627473  1.0000
  H   H12       1.0  0.6282588019459325  0.9887219864898287  0.9799579749162746  1.0000
  H   H13       1.0  0.13114754072929463  0.689487863035396  0.06116882264101521  1.0000
  H   H14       1.0  0.36885450929939634  0.3105127556785661  0.5611675093571478  1.0000
  H   H15       1.0  0.8688535760579017  0.18948903829500105  0.4388338039267197  1.0000
  H   H16       1.0  0.6311466074877998  0.810510838110666  0.9388331472847826  1.0000
  H   H17       1.0  0.140464293526037  0.8194133414846335  0.94446122529385  1.0000
  H   H18       1.0  0.3595377565026538  0.1805865349210407  0.4444612252938499  1.0000
  H   H19       1.0  0.8595398065313448  0.319413032127649  0.5555414012738851  1.0000
  H   H20       1.0  0.6404603770143495  0.6805853596614286  0.05553943134808751  1.0000
  H   H21       1.0  0.15273150053859302  0.7706362634638495  0.7878271718431906  1.0000
  H   H22       1.0  0.34726756621991234  0.22936435525011237  0.2878271718431904  1.0000
  H   H23       1.0  0.847268124613507  0.2706352117985773  0.7121747980826073  1.0000
  H   H24       1.0  0.6527335505672838  0.7293631799905071  0.21217282815680963  1.0000
  H   H25       1.0  0.8708195511117085  0.6104802797278026  0.27942149845689107  1.0000
  H   H26       1.0  0.6291791407988967  0.3895240505276263  0.7794221550988214  1.0000
  H   H27       1.0  0.12917858240529512  0.11047700113764593  0.22057784490117885  1.0000
  H   H28       1.0  0.37082048435321013  0.8895206483431366  0.7205778449011788  1.0000
  H   H29       1.0  0.9239098273751836  0.36534558476453344  0.3729292796638006  1.0000
  H   H30       1.0  0.5760903561705106  0.6346550339494286  0.872929936305731  1.0000
  H   H31       1.0  0.07608979777691623  0.8653451518132229  0.12707137697813667  1.0000
  H   H32       1.0  0.42391076061667843  0.1346554669007389  0.6270700636942692  1.0000
  H   H33       1.0  0.9701430571118197  0.3125184726898596  0.26633659465493764  1.0000
  H   H34       1.0  0.5298601097040674  0.6874814037158075  0.7663372512968678  1.0000
  H   H35       1.0  0.0298610429455621  0.8125195243551391  0.23366406198699965  1.0000
  H   H36       1.0  0.47014249871822505  0.1874818366671178  0.7336634053450624  1.0000
  H   H37       1.0  0.7199824271424264  0.3285998395783452  0.30494057390505  1.0000
  H   H38       1.0  0.7800192480383716  0.6714015214439115  0.8049392606211825  1.0000
  H   H39       1.0  0.2800201812798663  0.8286001489353225  0.19506073937881754  1.0000
  H   H40       1.0  0.21998336038392105  0.17139972747034452  0.6950600827368802  1.0000
  H   H41       1.0  0.8842666414835707  0.5445291570092792  0.1519219909383409  1.0000
  H   H42       1.0  0.6157335420621309  0.4554722040129776  0.6519200210125435  1.0000
  H   H43       1.0  0.11573298366852923  0.0445295899605966  0.3480799789874568  1.0000
  H   H44       1.0  0.3842675747250652  0.9554710287533723  0.8480780090616593  1.0000
  H   H45       1.0  0.7159818618204812  0.4419688738307244  0.14635563727099316  1.0000
  H   H46       1.0  0.7840183217252203  0.5580324871915394  0.6463536673451957  1.0000
  H   H47       1.0  0.2840192549667151  0.941968440879407  0.3536463326548046  1.0000
  H   H48       1.0  0.21597981179179024  0.058032177834554916  0.8536437060870696  1.0000
  H   H49       1.0  0.9772313070782206  0.42062751036857554  0.1416888830520691  1.0000
  H   H50       1.0  0.522768876467481  0.579374592961976  0.641687569768209  1.0000
  H   H51       1.0  0.022768318073886504  0.9206263351089704  0.3583130868737286  1.0000
  H   H52       1.0  0.4772307486846189  0.07937279898840192  0.8583111169479312  1.0000
  C   C1        1.0  0.1436787671534745  0.5814612215773494  0.72288725458008  1.0000
  C   C2        1.0  0.35631880796993454  0.4185393971366126  0.22288725458007977  1.0000
  C   C3        1.0  0.8563178747284399  0.081460912220372  0.7771134020618577  1.0000
  C   C4        1.0  0.6436808171821653  0.9185382218770073  0.2771127454199204  1.0000
  C   C5        1.0  0.1423109377723364  0.48111450173249903  0.702477510013793  1.0000
  C   C6        1.0  0.3576881289861689  0.5188861169814629  0.20247685337185575  1.0000
  C   C7        1.0  0.8576857041095778  0.9811125841645991  0.7975224899862072  1.0000
  C   C8        1.0  0.6423129878010273  0.018885807624478407  0.29752314662814433  1.0000
  C   C9        1.0  0.1499123102110431  0.4089034931678413  0.768479217282817  1.0000
  C   C10       1.0  0.3500882481825515  0.5910971255461206  0.26847921728281693  1.0000
  C   C11       1.0  0.8500858233059603  0.9089015755999412  0.7315207827171835  1.0000
  C   C12       1.0  0.6499128686046449  0.0910968161891361  0.2315207827171832  1.0000
  C   C13       1.0  0.1428613511219936  0.4360214997765085  0.8560949504235326  1.0000
  C   C14       1.0  0.3571377156365046  0.5639776343208709  0.3560949504235326  1.0000
  C   C15       1.0  0.85713678239501  0.936021809133486  0.6439043929345305  1.0000
  C   C16       1.0  0.6428619095155954  0.06397658265559161  0.14390439293453036  1.0000
  C   C17       1.0  0.1329956766106832  0.5685346649397972  0.969778711668525  1.0000
  C   C18       1.0  0.3670033901478149  0.431465953774172  0.46977871166852486  1.0000
  C   C19       1.0  0.8670024569063202  0.0685365825076971  0.5302226016153357  1.0000
  C   C20       1.0  0.632997726639374  0.931463293897977  0.030223258257272807  1.0000
  C   C21       1.0  0.1342486500895959  0.6675519106294914  0.9922562216823183  1.0000
  C   C22       1.0  0.3657519083040058  0.3324494503927653  0.4922562216823182  1.0000
  C   C23       1.0  0.8657539583326967  0.1675560551222759  0.5077437783176821  1.0000
  C   C24       1.0  0.6342462252130049  0.8324430789751036  0.007743778317681901  1.0000
  C   C25       1.0  0.1397736664775451  0.7411064972068928  0.9260706546720103  1.0000
  C   C26       1.0  0.3602283835511457  0.2588926368904794  0.4260726245978077  1.0000
  C   C27       1.0  0.8602274503096512  0.24110841477479283  0.5739306586118575  1.0000
  C   C28       1.0  0.6397786997764214  0.7588914616308744  0.07393065861185733  1.0000
  C   C29       1.0  0.1453016661356799  0.7142423600348949  0.8387366209206135  1.0000
  C   C30       1.0  0.3546959089877292  0.2857560317541896  0.3387359642786763  1.0000
  C   C31       1.0  0.8547009422866056  0.21424279298620522  0.6612660056471216  1.0000
  C   C32       1.0  0.6452992412590888  0.7857570834194619  0.16126600564712135  1.0000
  C   C33       1.0  0.14446038394270033  0.612653016105327  0.8127237507387195  1.0000
  C   C34       1.0  0.3555386828158049  0.38734760260863516  0.3127250640225868  1.0000
  C   C35       1.0  0.8555347663041177  0.11265270674834232  0.6872749359774133  1.0000
  C   C36       1.0  0.6444624339713914  0.8873464273490299  0.18727559261934357  1.0000
  C   C37       1.0  0.1373199267480132  0.5381616364604725  0.8804215641210862  1.0000
  C   C38       1.0  0.3626806316455814  0.4618382399451946  0.3804209074791488  1.0000
  C   C39       1.0  0.8626841733093685  0.038163554028372515  0.6195758093111794  1.0000
  C   C40       1.0  0.6373189935065184  0.9618355800689997  0.11957580931117923  1.0000
  C   C41       1.0  0.14786131195688063  0.6513792398208056  0.6458388600696028  1.0000
  C   C42       1.0  0.3521362631665285  0.3486198942765739  0.1458408299954002  1.0000
  C   C43       1.0  0.8521353299250338  0.1513781881555261  0.8541591700046001  1.0000
  C   C44       1.0  0.647860378715386  0.8486209459418461  0.3541611399303975  1.0000
  C   C45       1.0  0.14163075216949753  0.3539719370787254  0.9218340009192973  1.0000
  C   C46       1.0  0.358369806224097  0.6460294239435314  0.42183334427736713  1.0000
  C   C47       1.0  0.8583718562527951  0.8539707618191203  0.5781646857968354  1.0000
  C   C48       1.0  0.6416298189280027  0.1460268876616624  0.07816665572263302  1.0000
  C   C49       1.0  0.8709358986490374  0.5403098766642813  0.3166727953247062  1.0000
  C   C50       1.0  0.6290702514370352  0.4596922266662773  0.8166491562151139  1.0000
  C   C51       1.0  0.1290667097732481  0.040308824999002  0.18334756057522136  1.0000
  C   C52       1.0  0.3709293737150646  0.95969179371496  0.6833285179591544  1.0000
  C   C53       1.0  0.8709791560667599  0.3601650151783673  0.305098824610937  1.0000
  C   C54       1.0  0.6290195358438382  0.6398370881521842  0.8050955414012722  1.0000
  C   C55       1.0  0.12902046908534  0.8601645822270572  0.19490445859872815  1.0000
  C   C56       1.0  0.3709800893082616  0.1398352941786101  0.694901175389063  1.0000
  C   C57       1.0  0.8610911070290401  0.46695348640146517  0.1713520257403616  1.0000
  C   C58       1.0  0.6389105681517506  0.5330471323125039  0.6713487425306965  1.0000
  C   C59       1.0  0.1389100097581561  0.9669537957584426  0.3286512574693035  1.0000
  C   C60       1.0  0.361093531905631  0.0330468229555194  0.8286479742596387  1.0000
  N   N1        1.0  0.8698216472338631  0.4591503416114123  0.2666681988311766  1.0000
  N   N2        1.0  0.6301770446767352  0.5408495347942619  0.7666695121150442  1.0000
  N   N3        1.0  0.1301779779182368  0.9591506509683898  0.23333114452688625  1.0000
  N   N4        1.0  0.3698225804753649  0.04084922543727741  0.7333318011688235  1.0000
  O   O1        1.0  0.0550129938995596  0.622199843078775  0.5779827959813488  1.0000
  O   O2        1.0  0.4449875644940349  0.3778007756351869  0.0779814826974885  1.0000
  O   O3        1.0  0.9449866312525401  0.1221987914134957  0.9220185173025117  1.0000
  O   O4        1.0  0.5550105690229685  0.8778003426838767  0.4220165473767139  1.0000
  O   O5        1.0  0.2502411782644671  0.7310207544117588  0.6531807735241986  1.0000
  O   O6        1.0  0.24975341358874914  0.2689791219939082  0.15318143016612856  1.0000
  O   O7        1.0  0.7497539719823509  0.23101970274647957  0.8468198831177391  1.0000
  O   O8        1.0  0.7502417366580689  0.7689794313508929  0.3468205397596692  1.0000
  O   O9        1.0  0.2717893388315105  0.28522528132374  0.9127887582901053  1.0000
  O   O10       1.0  0.22821271119718037  0.714775337390229  0.4127881016481681  1.0000
  O   O11       1.0  0.7282132695907748  0.7852255906807173  0.5872099284260273  1.0000
  O   O12       1.0  0.7717869139549195  0.21477502803324466  0.08721058506796453  1.0000
  O   O13       1.0  0.010305706864024003  0.3518103353256237  0.9823678508109525  1.0000
  O   O14       1.0  0.4896873933541032  0.6481902833883382  0.482366537527085  1.0000
  O   O15       1.0  0.9896924266529867  0.851812129299198  0.5176314925471177  1.0000
  O   O16       1.0  0.5103077568927148  0.1481884894147711  0.0176328058309778  1.0000
  O   O17       1.0  0.872230637910576  0.539569795294824  0.39937422023770364  1.0000
  O   O18       1.0  0.6277680540000291  0.4604300811108431  0.8993860397925035  1.0000
  O   O19       1.0  0.1277719705117093  0.03957022824614141  0.1006159301333014  1.0000
  O   O20       1.0  0.3722300795169816  0.9604303904678277  0.600624466478429  1.0000
