data_image0
_chemical_formula_structural       Na4H80C52N4O8
_chemical_formula_sum              "Na4 H80 C52 N4 O8"
_cell_length_a       10.388209873123973
_cell_length_b       10.767232690891975
_cell_length_c       15.99947340403596
_cell_angle_alpha    90.00023157092792
_cell_angle_beta     90.00003767954765
_cell_angle_gamma    97.78114721994314

_space_group_name_H-M_alt    "P 1"
_space_group_IT_number       1

loop_
  _space_group_symop_operation_xyz
  'x, y, z'

loop_
  _atom_site_type_symbol
  _atom_site_label
  _atom_site_symmetry_multiplicity
  _atom_site_fract_x
  _atom_site_fract_y
  _atom_site_fract_z
  _atom_site_occupancy
  Na  Na1       1.0  0.4883133003607227  0.5179400955960957  0.9043455705430289  1.0000
  Na  Na2       1.0  0.5116912649091602  0.9820621381131927  0.4043453720182128  1.0000
  Na  Na3       1.0  0.5116890515313343  0.48206039198409195  0.09565578631529799  1.0000
  Na  Na4       1.0  0.48831037345670575  0.017940217789714594  0.5956541097807744  1.0000
  H   H1        1.0  0.9191294345845051  0.42757461756651344  0.030719914079753594  1.0000
  H   H2        1.0  0.0808667280996787  0.0724236901903623  0.5307094573522093  1.0000
  H   H3        1.0  0.08087107888513854  0.5724193021752837  0.969284567872151  1.0000
  H   H4        1.0  0.9191344467115246  0.9275824087196229  0.46928127416374815  1.0000
  H   H5        1.0  0.9614004766202271  0.21437158479435683  0.0569811243253966  1.0000
  H   H6        1.0  0.03859958934285149  0.28562691355884334  0.5569781009833505  1.0000
  H   H7        1.0  0.038602927352549395  0.7856223540657227  0.943018982483167  1.0000
  H   H8        1.0  0.9613991585099125  0.7143754231923864  0.4430151306092682  1.0000
  H   H9        1.0  0.7858343913513084  0.0313923901269462  0.0442647952174582  1.0000
  H   H10       1.0  0.2141664892799183  0.46860509735203215  0.5442710933508861  1.0000
  H   H11       1.0  0.21416662206491566  0.968605278995341  0.9557296864104854  1.0000
  H   H12       1.0  0.7858305451417706  0.5313916089216518  0.45572776341889204  1.0000
  H   H13       1.0  0.5625253694354911  0.07319479348437599  0.0026378081294069  1.0000
  H   H14       1.0  0.4374744696064568  0.42680242597079127  0.5026434653416414  1.0000
  H   H15       1.0  0.4374744669116026  0.926808487007001  0.9973585485675898  1.0000
  H   H16       1.0  0.562518924375226  0.5731886370569087  0.4973566414608469  1.0000
  H   H17       1.0  0.5179235359780137  0.2862263179389331  0.9737781738749405  1.0000
  H   H18       1.0  0.4820780253642241  0.21377293185420138  0.47377848700234176  1.0000
  H   H19       1.0  0.48208233136681133  0.7137788755401503  0.026223808011081897  1.0000
  H   H20       1.0  0.5179246650841164  0.7862228753344951  0.5262216198085881  1.0000
  H   H21       1.0  0.8737539784238493  0.5741543980634701  0.961746369571074  1.0000
  H   H22       1.0  0.1262460905784053  0.9258425468095127  0.4617464763709833  1.0000
  H   H23       1.0  0.12624996191438947  0.4258507826550256  0.03825373725280199  1.0000
  H   H24       1.0  0.8737544228877141  0.07415137292050389  0.5382542554574953  1.0000
  H   H25       1.0  0.7356247928004365  0.6771670275061296  0.8670908634818062  1.0000
  H   H26       1.0  0.26437342161400307  0.8228311843627905  0.3670901267824291  1.0000
  H   H27       1.0  0.26436947610535094  0.32283059699636135  0.1329104933708933  1.0000
  H   H28       1.0  0.7356319457736902  0.1771702597004463  0.6329106050572763  1.0000
  H   H29       1.0  0.8215189541498588  0.7901328975223193  0.9350182705445107  1.0000
  H   H30       1.0  0.17847926269853787  0.709864803950957  0.4350184410365046  1.0000
  H   H31       1.0  0.17847304919012427  0.20986939460125592  0.06497933619058222  1.0000
  H   H32       1.0  0.8215254797436201  0.2901319533454085  0.564981665776159  1.0000
  H   H33       1.0  0.6546793921963072  0.7380779125072647  0.9528793767245034  1.0000
  H   H34       1.0  0.3453206601718293  0.7619189766296017  0.4528785105200796  1.0000
  H   H35       1.0  0.3453184807393868  0.26191786279274953  0.0471201050647707  1.0000
  H   H36       1.0  0.6546834937343035  0.23808058634639917  0.5471209712756817  1.0000
  H   H37       1.0  0.8298335363285502  0.5701767544015365  0.1182085919141329  1.0000
  H   H38       1.0  0.17016810163815413  0.9298274110876361  0.6182085158295577  1.0000
  H   H39       1.0  0.17016956549568352  0.429829357290643  0.8817908898902542  1.0000
  H   H40       1.0  0.8298298962877054  0.0701693015692868  0.38179221600214663  1.0000
  H   H41       1.0  0.7244118305647332  0.6859199749221147  0.1022013236417649  1.0000
  H   H42       1.0  0.27558772538173315  0.8140831398495577  0.6022022304619767  1.0000
  H   H43       1.0  0.2755893442546764  0.31408612401537533  0.8977981581621819  1.0000
  H   H44       1.0  0.7244111110587212  0.18591264183566378  0.3977997514097993  1.0000
  H   H45       1.0  0.8937804646283709  0.7212634662054498  0.0806394486162318  1.0000
  H   H46       1.0  0.10622194137818744  0.7787395321715775  0.5806401861827553  1.0000
  H   H47       1.0  0.10621987167820628  0.27874356370963926  0.9193606582093635  1.0000
  H   H48       1.0  0.8937797855677443  0.22125626863977735  0.4193599206279543  1.0000
  H   H49       1.0  0.49581384786445415  0.6318236878527514  0.6650084740297757  1.0000
  H   H50       1.0  0.5041824354370588  0.8681760531497246  0.165010464353621  1.0000
  H   H51       1.0  0.5041835615247905  0.3681758304818387  0.3349910077644509  1.0000
  H   H52       1.0  0.4958166509813751  0.13182160324144826  0.8349915175207414  1.0000
  H   H53       1.0  0.6203226574169634  0.6060600658530715  0.7378971152055981  1.0000
  H   H54       1.0  0.37967593959484697  0.8939420207442695  0.23789787099920548  1.0000
  H   H55       1.0  0.37967512694041966  0.3939422645443855  0.2621036166336594  1.0000
  H   H56       1.0  0.6203241103254129  0.10605564202229086  0.7621034858548013  1.0000
  H   H57       1.0  0.28521858581738246  0.7056867033843586  0.8351616282158715  1.0000
  H   H58       1.0  0.7147788551780678  0.7943131761238573  0.3351610103284202  1.0000
  H   H59       1.0  0.7147783600259956  0.2943165579867753  0.1648384786038903  1.0000
  H   H60       1.0  0.28522215824343533  0.2056844930161148  0.6648390964846624  1.0000
  H   H61       1.0  0.2923148396834918  0.6873034336828566  0.7235073051089812  1.0000
  H   H62       1.0  0.7076825168540496  0.8126966813825047  0.2235073588677281  1.0000
  H   H63       1.0  0.7076831946506984  0.3127007714166368  0.2764921766917254  1.0000
  H   H64       1.0  0.29231669455103315  0.18730191235379579  0.7764921229256458  1.0000
  H   H65       1.0  0.450674091543938  0.8912155742351897  0.830187376335246  1.0000
  H   H66       1.0  0.5493235900985525  0.6087861487137259  0.33018680978563  1.0000
  H   H67       1.0  0.5493258697956661  0.1087886436209615  0.1698127304864627  1.0000
  H   H68       1.0  0.45067633483213126  0.39121057669788667  0.6698139220465079  1.0000
  H   H69       1.0  0.3258209998515368  0.9143106271051733  0.756750588435736  1.0000
  H   H70       1.0  0.6741755805298766  0.5856906278770352  0.2567481386824539  1.0000
  H   H71       1.0  0.6741779979862416  0.08569358437559059  0.2432501434063283  1.0000
  H   H72       1.0  0.325823630875206  0.4143079658592654  0.7432513431109199  1.0000
  H   H73       1.0  0.6640140518375404  0.8173538771070594  0.6628818164686479  1.0000
  H   H74       1.0  0.3359816389392734  0.6826486562101691  0.162883856933874  1.0000
  H   H75       1.0  0.3359827690150894  0.18264844690519766  0.3371164152881079  1.0000
  H   H76       1.0  0.6640166089645659  0.3173499311527123  0.837116874900417  1.0000
  H   H77       1.0  0.6522666998119178  0.8334446525012638  0.7746861404011938  1.0000
  H   H78       1.0  0.34773003920718537  0.6665576525809697  0.2746881424637094  1.0000
  H   H79       1.0  0.3477320480461187  0.16655768426764442  0.22531271637657105  1.0000
  H   H80       1.0  0.6522690472100762  0.3334400038062739  0.7253125893695156  1.0000
  C   C1        1.0  0.8393260824742015  0.3516448262586422  0.023327050744931892  1.0000
  C   C2        1.0  0.1606765608881915  0.14835160499052338  0.5233243343091161  1.0000
  C   C3        1.0  0.16067626941667607  0.6483556613176162  0.9766730560722576  1.0000
  C   C4        1.0  0.8393259159852277  0.851649819917107  0.4766688972830835  1.0000
  C   C5        1.0  0.8635004896988789  0.2293504022769994  0.0384548885443436  1.0000
  C   C6        1.0  0.13649820304107857  0.27064516119022386  0.5384506172388582  1.0000
  C   C7        1.0  0.13650303926347357  0.7706444739380273  0.961545843286089  1.0000
  C   C8        1.0  0.8634982428398885  0.7293543507473855  0.4615426143494403  1.0000
  C   C9        1.0  0.7658780336508356  0.1265180358962255  0.03195951449829689  1.0000
  C   C10       1.0  0.2341200583754457  0.373480292446878  0.5319618139500193  1.0000
  C   C11       1.0  0.23412515675053666  0.8734815206945754  0.9680374672149624  1.0000
  C   C12       1.0  0.7658734970006265  0.6265192003665517  0.46803391771990727  1.0000
  C   C13       1.0  0.641401941299918  0.15062812599624206  0.0087800071333533  1.0000
  C   C14       1.0  0.3585973207294161  0.34937193775019176  0.5087866706817151  1.0000
  C   C15       1.0  0.35859991063500013  0.8493686121680922  0.9912200996786567  1.0000
  C   C16       1.0  0.6413973231474444  0.6506284988249859  0.4912190613188655  1.0000
  C   C17       1.0  0.615671465338913  0.27157989999123794  0.9932119399412116  1.0000
  C   C18       1.0  0.38433134593809365  0.22842135303324076  0.4932116251363254  1.0000
  C   C19       1.0  0.3843281210401698  0.728421505827569  0.0067950421028938985  1.0000
  C   C20       1.0  0.6156777504743616  0.7715791792001382  0.5067934818469552  1.0000
  C   C21       1.0  0.7129948239378336  0.37938136469518463  0.9996023171850509  1.0000
  C   C22       1.0  0.2870078743373057  0.12061899114167568  0.49960166852364546  1.0000
  C   C23       1.0  0.28700824148158677  0.6206172545662053  0.00040216477376019995  1.0000
  C   C24       1.0  0.7129967795277138  0.8793843212560616  0.500400938380146  1.0000
  C   C25       1.0  0.7821755875128173  0.6007768765190987  0.9874141054309644  1.0000
  C   C26       1.0  0.2178247796158032  0.8992221043911214  0.48741355505815415  1.0000
  C   C27       1.0  0.21782676437923945  0.3992236110610889  0.0125872514273624  1.0000
  C   C28       1.0  0.7821773222988567  0.10077650848506887  0.5125884268181551  1.0000
  C   C29       1.0  0.746686451799057  0.707523007285502  0.9325849374882367  1.0000
  C   C30       1.0  0.25331176048440796  0.79247467889202  0.4325847389076785  1.0000
  C   C31       1.0  0.2533099940877719  0.2924765046717467  0.0674145443057768  1.0000
  C   C32       1.0  0.746693106947326  0.2075230157592926  0.5674159929268541  1.0000
  C   C33       1.0  0.8096550814002297  0.6473860407220114  0.07736484765757719  1.0000
  C   C34       1.0  0.19034647994985926  0.8526178680470834  0.5773651965806934  1.0000
  C   C35       1.0  0.19034609341976957  0.35262005821743964  0.9226352591669382  1.0000
  C   C36       1.0  0.8096554969758146  0.14737980747612764  0.42263678529431553  1.0000
  C   C37       1.0  0.5438104170402268  0.6642362943178381  0.724226102278287  1.0000
  C   C38       1.0  0.45618610233338325  0.8357647562449058  0.2242273590535575  1.0000
  C   C39       1.0  0.4561853153227631  0.3357650859699958  0.2757740045386683  1.0000
  C   C40       1.0  0.5438129840844681  0.16423290014430586  0.7757739978002292  1.0000
  C   C41       1.0  0.34816698378080696  0.7203177674438662  0.7799529696480858  1.0000
  C   C42       1.0  0.6518286766247812  0.7796836270059727  0.279952909833888  1.0000
  C   C43       1.0  0.6518289985601625  0.2796854875499193  0.2200471371714556  1.0000
  C   C44       1.0  0.3481705347814668  0.2203149667342572  0.7200478220006231  1.0000
  C   C45       1.0  0.40287341972684476  0.8573554603350146  0.7713447585146651  1.0000
  C   C46       1.0  0.5971230630428508  0.6426449490275203  0.271343054280841  1.0000
  C   C47       1.0  0.5971253281323641  0.14264687643782992  0.2286553483042368  1.0000
  C   C48       1.0  0.40287518485981616  0.3573536383314319  0.7286564275123126  1.0000
  C   C49       1.0  0.599099230963425  0.8013892930480039  0.7170748143780514  1.0000
  C   C50       1.0  0.4008955979687627  0.698613574517651  0.21707630123350435  1.0000
  C   C51       1.0  0.4008966263879615  0.19861302459084124  0.28292466741962125  1.0000
  C   C52       1.0  0.5991026499350766  0.3013850128452304  0.7829244306007936  1.0000
  N   N1        1.0  0.6786446971057671  0.49468376262811375  0.9835663128289622  1.0000
  N   N2        1.0  0.3213568825952677  0.005315548680023599  0.483564117265196  1.0000
  N   N3        1.0  0.32136017032713937  0.5053139320271284  0.016435669046707294  1.0000
  N   N4        1.0  0.6786429537559329  0.9946877318251096  0.5164366145757951  1.0000
  O   O1        1.0  0.4516223725510642  0.6453453393939838  0.7917145278815667  1.0000
  O   O2        1.0  0.5483751119346821  0.8546552043887061  0.2917158758446732  1.0000
  O   O3        1.0  0.5483725212985033  0.3546569718694811  0.2082855789364615  1.0000
  O   O4        1.0  0.45162493798557785  0.14534245837785417  0.7082854810093335  1.0000
  O   O5        1.0  0.49550731045436436  0.8754533194358274  0.7038538318537204  1.0000
  O   O6        1.0  0.5044872436984349  0.6245475903215619  0.2038545384648884  1.0000
  O   O7        1.0  0.5044905988908396  0.12454994831068687  0.2961456499456857  1.0000
  O   O8        1.0  0.49551100420481475  0.3754509970393585  0.796145568348841  1.0000
