data_image0
_chemical_formula_structural       Cd6H80C100N8O24
_chemical_formula_sum              "Cd6 H80 C100 N8 O24"
_cell_length_a       12.877951529939022
_cell_length_b       16.461495265342407
_cell_length_c       16.78704074918588
_cell_angle_alpha    90.74640115211278
_cell_angle_beta     112.54771204706894
_cell_angle_gamma    89.99099124814533

_space_group_name_H-M_alt    "P 1"
_space_group_IT_number       1

loop_
  _space_group_symop_operation_xyz
  'x, y, z'

loop_
  _atom_site_type_symbol
  _atom_site_label
  _atom_site_symmetry_multiplicity
  _atom_site_fract_x
  _atom_site_fract_y
  _atom_site_fract_z
  _atom_site_occupancy
  Cd  Cd1       1.0  0.08412054171190408  0.761629151906746  0.7859110600444977  1.0000
  Cd  Cd2       1.0  0.297978279951451  0.7383578399021928  0.2142829207357266  1.0000
  Cd  Cd3       1.0  0.9158773696123745  0.23837087640115576  0.2140911686759565  1.0000
  Cd  Cd4       1.0  0.7019992558585669  0.2616258105266168  0.7857029987919119  1.0000
  Cd  Cd5       1.0  0.27800446825904146  0.7501632194808604  0.00013490953378438042  1.0000
  Cd  Cd6       1.0  0.7219969852518062  0.24983376934425644  0.9998683130961723  1.0000
  H   H1        1.0  0.29164035306628466  0.5607134616860989  0.6960824937388849  1.0000
  H   H2        1.0  0.42620044820629494  0.4438767959043588  0.7153542642072565  1.0000
  H   H3        1.0  0.4485613739303957  0.4154253424653191  0.9745989184364844  1.0000
  H   H4        1.0  0.3187164934637963  0.5339412953686773  0.9571353347025138  1.0000
  H   H5        1.0  0.8626815009492717  0.9773496589552546  0.8500165376899318  1.0000
  H   H6        1.0  0.16786726125477003  0.9105492473614163  0.05917047804458519  1.0000
  H   H7        1.0  0.9711484843973608  0.5992191094720167  0.6863563415758945  1.0000
  H   H8        1.0  0.8067104783346011  0.5057601989754373  0.6591760672911633  1.0000
  H   H9        1.0  0.7187468422512423  0.6532849537854302  0.8379494447672897  1.0000
  H   H10       1.0  0.8845085898303182  0.741714352221912  0.8556539035576378  1.0000
  H   H11       1.0  0.5297377942243741  0.7193467483082613  0.3665640510027686  1.0000
  H   H12       1.0  0.6207901562077964  0.679523095148852  0.5222099669775986  1.0000
  H   H13       1.0  0.28850894847634123  0.6309957391291761  0.5163808648246544  1.0000
  H   H14       1.0  0.2120755662804328  0.6715655326326768  0.3605491676114951  1.0000
  H   H15       1.0  0.6050168663908764  0.5348100556131213  0.7726768397521155  1.0000
  H   H16       1.0  0.6655943927677368  0.45717922575934716  0.7311294917188177  1.0000
  H   H17       1.0  0.5995257281955234  0.5285650806177813  0.5878068502812539  1.0000
  H   H18       1.0  0.48785297097634844  0.49604040550884304  0.6157696225841605  1.0000
  H   H19       1.0  0.585187591932538  0.6683665736281199  0.658836440462963  1.0000
  H   H20       1.0  0.4544034440816559  0.633190478228059  0.6569052602387585  1.0000
  H   H21       1.0  0.5950312132377107  0.9392407518567223  0.3037246246158034  1.0000
  H   H22       1.0  0.7105740217916932  0.055883404816846394  0.2844337552110332  1.0000
  H   H23       1.0  0.4735185726200868  0.08473557681485028  0.025350010987004595  1.0000
  H   H24       1.0  0.3611926615887739  0.9661285140435749  0.0426572677391164  1.0000
  H   H25       1.0  0.013127939366839292  0.5220024564664312  0.15020109802549086  1.0000
  H   H26       1.0  0.10814596094308382  0.5899306886471934  0.9408267812398065  1.0000
  H   H27       1.0  0.284237591617071  0.9011179134923424  0.3129043824105011  1.0000
  H   H28       1.0  0.14665251276095145  0.99436234260952  0.3401292419755322  1.0000
  H   H29       1.0  0.8803766572592978  0.846051598779546  0.1620095276059956  1.0000
  H   H30       1.0  0.02875128789721511  0.7575647948449742  0.144810153721572  1.0000
  H   H31       1.0  0.16397610827745274  0.7807512237583082  0.633770506448954  1.0000
  H   H32       1.0  0.09926813227070157  0.820244840087966  0.47803432386115935  1.0000
  H   H33       1.0  0.7727736321539851  0.8686774906934926  0.4839220854771042  1.0000
  H   H34       1.0  0.8521602667605066  0.8280006882095632  0.6396966633934582  1.0000
  H   H35       1.0  0.8317313024895441  0.9648635506781034  0.22741257426866912  1.0000
  H   H36       1.0  0.933819825860887  0.042481761650904594  0.2687683380976011  1.0000
  H   H37       1.0  0.011780345743936514  0.9710772810774628  0.411960317534394  1.0000
  H   H38       1.0  0.8721608008889206  0.0034403206709115  0.3845117264685669  1.0000
  H   H39       1.0  0.9270783826779976  0.8312198338983451  0.3414525866561817  1.0000
  H   H40       1.0  0.7979927509229512  0.8660437754230302  0.3433016169374242  1.0000
  H   H41       1.0  0.708336590012891  0.4392683567749884  0.30390954445847035  1.0000
  H   H42       1.0  0.5737699279699839  0.5561007685832209  0.2846387389836096  1.0000
  H   H43       1.0  0.5514712462709568  0.5846013962564952  0.0254163818605662  1.0000
  H   H44       1.0  0.6813053596944556  0.4660793823808547  0.04287082925414865  1.0000
  H   H45       1.0  0.13735206660462043  0.022653412248288894  0.1499810113116951  1.0000
  H   H46       1.0  0.8321579347294517  0.08944714126132419  0.940827051665785  1.0000
  H   H47       1.0  0.028831291624996452  0.40081066847827884  0.3136599557823772  1.0000
  H   H48       1.0  0.1932834993054513  0.49425923335667227  0.34085098073022374  1.0000
  H   H49       1.0  0.2812227950868973  0.34674301629789267  0.16205753964466396  1.0000
  H   H50       1.0  0.1154687893145052  0.25831177526538335  0.14436585214166087  1.0000
  H   H51       1.0  0.47026298411697093  0.2806435727108151  0.6334291907561393  1.0000
  H   H52       1.0  0.37921381573171686  0.32049151363477785  0.47779255935000003  1.0000
  H   H53       1.0  0.7114956230597187  0.3690182560246241  0.4836256193394916  1.0000
  H   H54       1.0  0.787925878284355  0.32843146134191403  0.6394506826879223  1.0000
  H   H55       1.0  0.3949604893486481  0.46521486452380856  0.22733783720870085  1.0000
  H   H56       1.0  0.3343912620374425  0.5428408208762504  0.2688934430541892  1.0000
  H   H57       1.0  0.4004615518882844  0.47143857513025017  0.41220748110607275  1.0000
  H   H58       1.0  0.512126128472417  0.5039784325638904  0.3842492692932352  1.0000
  H   H59       1.0  0.4148086745045846  0.33165046726567476  0.34116512785551834  1.0000
  H   H60       1.0  0.545589934533524  0.3668381131642988  0.34309183608311145  1.0000
  H   H61       1.0  0.40495894280922323  0.06075319145301712  0.6962840921405302  1.0000
  H   H62       1.0  0.28940315866879723  0.9441196414030057  0.7155822435469048  1.0000
  H   H63       1.0  0.5264974498729773  0.9152273908053201  0.9746515169617425  1.0000
  H   H64       1.0  0.6388364148202754  0.03383324092701659  0.9573421682812153  1.0000
  H   H65       1.0  0.9868454097220506  0.4779793792394074  0.8497797786640503  1.0000
  H   H66       1.0  0.8918286099117909  0.41005540050824146  0.05915367138852188  1.0000
  H   H67       1.0  0.7157617924358562  0.09884688898471687  0.6870897722454572  1.0000
  H   H68       1.0  0.8533623840316126  0.005606693258101799  0.6598770975103321  1.0000
  H   H69       1.0  0.11960881826091455  0.15396549899796244  0.8379551838585045  1.0000
  H   H70       1.0  0.9712204487590412  0.24245112628444326  0.8551298779969585  1.0000
  H   H71       1.0  0.8360313550334908  0.2192506082101673  0.3662438119210094  1.0000
  H   H72       1.0  0.9007529523575855  0.17975152166474118  0.521980956606285  1.0000
  H   H73       1.0  0.22723604745000617  0.1313103937545321  0.5160749917108944  1.0000
  H   H74       1.0  0.14784601613344253  0.17200602267914175  0.3603055846182457  1.0000
  H   H75       1.0  0.1682790905124137  0.0351364732736599  0.7725920456345037  1.0000
  H   H76       1.0  0.06619464042470471  0.9575103757377404  0.7312285164627426  1.0000
  H   H77       1.0  0.9882448657397164  0.02892154026916669  0.5880355664960604  1.0000
  H   H78       1.0  0.1278674122180875  0.9965597033107157  0.6154922144371183  1.0000
  H   H79       1.0  0.07294624450076985  0.1687765402190564  0.6585544644184651  1.0000
  H   H80       1.0  0.20202834233905523  0.13395746465111807  0.656701941343826  1.0000
  C   C1        1.0  0.2984323901948827  0.5543881092732263  0.8256298926511221  1.0000
  C   C2        1.0  0.327396791363917  0.5284347284932522  0.7568665119983748  1.0000
  C   C3        1.0  0.40099633557709763  0.46401759532795944  0.7673455393018003  1.0000
  C   C4        1.0  0.44610676572197155  0.4238772657962215  0.8463940479305448  1.0000
  C   C5        1.0  0.4136098814095916  0.44768328213297065  0.9138746598955478  1.0000
  C   C6        1.0  0.3411855929788671  0.5130958388821371  0.9039831068568062  1.0000
  C   C7        1.0  0.22255414451635147  0.6257982613090575  0.8135887747273215  1.0000
  C   C8        1.0  0.5335733072621738  0.35891538351946645  0.8597932086135955  1.0000
  C   C9        1.0  0.01646639033599939  0.9374673590686555  0.9490354233893115  1.0000
  C   C10       1.0  0.9220930056825054  0.9878827120715813  0.9159234556864035  1.0000
  C   C11       1.0  0.09453519784009498  0.9497315408179219  0.0336424437543812  1.0000
  C   C12       1.0  0.03353358723964575  0.8721825294111483  0.8928390355289721  1.0000
  C   C13       1.0  0.9114760994936972  0.6092623669395676  0.7173466828020238  1.0000
  C   C14       1.0  0.8206043667410725  0.5577195943929069  0.7030678451471317  1.0000
  C   C15       1.0  0.7473630214670522  0.5726071478794805  0.7455214178706555  1.0000
  C   C16       1.0  0.7719693086206904  0.6392635040476051  0.8023802356540557  1.0000
  C   C17       1.0  0.8642632859958823  0.6885500141488521  0.8129010723439549  1.0000
  C   C18       1.0  0.4801799584841718  0.6992521993510223  0.4028418231727073  1.0000
  C   C19       1.0  0.5294747674987974  0.6770973520608051  0.4888390126987758  1.0000
  C   C20       1.0  0.4616222015209812  0.652195282558658  0.5325279298382312  1.0000
  C   C21       1.0  0.34523518267859277  0.6499859878761355  0.4856551919221416  1.0000
  C   C22       1.0  0.3022091844592438  0.6728084425464899  0.3994871921218461  1.0000
  C   C23       1.0  0.6434320480158107  0.5218865969955216  0.725624478898517  1.0000
  C   C24       1.0  0.5586327299905847  0.5392094909760272  0.6338336911557221  1.0000
  C   C25       1.0  0.5143284075892396  0.6269732756803704  0.6249174833227612  1.0000
  C   C26       1.0  0.4723468235215265  0.9456346070438283  0.17418743467447947  1.0000
  C   C27       1.0  0.5701171026943896  0.9715188298425586  0.2429685153438825  1.0000
  C   C28       1.0  0.6333339843622383  0.0358491924390378  0.232478425061835  1.0000
  C   C29       1.0  0.5992892700105655  0.07606907493273948  0.15344224314226548  1.0000
  C   C30       1.0  0.4992603359638609  0.0523658933990774  0.08598702412520956  1.0000
  C   C31       1.0  0.43672962607887916  0.9869465521726325  0.09581544005427392  1.0000
  C   C32       1.0  0.4085141619046411  0.8743196973343427  0.18631960273786774  1.0000
  C   C33       1.0  0.673406538006489  0.14097987387104643  0.14006446366381198  1.0000
  C   C34       1.0  0.0673407789364333  0.5625105070181109  0.05106326919407421  1.0000
  C   C35       1.0  0.006412164112759933  0.5117825200573236  0.08418515646717141  1.0000
  C   C36       1.0  0.06056407761696664  0.5505371353317441  0.9663417155186239  1.0000
  C   C37       1.0  0.1404807639256731  0.6278388339261838  0.10726637556661699  1.0000
  C   C38       1.0  0.1936015038540262  0.8908209161276301  0.2821609708430941  1.0000
  C   C39       1.0  0.1167935338821451  0.9422504980226236  0.2963997878005813  1.0000
  C   C40       1.0  0.0011490129665503003  0.9271175431726987  0.2541385418825257  1.0000
  C   C41       1.0  0.9690947825350308  0.8602863072109485  0.19749419541749796  1.0000
  C   C42       1.0  0.05101397693955081  0.8109987787620838  0.1871609499231113  1.0000
  C   C43       1.0  0.07811851097621776  0.8007380353586129  0.5974621452220887  1.0000
  C   C44       1.0  0.04134824340216883  0.8227476386206192  0.511424851833091  1.0000
  C   C45       1.0  0.9297430378837885  0.8474994912760536  0.4677126143444498  1.0000
  C   C46       1.0  0.8602565737023513  0.8497216785553903  0.5146112384335383  1.0000
  C   C47       1.0  0.9034030134870079  0.8268809929907164  0.6007775999635996  1.0000
  C   C48       1.0  0.9172396503763877  0.9777790755418891  0.2742795379057696  1.0000
  C   C49       1.0  0.9247544723699831  0.9603789795183102  0.36617284912639286  1.0000
  C   C50       1.0  0.88985510815926  0.8725404112064011  0.3752703132969728  1.0000
  C   C51       1.0  0.70157448059296  0.44561738431045933  0.1743737738278952  1.0000
  C   C52       1.0  0.6725920749376256  0.4715513380284121  0.243128235686349  1.0000
  C   C53       1.0  0.5989943266013285  0.5359684632150065  0.23265436759551505  1.0000
  C   C54       1.0  0.5538935281767506  0.5761227587393805  0.15361056329930983  1.0000
  C   C55       1.0  0.5864149122583271  0.5523325293155281  0.08613524430980139  1.0000
  C   C56       1.0  0.6588308251664472  0.4869139026723131  0.09602341584808016  1.0000
  C   C57       1.0  0.7774491341538051  0.3742041963845252  0.18641379662881263  1.0000
  C   C58       1.0  0.4664281639846096  0.6410840367421711  0.14020921141907652  1.0000
  C   C59       1.0  0.9835612924017881  0.0625436156882628  0.05095883016410605  1.0000
  C   C60       1.0  0.07793999119333961  0.012123397761470799  0.0840735482945618  1.0000
  C   C61       1.0  0.9054930078811197  0.05027031864923969  0.9663530966889695  1.0000
  C   C62       1.0  0.9664869057495549  0.12782115591626558  0.10715469370128973  1.0000
  C   C63       1.0  0.08850422947076461  0.39076194094470645  0.28267096217419413  1.0000
  C   C64       1.0  0.17938664147081346  0.4423022792405574  0.2969520498096827  1.0000
  C   C65       1.0  0.25262087017651425  0.42741716078318603  0.254495585456489  1.0000
  C   C66       1.0  0.2280033313809824  0.3607668888947586  0.197631453545263  1.0000
  C   C67       1.0  0.1357176568682164  0.3114773343408856  0.1871146896183973  1.0000
  C   C68       1.0  0.5198220855209996  0.3007466227291927  0.5971544377049014  1.0000
  C   C69       1.0  0.47052438832051996  0.3229099686704942  0.5111619994845142  1.0000
  C   C70       1.0  0.538379412289558  0.34782175757167977  0.4674739406305903  1.0000
  C   C71       1.0  0.6547669518788695  0.3500219382518138  0.5143471223539677  1.0000
  C   C72       1.0  0.6977893285419368  0.32719341257966045  0.6005122902594308  1.0000
  C   C73       1.0  0.35655009835825513  0.47814196339527365  0.2743933376438433  1.0000
  C   C74       1.0  0.4413546916168086  0.46081056441665413  0.3661834427556201  1.0000
  C   C75       1.0  0.4856690473785008  0.3730431545026249  0.3750861092117219  1.0000
  C   C76       1.0  0.5276620625869342  0.054325923720931285  0.8258187084176143  1.0000
  C   C77       1.0  0.42988845780394774  0.028467811373488396  0.7570471354411409  1.0000
  C   C78       1.0  0.3666698508390454  0.96414413065429  0.7675380794237583  1.0000
  C   C79       1.0  0.4007192845691708  0.9239230461393004  0.8465655167972841  1.0000
  C   C80       1.0  0.5007515590491708  0.9476043815690006  0.9140037112270534  1.0000
  C   C81       1.0  0.5632780901189066  0.013020682698950702  0.9041769768783041  1.0000
  C   C82       1.0  0.5914900267219991  0.1256493477843961  0.8136810739515141  1.0000
  C   C83       1.0  0.3265871456115833  0.8590122591915303  0.8599359933357178  1.0000
  C   C84       1.0  0.9326302220097133  0.437474975109012  0.9489169718793631  1.0000
  C   C85       1.0  0.9935641781735214  0.4882011335450044  0.9157987287231322  1.0000
  C   C86       1.0  0.939413459753318  0.44944834543313306  0.03363917587721932  1.0000
  C   C87       1.0  0.8594967639784697  0.3721460418761424  0.8927128195426163  1.0000
  C   C88       1.0  0.8063931997767637  0.10915666376335759  0.7178210435984268  1.0000
  C   C89       1.0  0.8832083653227585  0.05773070547625987  0.7035961795582466  1.0000
  C   C90       1.0  0.9988458970982919  0.07288433434767679  0.7458464066603909  1.0000
  C   C91       1.0  0.030892990676704778  0.13972045866038477  0.8024727264936686  1.0000
  C   C92       1.0  0.9489666473525132  0.18900921993754588  0.8127946292893568  1.0000
  C   C93       1.0  0.9218937168073609  0.1992656206887062  0.40255106695223475  1.0000
  C   C94       1.0  0.9586698685212625  0.1772499454967686  0.4885857845750081  1.0000
  C   C95       1.0  0.07027389377881835  0.15250053002610292  0.5322934989637531  1.0000
  C   C96       1.0  0.1397526025267339  0.15027469948405778  0.4853938156521806  1.0000
  C   C97       1.0  0.09660622541603199  0.17312328432083038  0.3992267426168681  1.0000
  C   C98       1.0  0.08277308286243809  0.022218527362099394  0.7257189931951017  1.0000
  C   C99       1.0  0.07527313391084786  0.039621051843234084  0.6338262807387665  1.0000
  C   C100      1.0  0.11017133642910439  0.12746021541752842  0.6247369093438166  1.0000
  N   N1        1.0  0.9324147528112263  0.6744036556783897  0.7706487349812079  1.0000
  N   N2        1.0  0.36820927240572143  0.6973316341898864  0.3588961133198154  1.0000
  N   N3        1.0  0.1614040265961449  0.8254075588364099  0.22920010022897938  1.0000
  N   N4        1.0  0.010054096344305229  0.8025296639243604  0.6413940952862873  1.0000
  N   N5        1.0  0.06756498602282325  0.3256218707982653  0.22936664844506538  1.0000
  N   N6        1.0  0.6317885382238799  0.3026605167311587  0.6410924945010946  1.0000
  N   N7        1.0  0.8385836062883526  0.1745815858788546  0.770768214328676  1.0000
  N   N8        1.0  0.9899539707238745  0.1974764353104631  0.3586107725687667  1.0000
  O   O1        1.0  0.209231991999701  0.6573577696609547  0.879629261855868  1.0000
  O   O2        1.0  0.17152946910628938  0.6524055596889725  0.7378033394118332  1.0000
  O   O3        1.0  0.5740109198426778  0.3284518659521751  0.9348291575428077  1.0000
  O   O4        1.0  0.5605624529373757  0.3419697437699866  0.7961711312298334  1.0000
  O   O5        1.0  0.9751449325610791  0.8729333636733967  0.8123003252177481  1.0000
  O   O6        1.0  0.10644951470771244  0.8161464239528229  0.9269294507491708  1.0000
  O   O7        1.0  0.329015256494678  0.8428284692319821  0.12037715090686868  1.0000
  O   O8        1.0  0.43341345286753347  0.8476786162433851  0.26211861385706914  1.0000
  O   O9        1.0  0.6387181187619149  0.1716203694038825  0.06509576924182885  1.0000
  O   O10       1.0  0.7641323895956518  0.1577385282544483  0.2036152723591869  1.0000
  O   O11       1.0  0.1626606429936572  0.6270711865732465  0.1878226911979652  1.0000
  O   O12       1.0  0.17916693131432737  0.6839021318681161  0.0731218483038916  1.0000
  O   O13       1.0  0.7907563470015546  0.3426349729897352  0.12037006003202318  1.0000
  O   O14       1.0  0.8285000845612344  0.34761207841310676  0.2622037724326064  1.0000
  O   O15       1.0  0.42601324099332766  0.6715596949657578  0.0651792371031874  1.0000
  O   O16       1.0  0.43940730538633227  0.6580053927988911  0.20382039276569938  1.0000
  O   O17       1.0  0.02486430618579048  0.1270733553736108  0.18769647010434906  1.0000
  O   O18       1.0  0.893565642090628  0.1838572557012128  0.07306819174393546  1.0000
  O   O19       1.0  0.6710055964216651  0.15714544067581218  0.8796200503357596  1.0000
  O   O20       1.0  0.5665866506166566  0.1523001534987287  0.7378797415475375  1.0000
  O   O21       1.0  0.3612725267207538  0.8283644779266197  0.9349015881649053  1.0000
  O   O22       1.0  0.23585252616973662  0.8422681728144141  0.7963941978775253  1.0000
  O   O23       1.0  0.837315159613432  0.37292037110636034  0.8121573576118307  1.0000
  O   O24       1.0  0.8208165428835345  0.3160839611643596  0.9268557355777887  1.0000
