data_image0
_chemical_formula_structural       Gd4H48C44O36
_chemical_formula_sum              "Gd4 H48 C44 O36"
_cell_length_a       8.77378813318055
_cell_length_b       8.773786802101888
_cell_length_c       19.549672354672996
_cell_angle_alpha    82.92985500832035
_cell_angle_beta     82.92986519140209
_cell_angle_gamma    61.66961098867516

_space_group_name_H-M_alt    "P 1"
_space_group_IT_number       1

loop_
  _space_group_symop_operation_xyz
  'x, y, z'

loop_
  _atom_site_type_symbol
  _atom_site_label
  _atom_site_symmetry_multiplicity
  _atom_site_fract_x
  _atom_site_fract_y
  _atom_site_fract_z
  _atom_site_occupancy
  Gd  Gd1       1.0  0.6182709133232509  0.2670976955661429  0.45917094249954715  1.0000
  Gd  Gd2       1.0  0.7329036318330964  0.38172842379907473  0.040828534796339994  1.0000
  Gd  Gd3       1.0  0.38173015715348413  0.7329042214665548  0.5408286268704998  1.0000
  Gd  Gd4       1.0  0.2670981440421515  0.6182695863341223  0.9591712109527959  1.0000
  H   H1        1.0  0.9240839070075922  0.14086737312842956  0.35609616622767243  1.0000
  H   H2        1.0  0.8591338472907  0.075915166691189  0.1439038585063201  1.0000
  H   H3        1.0  0.07591892121310216  0.85913325607995  0.6439059348411433  1.0000
  H   H4        1.0  0.14086573279523426  0.9240802120236892  0.8560946186335485  1.0000
  H   H5        1.0  0.0065374431435503205  0.9979312338076837  0.4193576756494649  1.0000
  H   H6        1.0  0.0020701058260216274  0.9934646225819107  0.08064262547202358  1.0000
  H   H7        1.0  0.9934665277459518  0.002069406968260506  0.5806448733470545  1.0000
  H   H8        1.0  0.9979322864161376  0.006532089452008402  0.9193566463179932  1.0000
  H   H9        1.0  0.8872248047484846  0.2648463034933711  0.2266621826126638  1.0000
  H   H10       1.0  0.7351538066731251  0.11277516796153007  0.2733373364661134  1.0000
  H   H11       1.0  0.11277811327887137  0.7351517176903498  0.7733390341562512  1.0000
  H   H12       1.0  0.26484744315857994  0.8872215327633413  0.7266609758501656  1.0000
  H   H13       1.0  0.687105376736739  0.9148436013432498  0.5350587946991539  1.0000
  H   H14       1.0  0.08515932993530854  0.3128945427000998  0.9649404951757602  1.0000
  H   H15       1.0  0.3128904163744723  0.08516217502606337  0.46494136431118693  1.0000
  H   H16       1.0  0.9148435886087474  0.6871034790006617  0.035059698501079595  1.0000
  H   H17       1.0  0.6519164120797287  0.8961958259567807  0.4632716237243669  1.0000
  H   H18       1.0  0.10380564190677428  0.3480826283603449  0.036728352313709  1.0000
  H   H19       1.0  0.3480793810314893  0.1038099504125327  0.5367285352859668  1.0000
  H   H20       1.0  0.8961937585658363  0.6519179664038431  0.9632718934259684  1.0000
  H   H21       1.0  0.16016240336966098  0.20132643268219394  0.3568817760333758  1.0000
  H   H22       1.0  0.7986696495350505  0.8398387426568374  0.14311736497003838  1.0000
  H   H23       1.0  0.8398447389027056  0.7986651093141643  0.6431180304136745  1.0000
  H   H24       1.0  0.2013287871070091  0.16015662371490438  0.8568821988802355  1.0000
  H   H25       1.0  0.5264860878293834  0.2877685808254994  0.21031215850275936  1.0000
  H   H26       1.0  0.7122287550732412  0.4735165518520218  0.28968735271044466  1.0000
  H   H27       1.0  0.473515598755917  0.7122320378493966  0.7896874484542025  1.0000
  H   H28       1.0  0.28776493102190415  0.526483984040233  0.7103126995748709  1.0000
  H   H29       1.0  0.09427231260026056  0.26352049664682636  0.139040294740127  1.0000
  H   H30       1.0  0.7364800523172977  0.9057293353196909  0.3609595909638585  1.0000
  H   H31       1.0  0.9057282305411649  0.7364801096849333  0.8609603989272469  1.0000
  H   H32       1.0  0.2635193484136665  0.09427125970302089  0.6390401432297707  1.0000
  H   H33       1.0  0.7753254249012189  0.4478200929940853  0.6611564410446035  1.0000
  H   H34       1.0  0.5521839438313378  0.22467253251544858  0.8388444505063717  1.0000
  H   H35       1.0  0.22467045749994716  0.5521830748335288  0.3388438567579114  1.0000
  H   H36       1.0  0.44781712561198367  0.775329383483168  0.1611571650478254  1.0000
  H   H37       1.0  0.948206563652498  0.2357748129260884  0.6505747573431363  1.0000
  H   H38       1.0  0.7642296506383985  0.0517938017094934  0.8494254803422547  1.0000
  H   H39       1.0  0.05179160434464352  0.7642283782951933  0.3494259247687452  1.0000
  H   H40       1.0  0.23577141957998285  0.9482081150646806  0.150574600573826  1.0000
  H   H41       1.0  0.58426263979802  0.30109345681296407  0.711080218968547  1.0000
  H   H42       1.0  0.6989049360523868  0.4157383569323868  0.7889192799342695  1.0000
  H   H43       1.0  0.4157356180057834  0.6989071263836519  0.28891957884342645  1.0000
  H   H44       1.0  0.3010909466071326  0.5842648111537514  0.2110805063222045  1.0000
  H   H45       1.0  0.7757280196274435  0.10125485441093926  0.7110387068109887  1.0000
  H   H46       1.0  0.8987455663431378  0.22427487962698217  0.7889600780887704  1.0000
  H   H47       1.0  0.22427190766376998  0.898747050537146  0.28896143772342947  1.0000
  H   H48       1.0  0.10125312950602014  0.7757296228122779  0.21103845663370177  1.0000
  C   C1        1.0  0.4549393910674768  0.23436175829368008  0.3469651085106378  1.0000
  C   C2        1.0  0.7656364379725742  0.5450619628501698  0.1530354485225374  1.0000
  C   C3        1.0  0.5450623842910645  0.7656362513224763  0.6530356603305733  1.0000
  C   C4        1.0  0.23436357886695453  0.45493733381474044  0.8469643232580139  1.0000
  C   C5        1.0  0.20653724244180446  0.21959762178664016  0.3037516495774923  1.0000
  C   C6        1.0  0.7803970901692455  0.7934673476191563  0.19624737818544696  1.0000
  C   C7        1.0  0.7934680512465352  0.7803978150246136  0.69624855565484  1.0000
  C   C8        1.0  0.21959773962812795  0.2065332008747518  0.8037510758434223  1.0000
  C   C9        1.0  0.38016429047419115  0.32013486261848095  0.09598618440131898  1.0000
  C   C10       1.0  0.6798624133190786  0.6198385308826885  0.4040138252074568  1.0000
  C   C11       1.0  0.619835726365331  0.6798644340464293  0.9040135873792323  1.0000
  C   C12       1.0  0.32013575493642327  0.38016466059711  0.5959863453583835  1.0000
  C   C13       1.0  0.4126511005077305  0.2679950551881944  0.2214827796344352  1.0000
  C   C14       1.0  0.7320006135270987  0.5873509152938182  0.2785173659393294  1.0000
  C   C15       1.0  0.587350059000599  0.7320042530442875  0.77851744007382  1.0000
  C   C16       1.0  0.26799245620113515  0.41265091869772147  0.7214831603051051  1.0000
  C   C17       1.0  0.16794701449446592  0.2592146284593965  0.18078866348206896  1.0000
  C   C18       1.0  0.7407836084086484  0.832054464961537  0.31921136168254793  1.0000
  C   C19       1.0  0.8320541442388106  0.7407846789975209  0.8192130908643023  1.0000
  C   C20       1.0  0.25921060502180643  0.16794738163165587  0.6807875663054401  1.0000
  C   C21       1.0  0.318406945082721  0.2780104663527182  0.16711653816967237  1.0000
  C   C22       1.0  0.7219884314367276  0.681595650716794  0.3328833938086575  1.0000
  C   C23       1.0  0.6815953576111371  0.721988853964376  0.8328831063742114  1.0000
  C   C24       1.0  0.2780080673313492  0.3184062190115426  0.6671164300347314  1.0000
  C   C25       1.0  0.3569974426924816  0.23857770559982322  0.2895179428871657  1.0000
  C   C26       1.0  0.7614193821965857  0.6430050638969148  0.2104815850073081  1.0000
  C   C27       1.0  0.6430072354040065  0.761419030086273  0.7104812016661768  1.0000
  C   C28       1.0  0.23857658949453533  0.3569954953890002  0.7895188515873668  1.0000
  C   C29       1.0  0.7408786911884704  0.3111208240677358  0.586249885691309  1.0000
  C   C30       1.0  0.6888837152313559  0.25912109106692327  0.9137498582785637  1.0000
  C   C31       1.0  0.25912009343393566  0.6888810693127848  0.4137498109154051  1.0000
  C   C32       1.0  0.31112025694991985  0.740879551001633  0.08625013298776452  1.0000
  C   C33       1.0  0.11280036641606732  0.22951010238910638  0.24913652921596707  1.0000
  C   C34       1.0  0.7704868710692809  0.8872015694745768  0.25086251645825536  1.0000
  C   C35       1.0  0.8872025523863418  0.7704879195701789  0.7508631529148317  1.0000
  C   C36       1.0  0.22950681528422484  0.11279896667620189  0.749137024281019  1.0000
  C   C37       1.0  0.8063088932566274  0.3141211959582648  0.6536631642072592  1.0000
  C   C38       1.0  0.6858840938976699  0.19369069814532477  0.8463365511688821  1.0000
  C   C39       1.0  0.1936892749988672  0.685881995521534  0.34633700635857406  1.0000
  C   C40       1.0  0.31411811924787986  0.8063112304549448  0.1536634661288687  1.0000
  C   C41       1.0  0.7251379263631181  0.24107188477523067  0.7149046931725634  1.0000
  C   C42       1.0  0.758929192094044  0.27486269894053084  0.7850946855383326  1.0000
  C   C43       1.0  0.27486085800093474  0.7589300083467662  0.2850955149801918  1.0000
  C   C44       1.0  0.24106959252836907  0.7251391944399826  0.21490501106838167  1.0000
  O   O1        1.0  0.5946094388390862  0.25047965047081516  0.33381756574436133  1.0000
  O   O2        1.0  0.7495171505832092  0.40539085922767976  0.16618313076082095  1.0000
  O   O3        1.0  0.4053934797049692  0.7495183712299535  0.6661826279324785  1.0000
  O   O4        1.0  0.25048348236487794  0.5946071390794215  0.833816678606645  1.0000
  O   O5        1.0  0.5413564086110156  0.2714554434023028  0.08512304269299878  1.0000
  O   O6        1.0  0.7285406063154838  0.458646954141848  0.4148770121806534  1.0000
  O   O7        1.0  0.45864598337279006  0.7285412683730855  0.9148767406430522  1.0000
  O   O8        1.0  0.27145703512140784  0.5413549271540602  0.5851232595904392  1.0000
  O   O9        1.0  0.8071247119288429  0.1699887870467833  0.5555964524811685  1.0000
  O   O10       1.0  0.8300124610680233  0.19287705401193725  0.9444033709687715  1.0000
  O   O11       1.0  0.19287583121258225  0.8300118192849837  0.44440424118620553  1.0000
  O   O12       1.0  0.16999151162995227  0.8071235885736666  0.05559559720548182  1.0000
  O   O13       1.0  0.6147426668936975  0.445944799199516  0.5600204221171621  1.0000
  O   O14       1.0  0.5540584925852061  0.38525599852474096  0.9399789312227184  1.0000
  O   O15       1.0  0.38525673409562006  0.5540557960817195  0.43997880053043287  1.0000
  O   O16       1.0  0.44594442544214274  0.6147420226589801  0.06002228554619648  1.0000
  O   O17       1.0  0.26600517569706733  0.40924409393338823  0.05234349111690761  1.0000
  O   O18       1.0  0.5907541632430693  0.7339975189532593  0.447655952596854  1.0000
  O   O19       1.0  0.7339947515941535  0.5907578110146972  0.9476566534175103  1.0000
  O   O20       1.0  0.40924514819794683  0.2660056846111516  0.5523436428046082  1.0000
  O   O21       1.0  0.8972105203776053  0.09618387598229108  0.402088745365738  1.0000
  O   O22       1.0  0.903817084400984  0.10279068053809227  0.09791117713989189  1.0000
  O   O23       1.0  0.10279221829478076  0.9038193615092636  0.5979137284569447  1.0000
  O   O24       1.0  0.09617959346370963  0.8972059726238867  0.902087901195763  1.0000
  O   O25       1.0  0.9690089368585575  0.2064199045466779  0.2643616809698841  1.0000
  O   O26       1.0  0.7935790100845921  0.030990976616877195  0.23563791227215344  1.0000
  O   O27       1.0  0.030992838241630342  0.7935781048109544  0.735639599417368  1.0000
  O   O28       1.0  0.2064193375258654  0.9690069985550877  0.7643610012399122  1.0000
  O   O29       1.0  0.6963083311922064  0.9595833371388094  0.48680434744093753  1.0000
  O   O30       1.0  0.04041697006714176  0.30369247853208486  0.013195082866595004  1.0000
  O   O31       1.0  0.3036892209547375  0.04042115269879079  0.513195785537981  1.0000
  O   O32       1.0  0.9595841891828415  0.6963068294418734  0.9868056483876939  1.0000
  O   O33       1.0  0.40039441159661493  0.21797035644441107  0.40947160620313366  1.0000
  O   O34       1.0  0.7820310713226847  0.599604336447122  0.09052942651025829  1.0000
  O   O35       1.0  0.599604899844401  0.7820328471199999  0.5905279891983355  1.0000
  O   O36       1.0  0.21797246281322918  0.4003923863787974  0.9094718278455716  1.0000
