data_image0
_chemical_formula_structural       Cd3H44C36N28O6
_chemical_formula_sum              "Cd3 H44 C36 N28 O6"
_cell_length_a       11.771821278974933
_cell_length_b       12.14085388387232
_cell_length_c       13.948999526414989
_cell_angle_alpha    93.21729724708528
_cell_angle_beta     113.73993480996593
_cell_angle_gamma    108.53679552663776

_space_group_name_H-M_alt    "P 1"
_space_group_IT_number       1

loop_
  _space_group_symop_operation_xyz
  'x, y, z'

loop_
  _atom_site_type_symbol
  _atom_site_label
  _atom_site_symmetry_multiplicity
  _atom_site_fract_x
  _atom_site_fract_y
  _atom_site_fract_z
  _atom_site_occupancy
  Cd  Cd1       1.0  0.9999994684384671  0.4999990757620408  0.5000001732990567  1.0000
  Cd  Cd2       1.0  0.8907178780424942  0.7715447683043806  0.5531195206114032  1.0000
  Cd  Cd3       1.0  0.10928211549699542  0.22845606914916766  0.4468802849441501  1.0000
  H   H1        1.0  0.5070194150333762  0.6606076659379098  0.12375919093429383  1.0000
  H   H2        1.0  0.4929794452946937  0.33939049267372207  0.8762386795316456  1.0000
  H   H3        1.0  0.6479179483152748  0.3869509606263079  0.0714954280183875  1.0000
  H   H4        1.0  0.3520838730031314  0.6130498517327891  0.9285021229737677  1.0000
  H   H5        1.0  0.12895021233111242  0.4623779777400755  0.9069513537830642  1.0000
  H   H6        1.0  0.8710494150399556  0.5376219767649528  0.093049005949524  1.0000
  H   H7        1.0  0.8207660723761379  0.5780552017533084  0.9097765198461046  1.0000
  H   H8        1.0  0.1792350374291091  0.42194386270656997  0.09022429807254888  1.0000
  H   H9        1.0  0.624265441359732  0.8991055752722443  0.4444151992221561  1.0000
  H   H10       1.0  0.37573288512976427  0.10089349083367687  0.5555846833967306  1.0000
  H   H11       1.0  0.5667917984102928  0.21912100109282306  0.5253159254610011  1.0000
  H   H12       1.0  0.4332061549695538  0.78087717606531  0.4746837918107757  1.0000
  H   H13       1.0  0.8740966012685122  0.025769215990166593  0.6204324080050723  1.0000
  H   H14       1.0  0.12590377232186253  0.9742325164104455  0.37956828242173646  1.0000
  H   H15       1.0  0.8979148926186156  0.20263570143676188  0.6785506391057791  1.0000
  H   H16       1.0  0.10208789117785237  0.7973651403700186  0.32145082127368596  1.0000
  H   H17       1.0  0.06735616275654617  0.300975913645999  0.7518729059067224  1.0000
  H   H18       1.0  0.9326453340408066  0.6990240517602189  0.2481295164073317  1.0000
  H   H19       1.0  0.9687847316321624  0.2477601220736075  0.8206834011147561  1.0000
  H   H20       1.0  0.031216371231849397  0.7522389363870018  0.17931669727975924  1.0000
  H   H21       1.0  0.16774238579042589  0.05133004319058188  0.8556678705499079  1.0000
  H   H22       1.0  0.8322579708542861  0.9486672373744439  0.14433189715038705  1.0000
  H   H23       1.0  0.1353847822380487  0.15033694011463433  0.9328341960050108  1.0000
  H   H24       1.0  0.8646163206259702  0.849662118345975  0.06716590238950458  1.0000
  H   H25       1.0  0.23454529906174318  0.20904267456323564  0.8651763461699103  1.0000
  H   H26       1.0  0.76545710468384  0.790957272296481  0.13482422933830654  1.0000
  H   H27       1.0  0.7726007216788348  0.7956289967081672  0.7231249013765079  1.0000
  H   H28       1.0  0.2273994534132626  0.2043700623011162  0.27687488525141646  1.0000
  H   H29       1.0  0.6860349353299141  0.7516129045462279  0.8307195460495647  1.0000
  H   H30       1.0  0.3139650582095754  0.24838793290732739  0.16928025950598877  1.0000
  H   H31       1.0  0.5840445520566746  0.5973090943616981  0.7985292678190984  1.0000
  H   H32       1.0  0.41595506837315804  0.4026908541440619  0.20147037238934462  1.0000
  H   H33       1.0  0.5074872343264687  0.7044442909713594  0.7767973500550056  1.0000
  H   H34       1.0  0.4925114513902217  0.2955556520838129  0.2232012588627085  1.0000
  H   H35       1.0  0.46817622874118575  0.5898836931060956  0.5058989721970731  1.0000
  H   H36       1.0  0.5318228231439263  0.41011713289758933  0.4940990825435988  1.0000
  H   H37       1.0  0.3728827302657933  0.6167110462326093  0.5708479388921288  1.0000
  H   H38       1.0  0.627116321619326  0.3832897797710756  0.4291501158485501  1.0000
  H   H39       1.0  0.43835222893174836  0.5011447892365338  0.5976770656696359  1.0000
  H   H40       1.0  0.5616464567849418  0.49885515381863127  0.40232154324807806  1.0000
  H   H41       1.0  0.8245223066649884  0.9651266780706604  0.4277789729285927  1.0000
  H   H42       1.0  0.17547545822101537  0.03487327153246159  0.5722200437466752  1.0000
  H   H43       1.0  0.7727257832831215  0.8318517647178536  0.358659607156845  1.0000
  H   H44       1.0  0.22727234083007633  0.16814906183451936  0.6413381358172358  1.0000
  C   C1        1.0  0.6785953097538027  0.5535985031506455  0.22382545903146678  1.0000
  C   C2        1.0  0.3214020959050074  0.4464005695032325  0.7761748313449742  1.0000
  C   C3        1.0  0.5877435055495255  0.5270104878543194  0.1099605296900563  1.0000
  C   C4        1.0  0.4122551801671648  0.472989455200853  0.8900380792276577  1.0000
  C   C5        1.0  0.5042071568014278  0.5908685320155981  0.06905818858913892  1.0000
  C   C6        1.0  0.4957933914003263  0.40913141594148056  0.9309417633858955  1.0000
  C   C7        1.0  0.5823617858998561  0.4357190730204507  0.03958062076448944  1.0000
  C   C8        1.0  0.41763968313258465  0.5642808683886784  0.960418923452991  1.0000
  C   C9        1.0  0.9458175547205983  0.5455274971835278  0.7895779485653305  1.0000
  C   C10       1.0  0.054184301303955344  0.4544733451719336  0.21042320004755055  1.0000
  C   C11       1.0  0.971326687447757  0.5219989278460986  0.8963379704714922  1.0000
  C   C12       1.0  0.028673306091739924  0.4780019096074496  0.10366183508406117  1.0000
  C   C13       1.0  0.07178877368689031  0.4772496226887738  0.9479072387918703  1.0000
  C   C14       1.0  0.928211788397327  0.5227503372668493  0.05209415223144727  1.0000
  C   C15       1.0  0.8999221422513912  0.5447595230604847  0.9498306818983263  1.0000
  C   C16       1.0  0.10007933372228453  0.4552404243479132  0.050169581843299185  1.0000
  C   C17       1.0  0.7214661933121036  0.14049495232399778  0.46560099624962686  1.0000
  C   C18       1.0  0.2785315785151284  0.8595050032784002  0.534398739949779  1.0000
  C   C19       1.0  0.6079855149267247  0.06774645463477208  0.4816604185375865  1.0000
  C   C20       1.0  0.39201541332590745  0.9322543882693706  0.5183404183087033  1.0000
  C   C21       1.0  0.5698253335362082  0.9437609237027969  0.46818650369133485  1.0000
  C   C22       1.0  0.43017427995240337  0.056239018803687195  0.5318124169929631  1.0000
  C   C23       1.0  0.5369556043520873  0.12301211082114344  0.5139047406761748  1.0000
  C   C24       1.0  0.4630440160777524  0.8769878376846163  0.4860948995322686  1.0000
  C   C25       1.0  0.9603166962752921  0.021763074462889193  0.6898808989078727  1.0000
  C   C26       1.0  0.03968422503611181  0.9782377624419778  0.31011921841427165  1.0000
  C   C27       1.0  0.9887862281013896  0.2237447364780394  0.7535352023139692  1.0000
  C   C28       1.0  0.011217483467000142  0.7762561047800604  0.24646656983208706  1.0000
  C   C29       1.0  0.14897142810592362  0.1337235452758847  0.8605027002543079  1.0000
  C   C30       1.0  0.851030040926517  0.8662763961332374  0.13949684396317258  1.0000
  C   C31       1.0  0.6840390155079064  0.7386375218095226  0.6496909574224503  1.0000
  C   C32       1.0  0.3159624465833062  0.261362413600331  0.35030786727088525  1.0000
  C   C33       1.0  0.5901936139213718  0.6828577415363739  0.7741849094404072  1.0000
  C   C34       1.0  0.40980545184620354  0.3171430964658555  0.22581458434855503  1.0000
  C   C35       1.0  0.4572601401501686  0.590545648325218  0.5801150538199804  1.0000
  C   C36       1.0  0.5427398325656299  0.4094551711305171  0.4198825931631446  1.0000
  N   N1        1.0  0.7435520075678425  0.48284709579696977  0.2706025374705162  1.0000
  N   N2        1.0  0.2564485475751397  0.5171528581593775  0.7293981340286634  1.0000
  N   N3        1.0  0.8151467630462433  0.5378037310984779  0.372990789389199  1.0000
  N   N4        1.0  0.18485286432482442  0.4621962234065575  0.6270095703433893  1.0000
  N   N5        1.0  0.7947016428443945  0.6373844197284625  0.38848325707424874  1.0000
  N   N6        1.0  0.20529760447578838  0.3626146398295019  0.6115162177870912  1.0000
  N   N7        1.0  0.7092219040201897  0.650605842405696  0.2960637570409616  1.0000
  N   N8        1.0  0.2907764016456155  0.3493932057024124  0.703933967005497  1.0000
  N   N9        1.0  0.904342034212533  0.6325274398111702  0.7505169605110708  1.0000
  N   N10       1.0  0.0956583254953784  0.3674742805909047  0.2494822908674549  1.0000
  N   N11       1.0  0.9046358169183081  0.6258963227474864  0.6549146904368397  1.0000
  N   N12       1.0  0.09536361889571773  0.3741009643654892  0.34508548502100916  1.0000
  N   N13       1.0  0.94306134589376  0.5379767226679987  0.636704112491614  1.0000
  N   N14       1.0  0.05693846302991549  0.4620214533927721  0.3632962283133452  1.0000
  N   N15       1.0  0.9694578905955212  0.4856950090236153  0.7195843320396662  1.0000
  N   N16       1.0  0.030543438531687197  0.5143067468254044  0.2804195482503075  1.0000
  N   N17       1.0  0.7587252189345577  0.25928515228090987  0.47440876240091245  1.0000
  N   N18       1.0  0.24127459693034578  0.7407130297791368  0.5255922979281917  1.0000
  N   N19       1.0  0.8690676393007096  0.292752702256088  0.46070446349477806  1.0000
  N   N20       1.0  0.1309319950115864  0.7072472582482162  0.5392966157619552  1.0000
  N   N21       1.0  0.898947083522728  0.199220770878405  0.44376860727020057  1.0000
  N   N22       1.0  0.10105086985711866  0.8007774062797283  0.5562311100015831  1.0000
  N   N23       1.0  0.8076566797906538  0.1016644232656319  0.4461760506025667  1.0000
  N   N24       1.0  0.19234147208745617  0.89833642728383  0.5538245704680944  1.0000
  N   N25       1.0  0.029056792089335204  0.12177772917785748  0.7653455147719511  1.0000
  N   N26       1.0  0.9709441292220687  0.8782231077270094  0.2346546025501935  1.0000
  N   N27       1.0  0.5807668674558998  0.6750459577602967  0.6667364924687857  1.0000
  N   N28       1.0  0.41923237292305526  0.32495309579839926  0.33326226286840205  1.0000
  O   O1        1.0  0.9890588395725999  0.9303850072959605  0.696147140765987  1.0000
  O   O2        1.0  0.010941335519504507  0.0696140517133301  0.3038526458619372  1.0000
  O   O3        1.0  0.6837894996558019  0.7356353470302536  0.5593694275181773  1.0000
  O   O4        1.0  0.31621180170648694  0.26436638482167746  0.4406315746752154  1.0000
  O   O5        1.0  0.8430550450911627  0.8900230513015543  0.4239746444732616  1.0000
  O   O6        1.0  0.15694456839744222  0.10997689120493699  0.5760242762110365  1.0000
