data_image0
_chemical_formula_structural       Cd2H28C32Cl8O16
_chemical_formula_sum              "Cd2 H28 C32 Cl8 O16"
_cell_length_a       7.395391777108039
_cell_length_b       8.227402161722326
_cell_length_c       16.883411241846446
_cell_angle_alpha    88.96264571416795
_cell_angle_beta     89.99983397364791
_cell_angle_gamma    90.00064098743778

_space_group_name_H-M_alt    "P 1"
_space_group_IT_number       1

loop_
  _space_group_symop_operation_xyz
  'x, y, z'

loop_
  _atom_site_type_symbol
  _atom_site_label
  _atom_site_symmetry_multiplicity
  _atom_site_fract_x
  _atom_site_fract_y
  _atom_site_fract_z
  _atom_site_occupancy
  Cd  Cd1       1.0  0.49997772620355363  0.5000036761597854  0.5000049154148556  1.0000
  Cd  Cd2       1.0  0.9999775453446986  0.9999948590812193  0.5000082441254465  1.0000
  H   H1        1.0  0.3114468288659894  0.2622974607696164  0.4318688215219312  1.0000
  H   H2        1.0  0.8114277972640521  0.2376723065847911  0.5681435582086538  1.0000
  H   H3        1.0  0.6885248496258287  0.7376765945805275  0.5681451766023785  1.0000
  H   H4        1.0  0.1885141332236842  0.7623323823083225  0.43185732912827757  1.0000
  H   H5        1.0  0.2868150088621988  0.38653362943964703  0.35938823140355686  1.0000
  H   H6        1.0  0.7868127334538572  0.11344338481385555  0.6406225290285834  1.0000
  H   H7        1.0  0.713147204241004  0.6134344868163168  0.6406244773440977  1.0000
  H   H8        1.0  0.21316300180618697  0.8865556659763951  0.3593853782492077  1.0000
  H   H9        1.0  0.5536777374101973  0.08977554808776488  0.3967391549684295  1.0000
  H   H10       1.0  0.053633939081393606  0.4102173313135323  0.6032514460386339  1.0000
  H   H11       1.0  0.4463493813420173  0.9102311630966395  0.6032433797058303  1.0000
  H   H12       1.0  0.9463269220215694  0.5897759108015277  0.39675398782646454  1.0000
  H   H13       1.0  0.7489828746807063  0.02205069173156459  0.3469998735010833  1.0000
  H   H14       1.0  0.2489720681226544  0.47793767354017536  0.6530040189465681  1.0000
  H   H15       1.0  0.25103342629295616  0.977931951666782  0.6530024106138158  1.0000
  H   H16       1.0  0.7510455852975682  0.5220847676363575  0.3470013285108422  1.0000
  H   H17       1.0  0.3908152981427476  0.6965877315585302  0.07329536036878893  1.0000
  H   H18       1.0  0.8908080651949677  0.8034287908913879  0.9266998760711972  1.0000
  H   H19       1.0  0.6091969464031735  0.3034109134958953  0.9266941521390778  1.0000
  H   H20       1.0  0.10920958827261981  0.19660901431231534  0.0733205668390369  1.0000
  H   H21       1.0  0.9336352777717566  0.6741204721528219  0.1660399350784942  1.0000
  H   H22       1.0  0.4335968024042032  0.8259033060362738  0.8339482497112416  1.0000
  H   H23       1.0  0.0664053629480179  0.3258870869845508  0.8339349033315531  1.0000
  H   H24       1.0  0.5664370774242116  0.17413045163956295  0.16605373523569975  1.0000
  H   H25       1.0  0.840277775901285  0.8325707521158064  0.2811573384758859  1.0000
  H   H26       1.0  0.34026913032300854  0.6674420687986498  0.7188230754868599  1.0000
  H   H27       1.0  0.15976692142033505  0.16744140174694877  0.7188199522848964  1.0000
  H   H28       1.0  0.6597661014994787  0.33256235964531544  0.28118017987129923  1.0000
  C   C1        1.0  0.6260547340018335  0.8444378452449895  0.4270213433265938  1.0000
  C   C2        1.0  0.12603752127944287  0.6555296867155604  0.5729657015097304  1.0000
  C   C3        1.0  0.3739291143380541  0.15554601189918318  0.5729809618769366  1.0000
  C   C4        1.0  0.8739328052026138  0.3444621712024654  0.4270302178973608  1.0000
  C   C5        1.0  0.613350673979653  0.9848543788110927  0.3671063385884921  1.0000
  C   C6        1.0  0.11334603688369782  0.5151158671348882  0.6328991587827489  1.0000
  C   C7        1.0  0.3866588659754769  0.015116843011988063  0.6328892226278172  1.0000
  C   C8        1.0  0.8866662074556402  0.4848654065771212  0.3671155577479937  1.0000
  C   C9        1.0  0.5609013912358665  0.8563931902513459  0.243342966280828  1.0000
  C   C10       1.0  0.0608935071663126  0.6435500510575308  0.7566603561683608  1.0000
  C   C11       1.0  0.43910409214267077  0.14357205260470343  0.7566406281325797  1.0000
  C   C12       1.0  0.9391160327558055  0.35643247643889  0.24336505885558782  1.0000
  C   C13       1.0  0.4368727467935187  0.8154775837296736  0.18388539204308785  1.0000
  C   C14       1.0  0.9368579746585582  0.6845129280495071  0.8161069560463903  1.0000
  C   C15       1.0  0.5631381457516511  0.18454415071972352  0.8160932513268835  1.0000
  C   C16       1.0  0.06313533908485879  0.3154853401566342  0.18390805545676164  1.0000
  C   C17       1.0  0.48901836581733704  0.7247141629360456  0.11893594488242343  1.0000
  C   C18       1.0  0.9889853984338188  0.7753365424414155  0.8810443258087659  1.0000
  C   C19       1.0  0.5110195706760621  0.27532072886103254  0.8810447062848114  1.0000
  C   C20       1.0  0.0110214377940565  0.2247333312839643  0.11894998186939185  1.0000
  C   C21       1.0  0.6684811609880014  0.6743113323957954  0.11316099378196753  1.0000
  C   C22       1.0  0.1684382438166097  0.8257371733357528  0.8868232451702698  1.0000
  C   C23       1.0  0.33152432262718884  0.3256993610687289  0.8868405908785989  1.0000
  C   C24       1.0  0.8315320831030206  0.17431533962454884  0.11316305024514152  1.0000
  C   C25       1.0  0.793672679124974  0.7127135249325177  0.1714989668199038  1.0000
  C   C26       1.0  0.2936256173456827  0.7872654941195233  0.8284862639324615  1.0000
  C   C27       1.0  0.2063639045440269  0.2872345677183643  0.8284967860955492  1.0000
  C   C28       1.0  0.7063839229030295  0.21275363143357137  0.17151606022566315  1.0000
  C   C29       1.0  0.7397746152273896  0.803172879586398  0.23650363925514034  1.0000
  C   C30       1.0  0.23976874073553492  0.6967913002647349  0.7634903064426056  1.0000
  C   C31       1.0  0.26024979873596976  0.19678217028874903  0.763495200177978  1.0000
  C   C32       1.0  0.7602746040513895  0.3031869188976869  0.23651901868595365  1.0000
  Cl  Cl1       1.0  0.21665630730256424  0.8836354747982679  0.19107653866202412  1.0000
  Cl  Cl2       1.0  0.7166569084413864  0.6163558197863775  0.8089232482809978  1.0000
  Cl  Cl3       1.0  0.7833451194552978  0.11633177917888551  0.8089219194518196  1.0000
  Cl  Cl4       1.0  0.283339109968523  0.3836859531230131  0.1910942977500341  1.0000
  Cl  Cl5       1.0  0.7377657801231906  0.5666208122910701  0.031341528023240514  1.0000
  Cl  Cl6       1.0  0.2377331659008348  0.9334157112923976  0.9686358815566577  1.0000
  Cl  Cl7       1.0  0.262251873378716  0.43340066130119925  0.968639483421299  1.0000
  Cl  Cl8       1.0  0.7622804310584429  0.0666127847846383  0.0313476243808637  1.0000
  O   O1        1.0  0.3756739768158255  0.34371424606453616  0.3973564411599071  1.0000
  O   O2        1.0  0.8756563186338794  0.15626412769546494  0.6026494736038899  1.0000
  O   O3        1.0  0.624280123151685  0.6562504494473839  0.6026431588852292  1.0000
  O   O4        1.0  0.1242842596163882  0.8437384341809846  0.3973596809408094  1.0000
  O   O5        1.0  0.5365130396152011  0.7170458603669939  0.4141366052026641  1.0000
  O   O6        1.0  0.0365244692558235  0.7829488921821265  0.5858717973823675  1.0000
  O   O7        1.0  0.46345052589209973  0.28294580185242063  0.5858610902676419  1.0000
  O   O8        1.0  0.963460731073461  0.21701765884824903  0.4141551198235122  1.0000
  O   O9        1.0  0.7232598000411059  0.8686706206210458  0.488420229874997  1.0000
  O   O10       1.0  0.22324947101241582  0.6313008572359422  0.5115833559756169  1.0000
  O   O11       1.0  0.27671187845665207  0.1312965027713702  0.5115794122965553  1.0000
  O   O12       1.0  0.7766938117771574  0.3687177063284749  0.4884130269578862  1.0000
  O   O13       1.0  0.4958883488489008  0.9515734006461894  0.3028320099068011  1.0000
  O   O14       1.0  0.9958929135596153  0.5484180988807735  0.6971673907377325  1.0000
  O   O15       1.0  0.5041211912937341  0.048420780133731994  0.697153866210144  1.0000
  O   O16       1.0  0.0041477270941641  0.451601954504845  0.302848591991186  1.0000
