data_image0
_chemical_formula_structural       Y2H54C44N4O20
_chemical_formula_sum              "Y2 H54 C44 N4 O20"
_cell_length_a       9.17056815265239
_cell_length_b       11.831130343894825
_cell_length_c       12.7275
_cell_angle_alpha    85.638005080071
_cell_angle_beta     71.04487373465952
_cell_angle_gamma    68.85122108242246

_space_group_name_H-M_alt    "P 1"
_space_group_IT_number       1

loop_
  _space_group_symop_operation_xyz
  'x, y, z'

loop_
  _atom_site_type_symbol
  _atom_site_label
  _atom_site_symmetry_multiplicity
  _atom_site_fract_x
  _atom_site_fract_y
  _atom_site_fract_z
  _atom_site_occupancy
  Y   Y1        1.0  0.845539681390825  0.8961829385193951  0.5234659719983554  1.0000
  Y   Y2        1.0  0.15446223536428502  0.10381538423813912  0.4765344051009635  1.0000
  H   H1        1.0  0.8932945250711055  0.263863345559372  0.3221190351862831  1.0000
  H   H2        1.0  0.10671348926022259  0.7361295336676861  0.6778795139473528  1.0000
  H   H3        1.0  0.6320248215337471  0.20004339424633602  0.25997111106454446  1.0000
  H   H4        1.0  0.36797550247536753  0.7999558357662764  0.7400272175699951  1.0000
  H   H5        1.0  0.8070786470556115  0.3857766541235748  0.17278499315047208  1.0000
  H   H6        1.0  0.19292469607385954  0.6142234831441229  0.8272180646211779  1.0000
  H   H7        1.0  0.5952784757164125  0.4131802938001599  0.189624314732761  1.0000
  H   H8        1.0  0.4047260203796483  0.5868198434675307  0.8103816159897405  1.0000
  H   H9        1.0  0.7520327341034658  0.30413276951848905  0.08870648356173662  1.0000
  H   H10       1.0  0.2479704426543634  0.6958700895144433  0.9112932779161937  1.0000
  H   H11       1.0  0.2810449270588222  0.5776601961848016  0.24958885120248198  1.0000
  H   H12       1.0  0.718955289914156  0.4223344975524128  0.7504098232032843  1.0000
  H   H13       1.0  0.27464324743228014  0.8223323750473029  0.1451552932968028  1.0000
  H   H14       1.0  0.7253581225072948  0.17766231868991164  0.8548462540598151  1.0000
  H   H15       1.0  0.5727156849928576  0.6775063394500833  0.06870410049660344  1.0000
  H   H16       1.0  0.42728375945743835  0.3224947050726854  0.9312950914098362  1.0000
  H   H17       1.0  0.4620851259056096  0.6853459305921278  0.977629477233492  1.0000
  H   H18       1.0  0.5379170642572717  0.3146542066755629  0.022369921887047936  1.0000
  H   H19       1.0  0.49966119236871265  0.5569502844848344  0.06382574413952104  1.0000
  H   H20       1.0  0.5003441832861597  0.4430480382726998  0.9361706806082778  1.0000
  H   H21       1.0  0.7473181893148465  0.6226818222503923  0.8946108801741558  1.0000
  H   H22       1.0  0.2526673125002503  0.37731468599698564  0.10538796720421569  1.0000
  H   H23       1.0  0.04853859660428129  0.5458690709437022  0.683296127608642  1.0000
  H   H24       1.0  0.9514500313673082  0.4541328808341519  0.31670238893408253  1.0000
  H   H25       1.0  0.9615431783615308  0.4284729854203775  0.9125047070928075  1.0000
  H   H26       1.0  0.03844863510204988  0.5715271518473131  0.0874963349789724  1.0000
  H   H27       1.0  0.1658441152766129  0.4188206986294746  0.8304183690163498  1.0000
  H   H28       1.0  0.8341551628020412  0.5811830676585359  0.16957988369713206  1.0000
  H   H29       1.0  0.06267443077604896  0.3449810222183345  0.7821615871913821  1.0000
  H   H30       1.0  0.9373243004870628  0.6550191150493561  0.21783626437888867  1.0000
  H   H31       1.0  0.4987711358396893  0.8189682732124837  0.360972472439741  1.0000
  H   H32       1.0  0.5012368191561336  0.181031864055214  0.6390169347271595  1.0000
  H   H33       1.0  0.36833161811205883  0.6623787682543423  0.4016416456127203  1.0000
  H   H34       1.0  0.6316804019345811  0.3376177399930356  0.5983486381110764  1.0000
  H   H35       1.0  0.7430617912753661  0.4585639146424755  0.5523080206176232  1.0000
  H   H36       1.0  0.25692397231261294  0.5414534604717289  0.4477089326895366  1.0000
  H   H37       1.0  0.8513859645415636  0.6263308021801777  0.5087828596100792  1.0000
  H   H38       1.0  0.14860342431782672  0.373683851168785  0.49122558063673677  1.0000
  H   H39       1.0  0.4709384053163107  0.9326201170226653  0.6041459337219166  1.0000
  H   H40       1.0  0.5290605993545726  0.0673818347551887  0.395853296970344  1.0000
  H   H41       1.0  0.5659984319638127  0.8893467714952905  0.696208757361056  1.0000
  H   H42       1.0  0.43399969314825176  0.1106569947927198  0.30378976520259465  1.0000
  H   H43       1.0  0.8329846329382562  0.062601507741249  0.6900239155906503  1.0000
  H   H44       1.0  0.16702162227543474  0.9373950005061218  0.3099755743865272  1.0000
  H   H45       1.0  0.6532447498609031  0.0482550831689608  0.7440524594039033  1.0000
  H   H46       1.0  0.34676018601456343  0.9517441468436516  0.2559455755302267  1.0000
  H   H47       1.0  0.6960733847486013  0.8962573334359121  0.2629286458961957  1.0000
  H   H48       1.0  0.30391968871769853  0.10374734010717651  0.7370702091536783  1.0000
  H   H49       1.0  0.9358985520009496  0.9583063228337425  0.19340685623154744  1.0000
  H   H50       1.0  0.0641001792621623  0.0416938144339483  0.8065957095402538  1.0000
  H   H51       1.0  0.8826699747890602  0.9711757361365869  0.8651184721098911  1.0000
  H   H52       1.0  0.1173451237134486  0.028814421325229503  0.1348809685162209  1.0000
  H   H53       1.0  0.6417765357473614  0.9077223158756809  0.9495713950629178  1.0000
  H   H54       1.0  0.3582313122123324  0.0922732851166188  0.0504230720767396  1.0000
  C   C1        1.0  0.8044994294654941  0.123035583097554  0.40495235809540736  1.0000
  C   C2        1.0  0.1955042464072533  0.8769591106396605  0.5950455067598597  1.0000
  C   C3        1.0  0.8071337961538205  0.2188698444012473  0.3245623632434516  1.0000
  C   C4        1.0  0.19287333861869632  0.7811248493359741  0.6754378348623362  1.0000
  C   C5        1.0  0.7156004224411703  0.2478439426204702  0.2560659720079101  1.0000
  C   C6        1.0  0.2844007811267559  0.752153472881986  0.7439362075562599  1.0000
  C   C7        1.0  0.7191153368411989  0.3429415127995981  0.1728474474244663  1.0000
  C   C8        1.0  0.2808891592548619  0.6570586244680925  0.8271537690965118  1.0000
  C   C9        1.0  0.10598312003688194  0.7500522701178411  0.3354444179742869  1.0000
  C   C10       1.0  0.8940194028692762  0.2499424236193732  0.6645560738319104  1.0000
  C   C11       1.0  0.2407721586548775  0.6757054381172551  0.24025636973447456  1.0000
  C   C12       1.0  0.759226905351511  0.3242892556199592  0.7597433602217122  1.0000
  C   C13       1.0  0.31899987702360727  0.7238398563606481  0.1506376281486723  1.0000
  C   C14       1.0  0.681000339949378  0.2761548373765663  0.8493626176576042  1.0000
  C   C15       1.0  0.47010880619112067  0.655283126277496  0.06015790703096264  1.0000
  C   C16       1.0  0.5298926707845837  0.3447161037351237  0.9398409374536597  1.0000
  C   C17       1.0  0.7591612567284115  0.732342650965812  0.7475610405126291  1.0000
  C   C18       1.0  0.24082825080198939  0.26765748630187863  0.25243896985896436  1.0000
  C   C19       1.0  0.8274041664171535  0.6264832210335385  0.8106529124474732  1.0000
  C   C20       1.0  0.1725843545183068  0.3735141944689175  0.1893475212669884  1.0000
  C   C21       1.0  0.974451237880622  0.5378062950521  0.7684194922565762  1.0000
  C   C22       1.0  0.025537996242014947  0.4621920277054344  0.2315775675925238  1.0000
  C   C23       1.0  0.0434267566200361  0.4276854880113632  0.827321637772229  1.0000
  C   C24       1.0  0.9565678025561298  0.5723137420012492  0.17267882581339214  1.0000
  C   C25       1.0  0.5440350961711857  0.7371066473883161  0.4035855807681088  1.0000
  C   C26       1.0  0.4559703865198231  0.2628962116446161  0.5964097125082118  1.0000
  C   C27       1.0  0.4752173686413101  0.6484714551405375  0.4274171340644627  1.0000
  C   C28       1.0  0.5247876742702857  0.35153231114748007  0.5725805550984475  1.0000
  C   C29       1.0  0.5382327149241775  0.5461394329573963  0.48530594272104804  1.0000
  C   C30       1.0  0.4617650774446105  0.4538697768610973  0.5147001298597543  1.0000
  C   C31       1.0  0.6779763342523638  0.5374089173272694  0.5135000450476708  1.0000
  C   C32       1.0  0.32201420757360916  0.46260573602169336  0.48651126814999657  1.0000
  C   C33       1.0  0.7437764991943113  0.627890373661856  0.48921887621973065  1.0000
  C   C34       1.0  0.2562117366984893  0.3721242796871067  0.5107914052777573  1.0000
  C   C35       1.0  0.7409302718267198  0.916742245876165  0.17626077081209965  1.0000
  C   C36       1.0  0.259069885810753  0.0832597059016891  0.8237381900299922  1.0000
  C   C37       1.0  0.8748812438640597  0.9530188402303637  0.13452958434321266  1.0000
  C   C38       1.0  0.12512314519586454  0.046976760761936  0.8654711922487336  1.0000
  C   C39       1.0  0.9304556056077473  0.9786424454409541  0.02187547284410845  1.0000
  C   C40       1.0  0.0695540014695766  0.0213495265310257  0.978124339054055  1.0000
  C   C41       1.0  0.8453983197062485  0.9593632750013728  0.9543917937430492  1.0000
  C   C42       1.0  0.15460766209967858  0.0406314187358419  0.04560710281239721  1.0000
  C   C43       1.0  0.7109180347739184  0.9235221630853445  0.9985378203065451  1.0000
  C   C44       1.0  0.2890841553889629  0.0764779741823531  0.0014600074134847123  1.0000
  N   N1        1.0  0.6753955687495222  0.7276267390625222  0.43623747145565506  1.0000
  N   N2        1.0  0.32460266339867166  0.2723815635008862  0.563763848137789  1.0000
  N   N3        1.0  0.6562435557003354  0.9049687967093691  0.10971616999332673  1.0000
  N   N4        1.0  0.3437554489705477  0.09503315506848511  0.8902814892984239  1.0000
  O   O1        1.0  0.7077749906976152  0.0633146102337463  0.4213379548415474  1.0000
  O   O2        1.0  0.29222462012431555  0.9366837125237879  0.5786606048573332  1.0000
  O   O3        1.0  0.9064962390174429  0.0960565387981731  0.46048278723942093  1.0000
  O   O4        1.0  0.09350957641684227  0.9039408767042829  0.5395128130223056  1.0000
  O   O5        1.0  0.037683834551557924  0.8658751753332937  0.3295674210662938  1.0000
  O   O6        1.0  0.9623194015417765  0.1341204256590061  0.6704312682750453  1.0000
  O   O7        1.0  0.060919778283285105  0.6996596939815518  0.4261717980272337  1.0000
  O   O8        1.0  0.9390792857231105  0.3003349997556626  0.5738279319289532  1.0000
  O   O9        1.0  0.8529522553717044  0.7464223425447261  0.6512311108336348  1.0000
  O   O10       1.0  0.14703983149964733  0.2535796092331282  0.34877052465987646  1.0000
  O   O11       1.0  0.6102979515995699  0.8019300228192848  0.7922535445931941  1.0000
  O   O12       1.0  0.3896918293386022  0.19807192895856224  0.2077470592001376  1.0000
  O   O13       1.0  0.7360275243958582  0.8148865326097692  0.41367418458259664  1.0000
  O   O14       1.0  0.26397158731116116  0.18511995544348284  0.5863239146381856  1.0000
  O   O15       1.0  0.5637273483002473  0.936120307119417  0.6257704271233919  1.0000
  O   O16       1.0  0.43627280933722545  0.06388164465843721  0.3742285337186999  1.0000
  O   O17       1.0  0.7656867412013568  0.0127052001334533  0.6890849738740882  1.0000
  O   O18       1.0  0.23431968038397596  0.987288586348683  0.3109170266965576  1.0000
  O   O19       1.0  0.5266360471849649  0.8732466228543103  0.15097854282873172  1.0000
  O   O20       1.0  0.47336383704473656  0.1267535144133873  0.8490158960903498  1.0000
