data_image0
_chemical_formula_structural       Cd2H56C72N8O8
_chemical_formula_sum              "Cd2 H56 C72 N8 O8"
_cell_length_a       9.63243961165555
_cell_length_b       11.511222342613786
_cell_length_c       16.675
_cell_angle_alpha    73.81705016044833
_cell_angle_beta     76.5268676266555
_cell_angle_gamma    66.11170920576949

_space_group_name_H-M_alt    "P 1"
_space_group_IT_number       1

loop_
  _space_group_symop_operation_xyz
  'x, y, z'

loop_
  _atom_site_type_symbol
  _atom_site_label
  _atom_site_symmetry_multiplicity
  _atom_site_fract_x
  _atom_site_fract_y
  _atom_site_fract_z
  _atom_site_occupancy
  Cd  Cd1       1.0  0.36953087946844926  0.4646252823888375  0.4449786599833132  1.0000
  Cd  Cd2       1.0  0.6304702494296706  0.5353741009894506  0.5550204071671132  1.0000
  H   H1        1.0  0.6599340011682742  0.46630062093984037  0.07549597124142345  1.0000
  H   H2        1.0  0.34006480831151  0.53370167607072  0.9245040468979084  1.0000
  H   H3        1.0  0.8832981383665768  0.3660473908373092  0.9747559423118092  1.0000
  H   H4        1.0  0.11670340782498563  0.6339510213302262  0.025245054635497883  1.0000
  H   H5        1.0  0.9123210927451592  0.16282056930974417  0.9348977878991536  1.0000
  H   H6        1.0  0.08767790107693675  0.837178814068551  0.0651027660073282  1.0000
  H   H7        1.0  0.7153861260847804  0.0628451054829213  0.99618400454861  1.0000
  H   H8        1.0  0.28461054831898747  0.9371571915276391  0.0038163009464681733  1.0000
  H   H9        1.0  0.4939384438715634  0.1609237947067825  0.09738612830610548  1.0000
  H   H10       1.0  0.5060588807767701  0.8390794735145235  0.9026145025148226  1.0000
  H   H11       1.0  0.29224893675356606  0.3409687867423017  0.04861524502475589  1.0000
  H   H12       1.0  0.7077507073131031  0.6590315678467462  0.951383235406972  1.0000
  H   H13       1.0  0.025785198608325306  0.3509664302460607  0.078676894998857  1.0000
  H   H14       1.0  0.9742148627517863  0.6490329531322345  0.9213241149299024  1.0000
  H   H15       1.0  0.8649458758410091  0.40162478318524814  0.21455362732756103  1.0000
  H   H16       1.0  0.13505757247543929  0.5983716865607818  0.7854468876345707  1.0000
  H   H17       1.0  0.9830391765555573  0.43371552892559606  0.32211726266719154  1.0000
  H   H18       1.0  0.01696260258712808  0.5662848256634447  0.6778821298090847  1.0000
  H   H19       1.0  0.8454545335453857  0.3088605592083766  0.7434455831334006  1.0000
  H   H20       1.0  0.1545459451081611  0.6911378529591587  0.25655375839133404  1.0000
  H   H21       1.0  0.6987049860805071  0.1620270901235585  0.7993322646577496  1.0000
  H   H22       1.0  0.3012914553721302  0.8379732644654894  0.2006678462079066  1.0000
  H   H23       1.0  0.8357373781176772  0.923557327336546  0.8460347069528212  1.0000
  H   H24       1.0  0.16425989792184476  0.07644108483099639  0.15396746440614353  1.0000
  H   H25       1.0  0.12083335377786852  0.8339864443194855  0.8365859780897651  1.0000
  H   H26       1.0  0.8791652227507922  0.1660139102695553  0.1634150448204466  1.0000
  H   H27       1.0  0.26699134759615367  0.980720849907378  0.7777095164871496  1.0000
  H   H28       1.0  0.7330055111499193  0.019278533470917097  0.2222919244752362  1.0000
  H   H29       1.0  0.1749324819917604  0.1506872333574947  0.8840741270665975  1.0000
  H   H30       1.0  0.8250658615857701  0.8493111788100478  0.11592550181389065  1.0000
  H   H31       1.0  0.33426933801535336  0.1928746860985271  0.9601964583201765  1.0000
  H   H32       1.0  0.6657281709752922  0.8071256684905137  0.039802309467305064  1.0000
  H   H33       1.0  0.4959369787370278  0.32500111073246524  0.8835885590016375  1.0000
  H   H34       1.0  0.5040598800090521  0.6749982726458298  0.11641108286029576  1.0000
  H   H35       1.0  0.49367477327122333  0.4124217331397162  0.7297193366915167  1.0000
  H   H36       1.0  0.506322735719422  0.5875786214493317  0.2702812301964173  1.0000
  H   H37       1.0  0.3292218553423538  0.7717852515666052  0.3827946226156484  1.0000
  H   H38       1.0  0.6707809427295359  0.228210246968672  0.6172043676203316  1.0000
  H   H39       1.0  0.11723902096898796  0.9876086765761798  0.3763268936027657  1.0000
  H   H40       1.0  0.8827627095648864  0.012386821959097499  0.6236734397113963  1.0000
  H   H41       1.0  0.811826900806757  0.780886467544235  0.5078556034276075  1.0000
  H   H42       1.0  0.18817251030878165  0.2191119446233003  0.49214388177500007  1.0000
  H   H43       1.0  0.03416365721675159  0.5796399447444855  0.5119109163791435  1.0000
  H   H44       1.0  0.9658365884856721  0.4203565250015444  0.4880906293167656  1.0000
  H   H45       1.0  0.6633996332760714  0.953806657486929  0.5394987511612115  1.0000
  H   H46       1.0  0.33660172857317144  0.0461946683128716  0.4604981118180405  1.0000
  H   H47       1.0  0.4511415309007774  0.1691188710507419  0.5368011487067932  1.0000
  H   H48       1.0  0.5488613157799164  0.8308814835383059  0.4631969006913082  1.0000
  H   H49       1.0  0.6994079871443191  0.3518735410904839  0.34558830649528016  1.0000
  H   H50       1.0  0.30059337470492403  0.6481277847093168  0.654408556483972  1.0000
  H   H51       1.0  0.9214253156582402  0.1453135242544903  0.33740540875810154  1.0000
  H   H52       1.0  0.0785803163430359  0.8546878015453103  0.6625944777105418  1.0000
  H   H53       1.0  0.14389677785438687  0.2883243078107682  0.6598647978382672  1.0000
  H   H54       1.0  0.8561028662122752  0.7116760467782797  0.34013308289331695  1.0000
  H   H55       1.0  0.4605524372022742  0.42028756903799547  0.1924737306921287  1.0000
  H   H56       1.0  0.5394448874460522  0.5797156991833105  0.8075263004286484  1.0000
  C   C1        1.0  0.6732180895960836  0.3771716388159447  0.05831361329968133  1.0000
  C   C2        1.0  0.3267830393020362  0.6228277445623505  0.9416884523514997  1.0000
  C   C3        1.0  0.7987899740915195  0.32013146001089143  0.0021404841242187553  1.0000
  C   C4        1.0  0.20121180505116595  0.6798688945781562  0.9978613071526611  1.0000
  C   C5        1.0  0.8150259607723527  0.20700094651839857  0.9791864820224063  1.0000
  C   C6        1.0  0.1849723828051849  0.7929974656491366  0.020816145358828843  1.0000
  C   C7        1.0  0.703566246666412  0.1515875457266347  0.013249064672081095  1.0000
  C   C8        1.0  0.29643339740025715  0.8484128088624061  0.9867530139605519  1.0000
  C   C9        1.0  0.5775470149081627  0.2074923791600298  0.06957910065884931  1.0000
  C   C10       1.0  0.4224545312833925  0.7925060330075125  0.9304224959886087  1.0000
  C   C11       1.0  0.5602534789212683  0.3218767257361961  0.0926578892780157  1.0000
  C   C12       1.0  0.4397476499768515  0.6781226576420991  0.9073435766730142  1.0000
  C   C13       1.0  0.2930075685508129  0.37842741432113053  0.16861651675803563  1.0000
  C   C14       1.0  0.706991891173537  0.6215758539001824  0.8313826273068444  1.0000
  C   C15       1.0  0.22592235873950264  0.3574550892948878  0.1095952643262592  1.0000
  C   C16       1.0  0.7740768680337241  0.6425462365049128  0.8904036851091917  1.0000
  C   C17       1.0  0.07492662550985328  0.3645410429575477  0.126525378112305  1.0000
  C   C18       1.0  0.9250693986493415  0.6354602828422529  0.8734752017570742  1.0000
  C   C19       1.0  0.9849128697195579  0.39175533950104574  0.2030421963423805  1.0000
  C   C20       1.0  0.015086774347111063  0.608245015088002  0.7969562840893545  1.0000
  C   C21       1.0  0.0497730328107906  0.410906644363159  0.2622590615095177  1.0000
  C   C22       1.0  0.9502268442070019  0.5890956526473943  0.7377408129519338  1.0000
  C   C23       1.0  0.20203015871641128  0.4049074755344506  0.2470484347657305  1.0000
  C   C24       1.0  0.7979688837144963  0.5950967638976081  0.7529499789025708  1.0000
  C   C25       1.0  0.26227062072406687  0.42840591973237707  0.3133120843358341  1.0000
  C   C26       1.0  0.7377315757120612  0.5715934636459181  0.6866868391367191  1.0000
  C   C27       1.0  0.0653939959489946  0.1538961136893775  0.75607637891099  1.0000
  C   C28       1.0  0.9346017952590769  0.8461032696889176  0.24392280692866555  1.0000
  C   C29       1.0  0.9052610329893938  0.20449813640482256  0.7625597360423414  1.0000
  C   C30       1.0  0.09473689329469442  0.7955012469734726  0.23743976214171172  1.0000
  C   C31       1.0  0.8233769989696712  0.1214596169205322  0.7942740479682655  1.0000
  C   C32       1.0  0.17662157755898278  0.8785407376685156  0.2057251758414935  1.0000
  C   C33       1.0  0.899953241663731  0.9882108272437831  0.8208970327730682  1.0000
  C   C34       1.0  0.10004385003347949  0.0117904985560173  0.1791028037182869  1.0000
  C   C35       1.0  0.05982139835104051  0.9376884438101881  0.8154756721164134  1.0000
  C   C36       1.0  0.940177828422186  0.0623128819896124  0.18452447671934635  1.0000
  C   C37       1.0  0.1422971739145424  0.0198700008202266  0.7827922639938691  1.0000
  C   C38       1.0  0.857701169662988  0.9801284113473159  0.21720736488661885  1.0000
  C   C39       1.0  0.24530064808982385  0.2077128440012288  0.8500090016068853  1.0000
  C   C40       1.0  0.7546953760693708  0.7922884817985717  0.149990978562343  1.0000
  C   C41       1.0  0.3345560478179478  0.2324379273817101  0.8925663663354159  1.0000
  C   C42       1.0  0.6654399763412472  0.7675633984180905  0.10743301413366166  1.0000
  C   C43       1.0  0.4242592009069241  0.3073755779652032  0.8500149580769971  1.0000
  C   C44       1.0  0.575737890790279  0.6926257478345973  0.14998427871420714  1.0000
  C   C45       1.0  0.42346591152482915  0.3553135695818667  0.7638280801261247  1.0000
  C   C46       1.0  0.5765326650038316  0.644686785007174  0.23617294278408  1.0000
  C   C47       1.0  0.3349721646623252  0.3318967070872958  0.7181746776596398  1.0000
  C   C48       1.0  0.6650227919588615  0.6681046187125048  0.2818248464873179  1.0000
  C   C49       1.0  0.2417041371865309  0.2571785501342561  0.7622772884791686  1.0000
  C   C50       1.0  0.7582925372172369  0.7428237468762973  0.23772181761561478  1.0000
  C   C51       1.0  0.3422630984943282  0.384332375706677  0.6260943850627073  1.0000
  C   C52       1.0  0.6577369628657761  0.6156670076716181  0.37390542546575034  1.0000
  C   C53       1.0  0.21208308207562954  0.7800861898827733  0.4101552223574174  1.0000
  C   C54       1.0  0.7879175809202362  0.21990930865250388  0.5898452546346177  1.0000
  C   C55       1.0  0.09278745969996294  0.8998345334544027  0.40649037139840527  1.0000
  C   C56       1.0  0.9072149210784843  0.10016193629162728  0.5935084881411541  1.0000
  C   C57       1.0  0.9434015486812581  0.9052538894628483  0.4409867814624492  1.0000
  C   C58       1.0  0.0566021325863204  0.094744522704687  0.5590139281291044  1.0000
  C   C59       1.0  0.9228002277391522  0.7872828615714125  0.4793618273805151  1.0000
  C   C60       1.0  0.07720048386552492  0.2127174930176352  0.5206371090734906  1.0000
  C   C61       1.0  0.04803249863250872  0.6717651120450866  0.4813091301617122  1.0000
  C   C62       1.0  0.9519679800210381  0.3282333001224487  0.5186920104634681  1.0000
  C   C63       1.0  0.8128743792626593  0.0300444046812487  0.43875275359900473  1.0000
  C   C64       1.0  0.18713018520061542  0.9699569211185519  0.5612478762476699  1.0000
  C   C65       1.0  0.6762691916932013  0.0386580728602652  0.4940698333980365  1.0000
  C   C66       1.0  0.3237357900635159  0.9613422817287827  0.5059297277447642  1.0000
  C   C67       1.0  0.5575492886688806  0.15818206674767046  0.49332958248687225  1.0000
  C   C68       1.0  0.44245462554982123  0.8418182878413772  0.5066701223338015  1.0000
  C   C69       1.0  0.6968486582478801  0.2606030392535743  0.38685195703648395  1.0000
  C   C70       1.0  0.3031569737534028  0.7393982865462263  0.6131479294321595  1.0000
  C   C71       1.0  0.8208251448683795  0.14483568856342538  0.38353347760343587  1.0000
  C   C72       1.0  0.17918197196435406  0.8551646660256225  0.6164687946843657  1.0000
  N   N1        1.0  0.1487428416558173  0.2371628677009028  0.721130304266687  1.0000
  N   N2        1.0  0.8512540170902625  0.7628365156773853  0.27886993729539716  1.0000
  N   N3        1.0  0.4395050504147732  0.37941804929041467  0.15110011217624472  1.0000
  N   N4        1.0  0.5604965443855932  0.6205852189308914  0.84889754513258  1.0000
  N   N5        1.0  0.19024755816845845  0.6680958778157161  0.44686863719025643  1.0000
  N   N6        1.0  0.8097548226099889  0.3319005919303137  0.5531314217496046  1.0000
  N   N7        1.0  0.567828231604352  0.2675646779396956  0.4410936521417669  1.0000
  N   N8        1.0  0.4321752653209073  0.732436647860105  0.5589059219824861  1.0000
  O   O1        1.0  0.3818911967478939  0.4597769983038588  0.29334416150464904  1.0000
  O   O2        1.0  0.6181103494436613  0.5402214138636765  0.706656835442658  1.0000
  O   O3        1.0  0.19377729181437786  0.41762548036072633  0.38892604477929643  1.0000
  O   O4        1.0  0.8062231868391692  0.5823729318068089  0.6110732967454382  1.0000
  O   O5        1.0  0.25642694907291735  0.3704353210248001  0.583536865792631  1.0000
  O   O6        1.0  0.7435741798252022  0.6295640623534949  0.41646220135780243  1.0000
  O   O7        1.0  0.43631376550030154  0.4421922563882744  0.5876001062339142  1.0000
  O   O8        1.0  0.5636848110283593  0.5578080982007734  0.41240031697614654  1.0000
