data_image0
_chemical_formula_structural       Sr6H36C56N8O36
_chemical_formula_sum              "Sr6 H36 C56 N8 O36"
_cell_length_a       9.099533621029837
_cell_length_b       10.429691986676518
_cell_length_c       18.606936159854417
_cell_angle_alpha    104.09771190825782
_cell_angle_beta     89.9997700511547
_cell_angle_gamma    90.00023169255502

_space_group_name_H-M_alt    "P 1"
_space_group_IT_number       1

loop_
  _space_group_symop_operation_xyz
  'x, y, z'

loop_
  _atom_site_type_symbol
  _atom_site_label
  _atom_site_symmetry_multiplicity
  _atom_site_fract_x
  _atom_site_fract_y
  _atom_site_fract_z
  _atom_site_occupancy
  Sr  Sr1       1.0  0.9464032190246312  0.07237803431161893  0.9047909548995037  1.0000
  Sr  Sr2       1.0  0.4463995206947826  0.9276208923775757  0.5952084977096064  1.0000
  Sr  Sr3       1.0  0.05359901329953228  0.9276222880564048  0.0952063009367308  1.0000
  Sr  Sr4       1.0  0.5535994147571159  0.072379429985773  0.4047887581292358  1.0000
  Sr  Sr5       1.0  1.4715674723e-06  0.5000004779069371  0.9999981802724988  1.0000
  Sr  Sr6       1.0  0.5000005666745791  0.5000001530354581  0.5000007765375329  1.0000
  H   H1        1.0  0.9087213526675268  0.5071885619617903  0.8127033190756165  1.0000
  H   H2        1.0  0.4087214808574301  0.49280728793986855  0.6872968593209663  1.0000
  H   H3        1.0  0.09128197859345727  0.4928087804297405  0.187297288607887  1.0000
  H   H4        1.0  0.5912829493731309  0.5071969744652735  0.3127047009101886  1.0000
  H   H5        1.0  0.7086026507603832  0.486342018912076  0.7162536081357942  1.0000
  H   H6        1.0  0.20860318692120214  0.5136581954237089  0.7837502535628218  1.0000
  H   H7        1.0  0.29139738361908474  0.5136563018632074  0.2837498214024095  1.0000
  H   H8        1.0  0.7913979464262225  0.48634112207405883  0.2162511634338884  1.0000
  H   H9        1.0  0.6067870348923421  0.6956299674849192  0.6902258064025304  1.0000
  H   H10       1.0  0.10678748746660457  0.3043640303749768  0.8097763258681354  1.0000
  H   H11       1.0  0.3932053067699143  0.30436340430285475  0.3097785542142049  1.0000
  H   H12       1.0  0.8932092500507874  0.6956313389347815  0.1902229353543774  1.0000
  H   H13       1.0  0.624053573253704  0.9799030159847039  0.9203048919007629  1.0000
  H   H14       1.0  0.12405678503770187  0.020096972531966604  0.5796953437011111  1.0000
  H   H15       1.0  0.37594536217968505  0.020099263155508102  0.0796980076422571  1.0000
  H   H16       1.0  0.8759476451925037  0.9799033416914044  0.4203040607523576  1.0000
  H   H17       1.0  0.698939514498491  0.9791163903547686  0.9968347880084992  1.0000
  H   H18       1.0  0.19894115695137055  0.020882824266003297  0.503164655686504  1.0000
  H   H19       1.0  0.30106051989498167  0.020884904287733302  0.0031669011458035005  1.0000
  H   H20       1.0  0.8010577784956678  0.9791184805596629  0.4968343476949427  1.0000
  H   H21       1.0  0.4258292054321798  0.4296839521698744  0.8583186191236861  1.0000
  H   H22       1.0  0.9258241726132539  0.5703178736681168  0.6416834229450785  1.0000
  H   H23       1.0  0.5741719279284253  0.5703153775495622  0.14167957494454703  1.0000
  H   H24       1.0  0.07417696075163598  0.4296863948431735  0.3583165258244492  1.0000
  H   H25       1.0  0.32137908241431745  0.6558089904013402  0.916844641408801  1.0000
  H   H26       1.0  0.8213789742707504  0.344191554352804  0.5831563557948697  1.0000
  H   H27       1.0  0.6786209519734852  0.34419032505792313  0.0831573127435234  1.0000
  H   H28       1.0  0.17861996118715945  0.6558146953755541  0.41684279082362957  1.0000
  H   H29       1.0  0.4830903936297658  0.8206768869658418  0.0007212698489595763  1.0000
  H   H30       1.0  0.9830927170797278  0.17932305640557902  0.49928022051314974  1.0000
  H   H31       1.0  0.5169052449296244  0.17932440359653165  0.9992814936183193  1.0000
  H   H32       1.0  0.016904020448066593  0.8206782443430783  0.5007198571795257  1.0000
  H   H33       1.0  0.6788186873087197  0.16644870264409664  0.8086069765802505  1.0000
  H   H34       1.0  0.17881596547077547  0.8335504548363419  0.6913924990045572  1.0000
  H   H35       1.0  0.3211725554329021  0.8335506250243444  0.19139175465056726  1.0000
  H   H36       1.0  0.8211840689451362  0.16644987363940092  0.308603145369176  1.0000
  C   C1        1.0  0.9049259420092068  0.7201090613442462  0.838454819097457  1.0000
  C   C2        1.0  0.4049263926201758  0.2798867879653316  0.6615426795398918  1.0000
  C   C3        1.0  0.09507299343829347  0.27989125694521283  0.1615435110508798  1.0000
  C   C4        1.0  0.5950725428373929  0.7201155135812627  0.3384543113009286  1.0000
  C   C5        1.0  0.8592542361908072  0.5938858867189937  0.799721872913075  1.0000
  C   C6        1.0  0.3592593513401353  0.4061137688701209  0.7002810768046714  1.0000
  C   C7        1.0  0.14074140236510857  0.4061134266970825  0.20028061839747827  1.0000
  C   C8        1.0  0.6407472767986702  0.5938904874273093  0.2997220948889776  1.0000
  C   C9        1.0  0.7490169102420622  0.5829552913860283  0.7465166489059243  1.0000
  C   C10       1.0  0.24902054263212386  0.41704504586032004  0.7534850001250177  1.0000
  C   C11       1.0  0.2509809262265037  0.41704401999622587  0.2534863795576356  1.0000
  C   C12       1.0  0.75097949176493  0.5829532912105082  0.24651413217522128  1.0000
  C   C13       1.0  0.6913131800123864  0.6978972893436365  0.7319031300570487  1.0000
  C   C14       1.0  0.19130956660314516  0.3021009150411517  0.7680961896495404  1.0000
  C   C15       1.0  0.30868575542805826  0.3021040093711989  0.26809748478862616  1.0000
  C   C16       1.0  0.8086893688382233  0.697898410601269  0.23190307872992827  1.0000
  C   C17       1.0  0.7465589895328434  0.8198582347881499  0.7714864670270316  1.0000
  C   C18       1.0  0.2465595299225853  0.18013814525569677  0.728513567278597  1.0000
  C   C19       1.0  0.25343005528421964  0.18014305780180717  0.22851575929072246  1.0000
  C   C20       1.0  0.7534405044797906  0.8198582228166063  0.2714831442459342  1.0000
  C   C21       1.0  0.012090952774272502  0.738690721373054  0.9029012957638756  1.0000
  C   C22       1.0  0.5120881487228672  0.26130401653033897  0.5970957511092791  1.0000
  C   C23       1.0  0.9879123785099675  0.26130861649727427  0.0970947496836274  1.0000
  C   C24       1.0  0.4879140835920379  0.7386972842261202  0.4029043265790405  1.0000
  C   C25       1.0  0.6866156057285975  0.9481561637527918  0.7591510333379928  1.0000
  C   C26       1.0  0.18661545075573113  0.05183412074963911  0.7408466680286806  1.0000
  C   C27       1.0  0.31337783490415205  0.051842154976178306  0.2408529333601876  1.0000
  C   C28       1.0  0.8133834846874918  0.9481612587479591  0.2591499074183616  1.0000
  C   C29       1.0  0.6341155903017324  0.47595008075894213  0.9125187321543463  1.0000
  C   C30       1.0  0.13411887626827476  0.5240469624622294  0.587483227885663  1.0000
  C   C31       1.0  0.36588444409358795  0.5240472677387374  0.08748026406752982  1.0000
  C   C32       1.0  0.8658833560374857  0.4759503819646868  0.4125168426439672  1.0000
  C   C33       1.0  0.49059408721178227  0.5053256498741022  0.8953504313321828  1.0000
  C   C34       1.0  0.9905879072554667  0.49467537332931516  0.6046508348686572  1.0000
  C   C35       1.0  0.5094070461501019  0.49467565495468363  0.10464857204752323  1.0000
  C   C36       1.0  0.009408830276271398  0.5053269180294392  0.3953488417476335  1.0000
  C   C37       1.0  0.4345529137481065  0.6306508186426782  0.9272408522878449  1.0000
  C   C38       1.0  0.9345475123269293  0.36935301929723613  0.5727587623393616  1.0000
  C   C39       1.0  0.565452615442993  0.3693514727285603  0.07275882432147539  1.0000
  C   C40       1.0  0.06545142313410679  0.6306512593956558  0.4272385006581771  1.0000
  C   C41       1.0  0.5245850205291446  0.7223566146575778  0.9743750433150353  1.0000
  C   C42       1.0  0.024583273757741598  0.2776450624413728  0.5256272335438722  1.0000
  C   C43       1.0  0.47541611281121726  0.2776436832655591  0.0256286583790128  1.0000
  C   C44       1.0  0.9754156616814311  0.7223542611641067  0.47437257199033667  1.0000
  C   C45       1.0  0.6659151881834403  0.6833813637231716  0.989606574576797  1.0000
  C   C46       1.0  0.16591484538838586  0.31661676447345144  0.5103938596859976  1.0000
  C   C47       1.0  0.33408594516444606  0.3166169672383887  0.010394169186810095  1.0000
  C   C48       1.0  0.8340840900468507  0.6833815685219307  0.489606346924603  1.0000
  C   C49       1.0  0.7022364909589739  0.34348818735708875  0.8797071875858434  1.0000
  C   C50       1.0  0.20223133124944329  0.6565031198829843  0.6202933108817845  1.0000
  C   C51       1.0  0.2977646423934174  0.6565052129603829  0.1202896528574797  1.0000
  C   C52       1.0  0.7977676041735292  0.3434932278183211  0.37970877219107274  1.0000
  C   C53       1.0  0.7701839562064305  0.7746251152587365  0.04119895029435132  1.0000
  C   C54       1.0  0.27018502366141206  0.22538015906475556  0.4588026196315268  1.0000
  C   C55       1.0  0.22981937507202585  0.22537717814632438  0.9588001891619625  1.0000
  C   C56       1.0  0.7298161096754824  0.7746181617120842  0.5412008099058099  1.0000
  N   N1        1.0  0.8496432026491617  0.8304176800390408  0.824231083243852  1.0000
  N   N2        1.0  0.34964412481274104  0.1695780102560391  0.6757670401568276  1.0000
  N   N3        1.0  0.15035023799723746  0.16957966437539085  0.1757689872927344  1.0000
  N   N4        1.0  0.6503570085530724  0.8304242851828437  0.32423156214647975  1.0000
  N   N5        1.0  0.7193496358692568  0.5620890780057979  0.9597051646503942  1.0000
  N   N6        1.0  0.21934741315106268  0.43791315417370674  0.5402962664021799  1.0000
  N   N7        1.0  0.2806514974918172  0.4379092651774243  0.04029235618473591  1.0000
  N   N8        1.0  0.7806537202032967  0.5620901176166627  0.4597056949079672  1.0000
  O   O1        1.0  0.02738744195911379  0.8547407375095237  0.9440695982096869  1.0000
  O   O2        1.0  0.5273921289280991  0.14525602098598975  0.5559276965732352  1.0000
  O   O3        1.0  0.9726136914120217  0.14525958893083413  0.0559265833179197  1.0000
  O   O4        1.0  0.4726123013082456  0.8547452858844269  0.44407076964910175  1.0000
  O   O5        1.0  0.07443342943124517  0.6349954693365023  0.9123492993164604  1.0000
  O   O6        1.0  0.5744289852129114  0.365001414587809  0.5876500695368633  1.0000
  O   O7        1.0  0.925571000807295  0.36500583957085553  0.0876486297511363  1.0000
  O   O8        1.0  0.42557544501070765  0.6349988935247313  0.41235094638084746  1.0000
  O   O9        1.0  0.7448262362223728  0.053635136902052204  0.8008154331982809  1.0000
  O   O10       1.0  0.24481957778294114  0.94635630349336  0.6991817748482348  1.0000
  O   O11       1.0  0.25517379817283364  0.9463671463136053  0.19918639203437746  1.0000
  O   O12       1.0  0.7551793576752032  0.05364007679904859  0.3008117137486934  1.0000
  O   O13       1.0  0.586506261877666  0.9461330255553624  0.7133266293630953  1.0000
  O   O14       1.0  0.08650684103942298  0.053861909400382005  0.7866740596614221  1.0000
  O   O15       1.0  0.41348717874860325  0.05386035234480601  0.2866761197885309  1.0000
  O   O16       1.0  0.9134975891737794  0.9461324672732586  0.2133261397861261  1.0000
  O   O17       1.0  0.8233392349694525  0.3141303488790755  0.9036679066810293  1.0000
  O   O18       1.0  0.3233355059616088  0.6858751341169199  0.5963364535846978  1.0000
  O   O19       1.0  0.17666299735332555  0.6858729330975707  0.0963313688545213  1.0000
  O   O20       1.0  0.6766678252997309  0.3141261564563819  0.4036663098764777  1.0000
  O   O21       1.0  0.6264831994167677  0.26803646011585874  0.8267434744759541  1.0000
  O   O22       1.0  0.1264735610797842  0.7319526589400243  0.6732557975785554  1.0000
  O   O23       1.0  0.3735190329004538  0.7319599079595707  0.1732532370468363  1.0000
  O   O24       1.0  0.8735242753962992  0.26804468548065324  0.3267442729545563  1.0000
  O   O25       1.0  0.8808916097266176  0.7205614975317263  0.0639333600559624  1.0000
  O   O26       1.0  0.3808920144398796  0.2794431005408882  0.4360684355035858  1.0000
  O   O27       1.0  0.11911611738684508  0.2794388268810479  0.936063358621169  1.0000
  O   O28       1.0  0.6191102178635787  0.7205591765670578  0.5639350011915739  1.0000
  O   O29       1.0  0.7477280790757702  0.8982379648298817  0.057767293497782604  1.0000
  O   O30       1.0  0.24772651099573292  0.10176625715208591  0.4422341759386299  1.0000
  O   O31       1.0  0.25227085636074514  0.10176234327485645  0.9422337224242838  1.0000
  O   O32       1.0  0.7522702265294043  0.8982360280958375  0.5577671121418958  1.0000
  O   O33       1.0  0.6872577564011875  0.03196136793894062  0.9585579566135607  1.0000
  O   O34       1.0  0.18725578340728788  0.9680368269695308  0.5414408323637899  1.0000
  O   O35       1.0  0.31274447590539006  0.9680389381335316  0.04144359646063827  1.0000
  O   O36       1.0  0.8127442509941644  0.031961514175186806  0.4585572256269543  1.0000
