data_image0
_chemical_formula_structural       Zn2H36C44N8O8
_chemical_formula_sum              "Zn2 H36 C44 N8 O8"
_cell_length_a       9.650825721377169
_cell_length_b       9.660641345912653
_cell_length_c       11.858038071424954
_cell_angle_alpha    108.4715857599665
_cell_angle_beta     103.39241912835418
_cell_angle_gamma    92.35690167185423

_space_group_name_H-M_alt    "P 1"
_space_group_IT_number       1

loop_
  _space_group_symop_operation_xyz
  'x, y, z'

loop_
  _atom_site_type_symbol
  _atom_site_label
  _atom_site_symmetry_multiplicity
  _atom_site_fract_x
  _atom_site_fract_y
  _atom_site_fract_z
  _atom_site_occupancy
  Zn  Zn1       1.0  0.47588294038901313  0.099509695379858  0.24640886213150995  1.0000
  Zn  Zn2       1.0  0.5241188362196993  0.9004907114825828  0.7535907492008466  1.0000
  H   H1        1.0  0.0243385855701064  0.9893443746790425  0.2936030826612139  1.0000
  H   H2        1.0  0.9756634531598676  0.010658231890992896  0.7063971467991763  1.0000
  H   H3        1.0  0.7580727936166767  0.0029202203060450004  0.5393086576498405  1.0000
  H   H4        1.0  0.24192898299204296  0.9970801865563882  0.4606909536825086  1.0000
  H   H5        1.0  0.6911295124627871  0.3738644845427288  0.09221104639543407  1.0000
  H   H6        1.0  0.30887238894509045  0.6261370209567332  0.9077905591189792  1.0000
  H   H7        1.0  0.24970775026637423  0.4487002696511199  0.009948592131841821  1.0000
  H   H8        1.0  0.7502941417493005  0.5513012340231711  0.9900555410596257  1.0000
  H   H9        1.0  0.2710742712932799  0.35398248905346463  0.32169087984750183  1.0000
  H   H10       1.0  0.7289253713670547  0.6460179127485689  0.678309166379279  1.0000
  H   H11       1.0  0.5483198285824642  0.16140931316704873  0.5423994573064803  1.0000
  H   H12       1.0  0.45167874553830956  0.8385910858005943  0.45760122764701805  1.0000
  H   H13       1.0  0.43305457337501707  0.3849751632706315  0.6947261635877169  1.0000
  H   H14       1.0  0.5669457415122493  0.6150219411960123  0.3052731592792881  1.0000
  H   H15       1.0  0.1897798840380247  0.5448051985337586  0.46959376113389345  1.0000
  H   H16       1.0  0.8102241544489672  0.4551963126344846  0.53040656692707  1.0000
  H   H17       1.0  0.33089011740256785  0.6294132185672084  0.6036683994899621  1.0000
  H   H18       1.0  0.6691113814312146  0.3705849855456904  0.39633480650944364  1.0000
  H   H19       1.0  0.18018546857323514  0.7588904950545583  0.7178481443115743  1.0000
  H   H20       1.0  0.81981284968775  0.2411077054222659  0.2821502373958396  1.0000
  H   H21       1.0  0.8900463409077162  0.5271669468705299  0.8412943489141897  1.0000
  H   H22       1.0  0.10995011491834822  0.4728334500786601  0.15870255813863574  1.0000
  H   H23       1.0  0.9417698884588217  0.2887075387730532  0.7054046634621827  1.0000
  H   H24       1.0  0.058227626514600686  0.7112928591853631  0.29459413254097916  1.0000
  H   H25       1.0  0.1061149707648354  0.28543985344479944  0.574264386914173  1.0000
  H   H26       1.0  0.8938854657908522  0.7145583490504779  0.4257377726939141  1.0000
  H   H27       1.0  0.02769600958233554  0.892752783905202  0.8369968385554645  1.0000
  H   H28       1.0  0.9723047047482893  0.1072476213396172  0.16300172638556623  1.0000
  H   H29       1.0  0.9045815343599627  0.8011958549533418  0.8906034278899072  1.0000
  H   H30       1.0  0.0954191705784595  0.1988045484663132  0.10939766472818495  1.0000
  H   H31       1.0  0.2726542690784228  0.9925529992112276  0.9700972536303072  1.0000
  H   H32       1.0  0.7273472422782987  0.007445207335223403  0.029902582133018992  1.0000
  H   H33       1.0  0.023866063746631003  0.7121199002375036  0.07958364574567868  1.0000
  H   H34       1.0  0.9761345132618969  0.2878794039367349  0.9204162952493747  1.0000
  H   H35       1.0  0.2752278508662087  0.8344478135894421  0.265359033751281  1.0000
  H   H36       1.0  0.7247729882635737  0.1655536902923984  0.7346415253718137  1.0000
  C   C1        1.0  0.7502255716744627  0.9988536233735059  0.3069773806233941  1.0000
  C   C2        1.0  0.24977606761215299  0.001145682418354  0.6930236067629779  1.0000
  C   C3        1.0  0.8783981780264727  0.9972233495549787  0.40677896490091586  1.0000
  C   C4        1.0  0.1216015988252224  0.0027781527092472003  0.5932205478308603  1.0000
  C   C5        1.0  0.014896081851858914  0.9949431093237209  0.3846982392890227  1.0000
  C   C6        1.0  0.9851056916261172  0.0050572969303317  0.6153022146023518  1.0000
  C   C7        1.0  0.8646723901680389  0.0023145179206523004  0.5231305470347465  1.0000
  C   C8        1.0  0.13532938644067374  0.9976858889417887  0.4768690642976028  1.0000
  C   C9        1.0  0.4293489813054308  0.29808583442235903  0.12065841870295914  1.0000
  C   C10       1.0  0.5706541165718946  0.7019167731569098  0.8793436997077752  1.0000
  C   C11       1.0  0.4668082368149982  0.4007977929734424  0.057267846448091624  1.0000
  C   C12       1.0  0.5331924712541608  0.5992026110546008  0.9427324036109826  1.0000
  C   C13       1.0  0.6081253329477077  0.4293413778035173  0.05137914027403663  1.0000
  C   C14       1.0  0.39187537512145104  0.5706590262245258  0.9486211097850376  1.0000
  C   C15       1.0  0.3591948650677566  0.47222969166007545  0.005305148028483646  1.0000
  C   C16       1.0  0.6408047807233146  0.5277707107503531  0.994694055639272  1.0000
  C   C17       1.0  0.32925057449797634  0.32970787060762774  0.40171935285592053  1.0000
  C   C18       1.0  0.6707465379013512  0.6702892259642184  0.598281043632241  1.0000
  C   C19       1.0  0.47341499023348643  0.23507481321781404  0.5200999313291421  1.0000
  C   C20       1.0  0.5265854557144111  0.7649233911026273  0.47989970060188386  1.0000
  C   C21       1.0  0.418051568785998  0.3451243257561671  0.595852996497797  1.0000
  C   C22       1.0  0.5819460709865821  0.6548771708392708  0.4041477936874287  1.0000
  C   C23       1.0  0.25115708563592415  0.5316469514273406  0.5553066695736321  1.0000
  C   C24       1.0  0.7488422949031487  0.46835125066709793  0.44469275852510043  1.0000
  C   C25       1.0  0.1524798747825926  0.522704047681529  0.6351186063199848  1.0000
  C   C26       1.0  0.8475164468521115  0.4772952488054756  0.3648788342278381  1.0000
  C   C27       1.0  0.12483134186557272  0.6554960307923352  0.7124662588975144  1.0000
  C   C28       1.0  0.8751701726218784  0.34450217636250363  0.2875327343067938  1.0000
  C   C29       1.0  0.0316394496395702  0.6586314035981644  0.7871643266467104  1.0000
  C   C30       1.0  0.968356868864397  0.3413678922804452  0.21283395646013048  1.0000
  C   C31       1.0  0.9647720113514707  0.525666898614233  0.784581040744307  1.0000
  C   C32       1.0  0.03522643797014519  0.4743324017163886  0.21541765002712765  1.0000
  C   C33       1.0  0.9927409904523188  0.3927562279392518  0.7081080256691339  1.0000
  C   C34       1.0  0.007255200121747397  0.6072419686939483  0.29188910581466854  1.0000
  C   C35       1.0  0.08581886010387758  0.39051932008093354  0.6332093690518619  1.0000
  C   C36       1.0  0.914177452138624  0.6094799745808999  0.36679059917302254  1.0000
  C   C37       1.0  0.011661688460932927  0.8045155547973054  0.8740683202092188  1.0000
  C   C38       1.0  0.9883388885475953  0.1954837493769332  0.12593162078582765  1.0000
  C   C39       1.0  0.24222506688770556  0.9352025985468306  0.02784726993039054  1.0000
  C   C40       1.0  0.7577765755296467  0.064796707853418  0.9721528748969562  1.0000
  C   C41       1.0  0.11396057092492379  0.7873902688793138  0.08608202276517574  1.0000
  C   C42       1.0  0.8860397470930792  0.21260683619571813  0.9139164575428114  1.0000
  C   C43       1.0  0.23782496606077794  0.849214239225688  0.17695520661195735  1.0000
  C   C44       1.0  0.7621765515574096  0.15078396853753875  0.8230429440333324  1.0000
  N   N1        1.0  0.41734798091084707  0.22664610660125817  0.39914843964427155  1.0000
  N   N2        1.0  0.582650324827199  0.773352091442007  0.6008533122992221  1.0000
  N   N3        1.0  0.3268969452723454  0.40369690273225706  0.5191062609212694  1.0000
  N   N4        1.0  0.6731001733884484  0.5963001950563722  0.48089245044884893  1.0000
  N   N5        1.0  0.11860802994996791  0.843571194107625  0.9931855352851927  1.0000
  N   N6        1.0  0.8813936124673842  0.1564281122926232  0.006814609542153974  1.0000
  N   N7        1.0  0.3162708320139558  0.9417002548611535  0.13991685758842468  1.0000
  N   N8        1.0  0.6837297481253017  0.05829904992148021  0.8600822408476034  1.0000
  O   O1        1.0  0.6366455254686799  0.0351474835268206  0.34507665106193036  1.0000
  O   O2        1.0  0.3633559858880346  0.9648507230196233  0.6549231847013958  1.0000
  O   O3        1.0  0.7607754340988179  0.9721258320020066  0.19935039650205505  1.0000
  O   O4        1.0  0.2392254019002351  0.0278756712714454  0.8006510051800577  1.0000
  O   O5        1.0  0.531836726188253  0.22790894476506207  0.15949899987212046  1.0000
  O   O6        1.0  0.46816624375917837  0.7720925635687979  0.840501966915568  1.0000
  O   O7        1.0  0.30526047510373644  0.2865297247328585  0.13526621306322548  1.0000
  O   O8        1.0  0.6947427538342196  0.713473982700208  0.8647362144115293  1.0000
