data_image0
_chemical_formula_structural       Zn20H164C140N84O4
_chemical_formula_sum              "Zn20 H164 C140 N84 O4"
_cell_length_a       9.597304909001076
_cell_length_b       24.335969816898658
_cell_length_c       24.77617476551312
_cell_angle_alpha    91.68563083773225
_cell_angle_beta     89.99999542002514
_cell_angle_gamma    90.00005421776343

_space_group_name_H-M_alt    "P 1"
_space_group_IT_number       1

loop_
  _space_group_symop_operation_xyz
  'x, y, z'

loop_
  _atom_site_type_symbol
  _atom_site_label
  _atom_site_symmetry_multiplicity
  _atom_site_fract_x
  _atom_site_fract_y
  _atom_site_fract_z
  _atom_site_occupancy
  Zn  Zn1       1.0  0.9637812351296658  0.23411059947120796  0.3189038574029652  1.0000
  Zn  Zn2       1.0  0.4637815432651422  0.2658888233728264  0.18109533046623483  1.0000
  Zn  Zn3       1.0  0.0362193497212502  0.7658887218843803  0.6810957721806689  1.0000
  Zn  Zn4       1.0  0.5362190415857312  0.7341104976668619  0.8189047027217101  1.0000
  Zn  Zn5       1.0  0.7436306276223873  0.012886902311663602  0.277371219340381  1.0000
  Zn  Zn6       1.0  0.24363249997669809  0.4871116144344612  0.22263037020705675  1.0000
  Zn  Zn7       1.0  0.2563678733090099  0.987111595595607  0.7226300002848803  1.0000
  Zn  Zn8       1.0  0.756368084873067  0.5128868834731931  0.7773708494181761  1.0000
  Zn  Zn9       1.0  0.2397642117373167  0.0331660881529956  0.1365542930064763  1.0000
  Zn  Zn10      1.0  0.739765494792671  0.4668332499686869  0.3634465137857532  1.0000
  Zn  Zn11      1.0  0.7602353311537939  0.9668328211625267  0.8634465352022789  1.0000
  Zn  Zn12      1.0  0.2602350900576694  0.5331656596629415  0.6365539108186838  1.0000
  Zn  Zn13      1.0  0.32608044472570435  0.34142915526594925  0.48203606939654986  1.0000
  Zn  Zn14      1.0  0.8260810595553991  0.15857062705311623  0.017963537034440008  1.0000
  Zn  Zn15      1.0  0.673919098167012  0.6585709882737518  0.5179635845627288  1.0000
  Zn  Zn16      1.0  0.17391952529596466  0.841429105078724  0.9820365083413238  1.0000
  Zn  Zn17      1.0  0.4447250413282831  0.21721847003657044  0.6837618250108477  1.0000
  Zn  Zn18      1.0  0.9447258924941478  0.2827805563491737  0.8162382618469977  1.0000
  Zn  Zn19      1.0  0.5552734596042157  0.7827808510027339  0.31623820817711856  1.0000
  Zn  Zn20      1.0  0.05527469235578051  0.7172179428221102  0.18376134336100597  1.0000
  H   H1        1.0  0.173633442045535  0.28824620444530774  0.2350904735857853  1.0000
  H   H2        1.0  0.6736330914342757  0.2117535210785207  0.2649091359114806  1.0000
  H   H3        1.0  0.826368184764476  0.7117531162786721  0.7649099632064563  1.0000
  H   H4        1.0  0.3263674934175782  0.7882466221454719  0.7350909216520948  1.0000
  H   H5        1.0  0.2076761455886924  0.1395058686674631  0.3170891484293393  1.0000
  H   H6        1.0  0.7076751269085689  0.3604938695390559  0.18291046038321215  1.0000
  H   H7        1.0  0.7923254812213686  0.8604934523724168  0.6829108847585916  1.0000
  H   H8        1.0  0.2923254579428374  0.6395058629086917  0.8170891813882406  1.0000
  H   H9        1.0  0.44253064293417305  0.1531398246167655  0.2533635830047842  1.0000
  H   H10       1.0  0.9425295783511985  0.34686041186246547  0.24663643687610914  1.0000
  H   H11       1.0  0.5574709838758878  0.8468594964231144  0.7466364501831464  1.0000
  H   H12       1.0  0.057472048459438006  0.6531393209013814  0.7533628012910257  1.0000
  H   H13       1.0  0.9479964521015845  0.11084826284597678  0.2748727439724235  1.0000
  H   H14       1.0  0.44799808886800463  0.3891503319332871  0.22512641983861673  1.0000
  H   H15       1.0  0.052005174707531396  0.8891502363255056  0.7251268612355661  1.0000
  H   H16       1.0  0.5520045799007461  0.6108485780146397  0.7748736011614883  1.0000
  H   H17       1.0  0.733932268778034  0.18824684879389514  0.40447685466347866  1.0000
  H   H18       1.0  0.23393166271814891  0.31175248778652087  0.0955231450374541  1.0000
  H   H19       1.0  0.2660703999908023  0.811752061785839  0.5955223591280118  1.0000
  H   H20       1.0  0.7660668382143143  0.6882468329368692  0.904477291754816  1.0000
  H   H21       1.0  0.6288182594729577  0.08278215851807148  0.3874399598485995  1.0000
  H   H22       1.0  0.12881581904605344  0.41721754967738167  0.11256045775870402  1.0000
  H   H23       1.0  0.37118440929628344  0.9172171625220074  0.6125600733393242  1.0000
  H   H24       1.0  0.8711837238455474  0.5827817707302928  0.8874403826378698  1.0000
  H   H25       1.0  0.43506600787590327  0.9865926826720822  0.22909195568193755  1.0000
  H   H26       1.0  0.9350683059399713  0.5134050196864309  0.2709071480494032  1.0000
  H   H27       1.0  0.5649335350148448  0.0134058164990094  0.7709076495260733  1.0000
  H   H28       1.0  0.06493332086815677  0.48659265730074003  0.729092432782956  1.0000
  H   H29       1.0  0.7333288971640072  0.1050584589374495  0.1863892116770174  1.0000
  H   H30       1.0  0.2333305295142054  0.3949408755231545  0.313613209661881  1.0000
  H   H31       1.0  0.26667064572800575  0.8949412719305699  0.8136124481159897  1.0000
  H   H32       1.0  0.7666700553360074  0.6050580331607519  0.6863884257554818  1.0000
  H   H33       1.0  0.4995080649420133  0.11501918835702442  0.12154369965062273  1.0000
  H   H34       1.0  0.9995091484738411  0.3849802455860499  0.3784583127301389  1.0000
  H   H35       1.0  0.5004914779499999  0.8849805425109949  0.8784579601423844  1.0000
  H   H36       1.0  0.0004914363763716999  0.6150186630978496  0.6215433226872237  1.0000
  H   H37       1.0  0.9498844285935986  0.05858265372448561  0.18635979441012301  1.0000
  H   H38       1.0  0.44988721442194896  0.4414167623631329  0.31364141176011634  1.0000
  H   H39       1.0  0.0501130303786539  0.9414158444985007  0.8136410216108346  1.0000
  H   H40       1.0  0.5501154543472069  0.5585825580451244  0.686359428636422  1.0000
  H   H41       1.0  0.21102282748113774  0.922988755554904  0.21160094842911556  1.0000
  H   H42       1.0  0.7110221486765198  0.5770109184792673  0.2883986243519772  1.0000
  H   H43       1.0  0.7889746314921808  0.07701056548420131  0.7883990847588652  1.0000
  H   H44       1.0  0.28897635225602164  0.42298840287593714  0.7116010052316782  1.0000
  H   H45       1.0  0.9803137842216643  0.9181511523314472  0.2808052048640235  1.0000
  H   H46       1.0  0.48031364284302197  0.581847799528596  0.2191947417293107  1.0000
  H   H47       1.0  0.019683674750666597  0.0818473465233538  0.7191948039483194  1.0000
  H   H48       1.0  0.5196848580894767  0.41815152151070123  0.7808052914586484  1.0000
  H   H49       1.0  0.5322738596977102  0.4321949931702562  0.45328916528755064  1.0000
  H   H50       1.0  0.0322737203114514  0.0678038565572123  0.0467116334902613  1.0000
  H   H51       1.0  0.4677256831934855  0.5678039167770876  0.5467108557125826  1.0000
  H   H52       1.0  0.9677279064981192  0.9321950533905151  0.9532883875098508  1.0000
  H   H53       1.0  0.47697691081069127  0.279329599400981  0.3714775966148096  1.0000
  H   H54       1.0  0.9769776517778368  0.22066982804335572  0.1285219945932852  1.0000
  H   H55       1.0  0.5230226320804617  0.7206693102304554  0.6285228279896345  1.0000
  H   H56       1.0  0.023022933072546395  0.779329081904173  0.8714780264068409  1.0000
  H   H57       1.0  0.6835683184020667  0.33834377229744933  0.3204345419799779  1.0000
  H   H58       1.0  0.1835683767332768  0.1616559562959381  0.17956587452607664  1.0000
  H   H59       1.0  0.31643226644827394  0.6616551373341792  0.6795658826244592  1.0000
  H   H60       1.0  0.8164311661578764  0.8383429533354914  0.8204345500783675  1.0000
  H   H61       1.0  0.3610768059779801  0.4159728057867724  0.5915290314382347  1.0000
  H   H62       1.0  0.8610792450394699  0.0840266011595716  0.9084702620812594  1.0000
  H   H63       1.0  0.6389227369142816  0.5840269269766836  0.40847020672892154  1.0000
  H   H64       1.0  0.13892029785270668  0.9159731309720771  0.09152978329451142  1.0000
  H   H65       1.0  0.11939452543872868  0.5365794963245349  0.5172326993859714  1.0000
  H   H66       1.0  0.6193926497349692  0.9634205767140502  0.98276739461479  1.0000
  H   H67       1.0  0.8806060594135802  0.46342105767570263  0.48276777396973364  1.0000
  H   H68       1.0  0.38060689315659607  0.036578743377717195  0.017233849386094804  1.0000
  H   H69       1.0  0.15676846049758097  0.4478898294578926  0.4450570112749404  1.0000
  H   H70       1.0  0.6567698541687365  0.05211071196741561  0.054942622937154816  1.0000
  H   H71       1.0  0.8432289984772581  0.5521107251735771  0.5549426548721712  1.0000
  H   H72       1.0  0.3432328146014072  0.9478894306251535  0.9450582418350211  1.0000
  H   H73       1.0  0.22968456374252358  0.274819884343465  0.3760556851464543  1.0000
  H   H74       1.0  0.7296863584367372  0.22517862847058012  0.12394429026425512  1.0000
  H   H75       1.0  0.7703139371894848  0.7251790256036802  0.6239443358536931  1.0000
  H   H76       1.0  0.27031526837229347  0.7748198700690879  0.8760561221523562  1.0000
  H   H77       1.0  0.9924060440882484  0.3388125195959403  0.5063210075931863  1.0000
  H   H78       1.0  0.4924070782520928  0.1611861137774326  0.9936786625134886  1.0000
  H   H79       1.0  0.007594540763157901  0.6611872128518075  0.4936786341782664  1.0000
  H   H80       1.0  0.5075935065987736  0.8388132072622485  0.00632137067445631  1.0000
  H   H81       1.0  0.8143226726303538  0.2959222651972979  0.4269885226380978  1.0000
  H   H82       1.0  0.3143249387251288  0.20407710164949577  0.0730110718415489  1.0000
  H   H83       1.0  0.18567582830166174  0.7040766447498469  0.5730114983620496  1.0000
  H   H84       1.0  0.6856766880848824  0.7959222190744768  0.926989364950693  1.0000
  H   H85       1.0  0.2958635744655922  0.3075120345368775  0.609655735577988  1.0000
  H   H86       1.0  0.7958652355842445  0.19248693638976994  0.8903443542739924  1.0000
  H   H87       1.0  0.7041349264664163  0.6924868754102674  0.3903442854221595  1.0000
  H   H88       1.0  0.20413430730596357  0.8075111513732623  0.10965564235051063  1.0000
  H   H89       1.0  0.5847050392066037  0.2629060054815043  0.48768184923615376  1.0000
  H   H90       1.0  0.08470427121099532  0.23709409768767392  0.012318177841919506  1.0000
  H   H91       1.0  0.41529658760541815  0.7370949599269851  0.5123182327030521  1.0000
  H   H92       1.0  0.9152942297220362  0.7629056347596901  0.9876814639295548  1.0000
  H   H93       1.0  0.6446478307841589  0.2055923898438081  0.5804988805002367  1.0000
  H   H94       1.0  0.14464815801928668  0.29440734724645523  0.9195008331645838  1.0000
  H   H95       1.0  0.35535171210806743  0.7944073426037407  0.4195007612712304  1.0000
  H   H96       1.0  0.8553503429137947  0.705592385516816  0.08049840500257943  1.0000
  H   H97       1.0  0.1360248200241259  0.20858091121150577  0.733983692864939  1.0000
  H   H98       1.0  0.6360236183919099  0.2914188217181959  0.7660172317862648  1.0000
  H   H99       1.0  0.863975764827238  0.7914188209203344  0.2660163525108175  1.0000
  H   H100      1.0  0.3639780084192594  0.7085813224537176  0.2339816149643781  1.0000
  H   H101      1.0  0.20036285574062868  0.36628361073743315  0.804405817823536  1.0000
  H   H102      1.0  0.7003623322130039  0.133716969609857  0.6955935154919857  1.0000
  H   H103      1.0  0.7996366871515478  0.6337161213942082  0.1955942275522418  1.0000
  H   H104      1.0  0.29963616872110077  0.866283585653626  0.30440534344649717  1.0000
  H   H105      1.0  0.4291395537490175  0.3371091717609076  0.7411587417361433  1.0000
  H   H106      1.0  0.9291390871414932  0.1628914938185417  0.7588405869778401  1.0000
  H   H107      1.0  0.5708599891441892  0.6628913828709455  0.25884092441094714  1.0000
  H   H108      1.0  0.07085941379162358  0.8371082392606296  0.24115824758501256  1.0000
  H   H109      1.0  0.5995745800702109  0.8953520085644299  0.2511167170721365  1.0000
  H   H110      1.0  0.0995776131353452  0.6046472115939282  0.24888446017996563  1.0000
  H   H111      1.0  0.40042392086171213  0.10464690075090027  0.7488841111366328  1.0000
  H   H112      1.0  0.9004240136741332  0.39535169772198503  0.7511163680287682  1.0000
  H   H113      1.0  0.6686324488527474  0.8593150354638438  0.41422100078700214  1.0000
  H   H114      1.0  0.16863247626611869  0.6406829777772387  0.08577933130406022  1.0000
  H   H115      1.0  0.331366052078728  0.1406834630752414  0.5857794116296376  1.0000
  H   H116      1.0  0.8313670666240538  0.3593151096698862  0.9142210689247536  1.0000
  H   H117      1.0  0.7415176262803485  0.9682573761483583  0.39745543264735533  1.0000
  H   H118      1.0  0.2415173888027482  0.5317406632987698  0.1025461087906478  1.0000
  H   H119      1.0  0.2584819166102291  0.0317411217591044  0.6025457869778919  1.0000
  H   H120      1.0  0.7584821540868063  0.4682570121084808  0.8974554900632727  1.0000
  H   H121      1.0  0.47755080053729426  0.9332638850209206  0.1049749934454098  1.0000
  H   H122      1.0  0.977550075022158  0.5667445212450773  0.39502482991898813  1.0000
  H   H123      1.0  0.5224497843189865  0.0667399580324499  0.8950251738085272  1.0000
  H   H124      1.0  0.022448425918661002  0.43326178804491633  0.6049758140661724  1.0000
  H   H125      1.0  0.7504450270023213  0.8513016096457093  0.06158509354303732  1.0000
  H   H126      1.0  0.2504522943991176  0.648705893302818  0.4384102703661696  1.0000
  H   H127      1.0  0.24955243197452145  0.14870058967028396  0.9384142177510385  1.0000
  H   H128      1.0  0.7495524582957601  0.3512991858709569  0.5615863010123903  1.0000
  H   H129      1.0  0.6615107612887242  0.91481481466149  0.05782477045607951  1.0000
  H   H130      1.0  0.1615126657038317  0.5851934754418977  0.4421730412434642  1.0000
  H   H131      1.0  0.3384908655248609  0.0851873846552778  0.9421745408379608  1.0000
  H   H132      1.0  0.8384889611147628  0.41481283542821507  0.5578255847201207  1.0000
  H   H133      1.0  0.9027753863947866  0.9322076137338299  0.08741150029424462  1.0000
  H   H134      1.0  0.4027710034341609  0.5677950109628398  0.4125861359232132  1.0000
  H   H135      1.0  0.0972272823754423  0.06779252949054641  0.9125885572693164  1.0000
  H   H136      1.0  0.5972264555422768  0.4322067778928088  0.5874123559744291  1.0000
  H   H137      1.0  0.8852964620370899  0.8877634029420919  0.14256464502228994  1.0000
  H   H138      1.0  0.3853005328123301  0.6122388050998495  0.35743176854589365  1.0000
  H   H139      1.0  0.11470203889639662  0.11223674028151721  0.8574354125413067  1.0000
  H   H140      1.0  0.6147021359596677  0.3877625736123421  0.6425655003509478  1.0000
  H   H141      1.0  0.7882682555992345  0.9500264128309653  0.14147308309385662  1.0000
  H   H142      1.0  0.28826384106864106  0.5499774027977438  0.35852418838589273  1.0000
  H   H143      1.0  0.21173337121287972  0.0499745532093456  0.8585261916367273  1.0000
  H   H144      1.0  0.7117325759495968  0.45002520824202463  0.6414743278873871  1.0000
  H   H145      1.0  0.5637956988322159  0.8175373322819296  0.1871770987170436  1.0000
  H   H146      1.0  0.06380307324126018  0.6824713334580107  0.3128195163227403  1.0000
  H   H147      1.0  0.43620071818696  0.18246610062623606  0.812821845536185  1.0000
  H   H148      1.0  0.9362037633733423  0.3175349780448897  0.6871783024321729  1.0000
  H   H149      1.0  0.7319804092513708  0.8103695948915257  0.15750846163422952  1.0000
  H   H150      1.0  0.23198466884215918  0.6896383091104141  0.3424909508773055  1.0000
  H   H151      1.0  0.26801704972588425  0.18963301488480513  0.8424916690562797  1.0000
  H   H152      1.0  0.7680200838528322  0.3103671783123474  0.6575092651278496  1.0000
  H   H153      1.0  0.5888453362535558  0.7270819973261808  0.13704045420921324  1.0000
  H   H154      1.0  0.08884353971263438  0.7729254413089139  0.3629601598064625  1.0000
  H   H155      1.0  0.411153164683327  0.27292102322659423  0.8629600922734115  1.0000
  H   H156      1.0  0.9111560031859368  0.22707963502072911  0.6370400440109308  1.0000
  H   H157      1.0  0.6199426561621094  0.7618506394738205  0.0759587417822161  1.0000
  H   H158      1.0  0.11994076354606162  0.7381539337334929  0.4240409790846443  1.0000
  H   H159      1.0  0.38005688673248983  0.2381511478026894  0.924041768136945  1.0000
  H   H160      1.0  0.8800577373913613  0.2618494982273418  0.5759591759814953  1.0000
  H   H161      1.0  0.4551057591389025  0.7680601800708685  0.10867571780661223  1.0000
  H   H162      1.0  0.9551043888542166  0.7319445192672231  0.3913223819016523  1.0000
  H   H163      1.0  0.5448937837562652  0.23194201892960115  0.8913239970917531  1.0000
  H   H164      1.0  0.044894112083419195  0.26805891427314077  0.6086757551429329  1.0000
  C   C1        1.0  0.21502313903133793  0.24969153196818894  0.24916810211978205  1.0000
  C   C2        1.0  0.7150249677686206  0.2503082089760298  0.25083150654496933  1.0000
  C   C3        1.0  0.7849753619011609  0.7503077890711084  0.7508319310681842  1.0000
  C   C4        1.0  0.28497665904193076  0.7496915231560023  0.7491685388307802  1.0000
  C   C5        1.0  0.23552567323518758  0.17271256775051577  0.290885819797424  1.0000
  C   C6        1.0  0.7355256114085195  0.32728759160794135  0.2091142042470864  1.0000
  C   C7        1.0  0.7644749116156434  0.827286752973265  0.7091146169948246  1.0000
  C   C8        1.0  0.2644760154030124  0.6727129627083956  0.7908858655043006  1.0000
  C   C9        1.0  0.35281277858189947  0.17973279627385344  0.25959836002813574  1.0000
  C   C10       1.0  0.8528116514752284  0.3202669956882787  0.2404016494694972  1.0000
  C   C11       1.0  0.6471888482281614  0.8202665247660335  0.7404016731597951  1.0000
  C   C12       1.0  0.14719101729414058  0.6797323262995147  0.7595971729055009  1.0000
  C   C13       1.0  0.8747436001710797  0.1175595991186427  0.3078152818497699  1.0000
  C   C14       1.0  0.37474522764963325  0.3824389683698187  0.19218388343465886  1.0000
  C   C15       1.0  0.12525802663705576  0.882438077868535  0.692184298982589  1.0000
  C   C16       1.0  0.6252563991599374  0.617559941577909  0.8078161375654603  1.0000
  C   C17       1.0  0.7622974888349532  0.15664535663625404  0.3746799596488161  1.0000
  C   C18       1.0  0.2622959104813916  0.3433535794194641  0.12532002729378186  1.0000
  C   C19       1.0  0.23770830581089794  0.843353142536003  0.6253196455591308  1.0000
  C   C20       1.0  0.737703632410252  0.6566457413041177  0.8746804094984812  1.0000
  C   C21       1.0  0.7106996078927352  0.1041648541610414  0.36636957470526715  1.0000
  C   C22       1.0  0.2106991957120385  0.3958336515796361  0.13363040108732352  1.0000
  C   C23       1.0  0.2893020189168283  0.8958340557866864  0.6336304462948519  1.0000
  C   C24       1.0  0.7893003471791575  0.6041652583677077  0.8663696199128168  1.0000
  C   C25       1.0  0.4852258075380931  0.020134918756348007  0.2086553503779101  1.0000
  C   C26       1.0  0.9852271367817308  0.47986286676084683  0.29134499912161266  1.0000
  C   C27       1.0  0.5147726933938728  0.9798639908748897  0.7913450742265413  1.0000
  C   C28       1.0  0.0147744900263191  0.5201348095945164  0.7086553889193681  1.0000
  C   C29       1.0  0.6374134000588185  0.0814416360755672  0.1856531139598232  1.0000
  C   C30       1.0  0.13741717284671037  0.41855766265152994  0.3143493093082697  1.0000
  C   C31       1.0  0.3625840589147771  0.918558094476154  0.8143489494375161  1.0000
  C   C32       1.0  0.8625844539626468  0.5814412457166612  0.6856527297133894  1.0000
  C   C33       1.0  0.5216267370233609  0.08650419130958655  0.1532687162822484  1.0000
  C   C34       1.0  0.021630490962465398  0.4134958861488728  0.34673413729468194  1.0000
  C   C35       1.0  0.47837072195117974  0.913496361110532  0.8467337750950322  1.0000
  C   C36       1.0  0.9783721778065272  0.5865034329957552  0.6532683175190998  1.0000
  C   C37       1.0  0.9897674536261363  0.021141382422847202  0.20341237250502794  1.0000
  C   C38       1.0  0.4897692908688853  0.47885763774701223  0.2965884170709003  1.0000
  C   C39       1.0  0.0102289633874619  0.9788575272079996  0.7965880520994518  1.0000
  C   C40       1.0  0.5102323359406354  0.5211412718848082  0.7034120075335225  1.0000
  C   C41       1.0  0.12356705799783901  0.9508040243337418  0.2177189937764012  1.0000
  C   C42       1.0  0.6235663137118194  0.5491947949339249  0.28228055638810906  1.0000
  C   C43       1.0  0.8764304009749823  0.04919488561320409  0.7822810272237533  1.0000
  C   C44       1.0  0.3764321872202743  0.4508041156450347  0.717718657403424  1.0000
  C   C45       1.0  0.0085045403920745  0.9480260204972312  0.25102315454715557  1.0000
  C   C46       1.0  0.5085038096633808  0.5519723444951409  0.24897678934817694  1.0000
  C   C47       1.0  0.9914918766206283  0.0519720675811257  0.748976438473072  1.0000
  C   C48       1.0  0.49149364930939754  0.44802656513590483  0.7510236352562956  1.0000
  C   C49       1.0  0.545969333553728  0.3982981011005933  0.4242940053125111  1.0000
  C   C50       1.0  0.04596926950748781  0.10170075372921873  0.07570679318983763  1.0000
  C   C51       1.0  0.4540302093374251  0.6017008085308363  0.575706419291933  1.0000
  C   C52       1.0  0.9540313153428956  0.8982981562183171  0.9242932278102886  1.0000
  C   C53       1.0  0.5183646192948217  0.31992935381043  0.3812451484320364  1.0000
  C   C54       1.0  0.0183647343975508  0.1800703135512336  0.11875486779255344  1.0000
  C   C55       1.0  0.4816349235963314  0.6800695558209996  0.6187552761724078  1.0000
  C   C56       1.0  0.9816348084940996  0.8199290071723554  0.8812455689997096  1.0000
  C   C57       1.0  0.6215123643889982  0.3490244936710312  0.35575257656303455  1.0000
  C   C58       1.0  0.12151136243966221  0.1509752118028302  0.144247841191202  1.0000
  C   C59       1.0  0.37848822046183267  0.6509748270527426  0.6442478602292213  1.0000
  C   C60       1.0  0.878488180451491  0.8490236978285992  0.8557525834132423  1.0000
  C   C61       1.0  0.3030167848702945  0.43716152025777427  0.5608961328364686  1.0000
  C   C62       1.0  0.8030181247894319  0.062838686926149  0.9391035898307792  1.0000
  C   C63       1.0  0.6969827580219743  0.5628382125056817  0.4391031053306876  1.0000
  C   C64       1.0  0.19698141810319209  0.9371614559817445  0.06089687133711411  1.0000
  C   C65       1.0  0.17724196955323632  0.4986881572181687  0.5215710187281247  1.0000
  C   C66       1.0  0.6772431536937802  0.001312413567895  0.9784295258653516  1.0000
  C   C67       1.0  0.8227586152995202  0.5013128075583211  0.47842987041970286  1.0000
  C   C68       1.0  0.3227595150757879  0.9986873173007069  0.021572133927627114  1.0000
  C   C69       1.0  0.19449780632644584  0.4545451472749847  0.48604311800746564  1.0000
  C   C70       1.0  0.694500234467384  0.04545499711466051  0.013956503257929903  1.0000
  C   C71       1.0  0.8054996526478534  0.5454549959484254  0.5139569395561382  1.0000
  C   C72       1.0  0.3055024343022623  0.954544734385756  0.9860443493264273  1.0000
  C   C73       1.0  0.14105552639261992  0.2860849387321879  0.40118688316859163  1.0000
  C   C74       1.0  0.6410572992547898  0.2139131299704147  0.09881308183695132  1.0000
  C   C75       1.0  0.8589429745388983  0.7139135601228049  0.5988131256437371  1.0000
  C   C76       1.0  0.3589432855945632  0.7860849574769091  0.9011873183918484  1.0000
  C   C77       1.0  0.015471344178870102  0.31887047900421817  0.4676302765128782  1.0000
  C   C78       1.0  0.5154720101588879  0.1811283650953328  0.0323697153942746  1.0000
  C   C79       1.0  0.9845281987128586  0.6811288423511784  0.53236935307077  1.0000
  C   C80       1.0  0.48452753273222265  0.8188705442201963  0.9676311128144806  1.0000
  C   C81       1.0  0.9272762592225232  0.297023198896774  0.42858677815524987  1.0000
  C   C82       1.0  0.42727748104693564  0.20297620908365133  0.07141402486542602  1.0000
  C   C83       1.0  0.07272328366862978  0.7029757107346625  0.5714136464492015  1.0000
  C   C84       1.0  0.5727231038043427  0.7970235224163744  0.9285868277189524  1.0000
  C   C85       1.0  0.3820679614797556  0.2871781005541507  0.5886954192421996  1.0000
  C   C86       1.0  0.8820686250973536  0.21282213608064643  0.9113043018350454  1.0000
  C   C87       1.0  0.6179315814134513  0.7128224540777025  0.4113042469048978  1.0000
  C   C88       1.0  0.117930917794375  0.787177185274757  0.08869532774859583  1.0000
  C   C89       1.0  0.5334646089917925  0.263455910144785  0.5267271920535137  1.0000
  C   C90       1.0  0.033464786248572395  0.236543785523466  0.9732725238476052  1.0000
  C   C91       1.0  0.4665359758601042  0.7365442333951149  0.47327246190575073  1.0000
  C   C92       1.0  0.9665368405620144  0.7634559469244808  0.026727117923833515  1.0000
  C   C93       1.0  0.5631218545842601  0.2351739801474793  0.5726703559028722  1.0000
  C   C94       1.0  0.06312419313231742  0.2648253154780065  0.927329347213899  1.0000
  C   C95       1.0  0.43687664634877166  0.7648257522998846  0.4273292858686022  1.0000
  C   C96       1.0  0.9368763917181013  0.7351735947854294  0.07267027018192351  1.0000
  C   C97       1.0  0.1852220103441411  0.24742496354306806  0.7451840872546072  1.0000
  C   C98       1.0  0.6852228017371899  0.25257519943968276  0.7548160413862348  1.0000
  C   C99       1.0  0.8147764905889403  0.752574769220196  0.254815150912556  1.0000
  C   C100      1.0  0.31477882507451227  0.7474253561402832  0.24518241394790863  1.0000
  C   C101      1.0  0.22202201863252924  0.3287130501000277  0.7812715928405397  1.0000
  C   C102      1.0  0.7220205385140163  0.171287538316335  0.7187277400393484  1.0000
  C   C103      1.0  0.7779785662194101  0.6712870937557796  0.21872765751442108  1.0000
  C   C104      1.0  0.2779779624206711  0.8287134286711081  0.28127032387833856  1.0000
  C   C105      1.0  0.33588626201271415  0.3140486950746464  0.750242107141226  1.0000
  C   C106      1.0  0.8358868945801561  0.18595152467077716  0.7497572112605938  1.0000
  C   C107      1.0  0.6641132808795476  0.6859510376888168  0.24975713102592326  1.0000
  C   C108      1.0  0.16411264831268108  0.8140486198166456  0.2502412318857594  1.0000
  C   C109      1.0  0.6289911734503163  0.9003849917501939  0.29331400058304524  1.0000
  C   C110      1.0  0.12899420317025093  0.5996142399993047  0.206686368868759  1.0000
  C   C111      1.0  0.3710073274821468  0.09961432897319611  0.7066864362092248  1.0000
  C   C112      1.0  0.8710074236392701  0.4003846696325156  0.7933140557356638  1.0000
  C   C113      1.0  0.6656514358049251  0.8829974899373882  0.37782739496802986  1.0000
  C   C114      1.0  0.16565035689888669  0.617000522192889  0.12217293718300233  1.0000
  C   C115      1.0  0.3343491490454582  0.11700142001014059  0.6221726260320963  1.0000
  C   C116      1.0  0.8343481440320986  0.38299756525404405  0.8778274630458256  1.0000
  C   C117      1.0  0.7011687641305854  0.9369520193571502  0.369561477326755  1.0000
  C   C118      1.0  0.20116859600216233  0.5630460053736854  0.1304396613184977  1.0000
  C   C119      1.0  0.2988307787600348  0.0630464788662195  0.6304393386941811  1.0000
  C   C120      1.0  0.7988309468879677  0.43695208175753203  0.8695611425146268  1.0000
  C   C121      1.0  0.4803775874935995  0.8950143553149843  0.12836294641581966  1.0000
  C   C122      1.0  0.9803780005608832  0.6049928199915301  0.37163522591101383  1.0000
  C   C123      1.0  0.5196229973617007  0.1049886655540817  0.8716371964624728  1.0000
  C   C124      1.0  0.019623626255700796  0.395011846194059  0.6283637549056067  1.0000
  C   C125      1.0  0.7100618544760238  0.8864087110511533  0.08594147991909301  1.0000
  C   C126      1.0  0.2100627909131347  0.6135983651272241  0.4140546798232308  1.0000
  C   C127      1.0  0.2899397723380517  0.1135938993577668  0.914057843562759  1.0000
  C   C128      1.0  0.7899388359036125  0.38640630232200107  0.5859426865761536  1.0000
  C   C129      1.0  0.8282221418296204  0.9155924832886131  0.11633790306262175  1.0000
  C   C130      1.0  0.3282188466866743  0.5844121694096743  0.3836593919891343  1.0000
  C   C131      1.0  0.1717794849824443  0.08440848243579069  0.8836617752722661  1.0000
  C   C132      1.0  0.6717806962091616  0.41559044194658407  0.6163387206798135  1.0000
  C   C133      1.0  0.6203407403011667  0.814570139870348  0.14867075699020663  1.0000
  C   C134      1.0  0.12034290406665352  0.6854389573951563  0.35132667630873743  1.0000
  C   C135      1.0  0.3796577606368317  0.18543370381445354  0.85132860305513  1.0000
  C   C136      1.0  0.8796587227519339  0.3145673534749562  0.6486719496548475  1.0000
  C   C137      1.0  0.5678967945510678  0.7649811186379268  0.11541518769514883  1.0000
  C   C138      1.0  0.067894902590389  0.7350254912719553  0.3845837879490049  1.0000
  C   C139      1.0  0.4321027483441496  0.23502108067845034  0.8845841235989058  1.0000
  C   C140      1.0  0.9321035983491226  0.2649795860052109  0.6154152050554701  1.0000
  N   N1        1.0  0.14840439403205608  0.21722017567122257  0.283916745954933  1.0000
  N   N2        1.0  0.6484042239608812  0.28277954045340437  0.21608286404977414  1.0000
  N   N3        1.0  0.8515961908183273  0.782778734276313  0.7160832750451932  1.0000
  N   N4        1.0  0.3515963608904826  0.7172201916784359  0.7839171813259825  1.0000
  N   N5        1.0  0.3389693703985799  0.22876326529405586  0.23331525121864874  1.0000
  N   N6        1.0  0.8389691621571627  0.2712365215108008  0.2666847585574104  1.0000
  N   N7        1.0  0.6610322564113886  0.7712360551140095  0.7666855891778966  1.0000
  N   N8        1.0  0.16103246465342377  0.7287632109371386  0.7333148832140282  1.0000
  N   N9        1.0  0.8662131339759398  0.16481041091944354  0.3372047364027397  1.0000
  N   N10       1.0  0.36621361219190623  0.3351877422985722  0.1627944168654594  1.0000
  N   N11       1.0  0.1337884928327639  0.8351876777916942  0.6627940494088095  1.0000
  N   N12       1.0  0.6337880146172096  0.6648107568729104  0.8372051883425301  1.0000
  N   N13       1.0  0.7829542424611446  0.0795829290628944  0.3239704965440212  1.0000
  N   N14       1.0  0.28295492245351284  0.420415603912801  0.1760290741909429  1.0000
  N   N15       1.0  0.2170473843484189  0.920415980884833  0.6760295244560909  1.0000
  N   N16       1.0  0.7170467043560508  0.5795833060349266  0.8239709468091759  1.0000
  N   N17       1.0  0.6135826971505408  0.0391226021675237  0.22060059323658276  1.0000
  N   N18       1.0  0.11358449480105288  0.4608758661284397  0.2794009989265973  1.0000
  N   N19       1.0  0.38641580378084933  0.960875895739747  0.7794006263886788  1.0000
  N   N20       1.0  0.8864171320074021  0.5391222206872615  0.7206002085108097  1.0000
  N   N21       1.0  0.4256674575845594  0.0475323517912472  0.1682348447572721  1.0000
  N   N22       1.0  0.9256697546811382  0.4524670552741057  0.33176636190006553  1.0000
  N   N23       1.0  0.5743310433483089  0.9524673793924877  0.8317664114314384  1.0000
  N   N24       1.0  0.07433187212834011  0.547531854041807  0.6682344663086682  1.0000
  N   N25       1.0  0.9241595713833773  0.9927079980729732  0.24158669731649957  1.0000
  N   N26       1.0  0.42415924297998225  0.5072909319187175  0.2584144612192318  1.0000
  N   N27       1.0  0.07583788758891788  0.007290500465913402  0.7584137151001471  1.0000
  N   N28       1.0  0.5758402999111283  0.4927079773968046  0.7415863669895231  1.0000
  N   N29       1.0  0.1106239001792275  0.9975462563034229  0.18781705154060555  1.0000
  N   N30       1.0  0.6106261634202852  0.5024537907873992  0.31218334265627595  1.0000
  N   N31       1.0  0.8893725168343708  0.0024526533274241  0.8121833730638742  1.0000
  N   N32       1.0  0.38937546339075624  0.49754635243678547  0.6878167149072922  1.0000
  N   N33       1.0  0.6385640830144297  0.3985635398527876  0.38351832602439373  1.0000
  N   N34       1.0  0.13856400989347148  0.10143534978966778  0.11648206701122632  1.0000
  N   N35       1.0  0.36143545987676623  0.6014353700945562  0.6164816949757467  1.0000
  N   N36       1.0  0.8614355329971843  0.8985631487496092  0.8835183454053992  1.0000
  N   N37       1.0  0.4705574815552324  0.3516624177310561  0.42466871327420824  1.0000
  N   N38       1.0  0.9705580599571917  0.14833700700575037  0.07533128166731731  1.0000
  N   N39       1.0  0.5294410193772308  0.6483369029923337  0.5753317235180689  1.0000
  N   N40       1.0  0.029443566852371796  0.8516619029419773  0.924668739332802  1.0000
  N   N41       1.0  0.24650201999267546  0.4873117675849699  0.5688226147715199  1.0000
  N   N42       1.0  0.7465032412093748  0.012688007135956502  0.9311775004489463  1.0000
  N   N43       1.0  0.7534985648586884  0.5126879645468705  0.4311774306042437  1.0000
  N   N44       1.0  0.2534963016826808  0.9873117240479699  0.0688237557397571  1.0000
  N   N45       1.0  0.27450771896836557  0.41569096695359775  0.5114481636015995  1.0000
  N   N46       1.0  0.7745091001760046  0.0843088185169591  0.9885515474512518  1.0000
  N   N47       1.0  0.725490781965206  0.5843091769018257  0.48855108675337544  1.0000
  N   N48       1.0  0.225492526634504  0.9156909132991732  0.011448901528808609  1.0000
  N   N49       1.0  0.15088435310616427  0.31171893018002805  0.4498352233708119  1.0000
  N   N50       1.0  0.6508850325644531  0.1882795532763167  0.05016475362486971  1.0000
  N   N51       1.0  0.8491162317451993  0.6882808019518126  0.5501648220049518  1.0000
  N   N52       1.0  0.34911555228543284  0.8117189455790668  0.9498352551874378  1.0000
  N   N53       1.0  0.0081640417523374  0.2763224108452889  0.3865715878020239  1.0000
  N   N54       1.0  0.5081658350175148  0.2236764305320946  0.1134284042520903  1.0000
  N   N55       1.0  0.9918355011383682  0.7236760880098956  0.6134284210102977  1.0000
  N   N56       1.0  0.4918357917919636  0.7763224787838183  0.8865724239566434  1.0000
  N   N57       1.0  0.41845006656764383  0.29626347830551947  0.5371932504725407  1.0000
  N   N58       1.0  0.9184496557665227  0.2037363607913036  0.9628064576851189  1.0000
  N   N59       1.0  0.5815505182842527  0.7037366652343806  0.46280640348672364  1.0000
  N   N60       1.0  0.08154884516549292  0.7962625491558412  0.03719356331502871  1.0000
  N   N61       1.0  0.4669719592621959  0.2504947438426726  0.611736684184841  1.0000
  N   N62       1.0  0.9669727156734068  0.2495047022393423  0.8882630108090412  1.0000
  N   N63       1.0  0.5330265416708359  0.7495049886046914  0.38826295758663326  1.0000
  N   N64       1.0  0.03302682721782451  0.7504942080239092  0.11173660658678843  1.0000
  N   N65       1.0  0.3119211411556719  0.2624172457452687  0.7275934941359525  1.0000
  N   N66       1.0  0.8119208509730739  0.2375825533476643  0.7724066197687096  1.0000
  N   N67       1.0  0.6880784017365471  0.737582486702287  0.27240614763551463  1.0000
  N   N68       1.0  0.18807973387841773  0.7624171797318979  0.2275922147941216  1.0000
  N   N69       1.0  0.1269035978998119  0.28619135552591507  0.7778447416796654  1.0000
  N   N70       1.0  0.6269022191085014  0.21380919713761412  0.7221549967177058  1.0000
  N   N71       1.0  0.8730959449928618  0.7138087876978859  0.2221553158839171  1.0000
  N   N72       1.0  0.37309628182564575  0.7861913584417691  0.2778434586164735  1.0000
  N   N73       1.0  0.6200823703575935  0.8600947732503244  0.3292790003838705  1.0000
  N   N74       1.0  0.120082378323481  0.639904043771523  0.1707217606636533  1.0000
  N   N75       1.0  0.3799171725340572  0.1399045474732574  0.6707214364083927  1.0000
  N   N76       1.0  0.8799171645670968  0.3600944541359397  0.8292794589615939  1.0000
  N   N77       1.0  0.6775777846851482  0.9477057181837409  0.3158541848985977  1.0000
  N   N78       1.0  0.17757966355786442  0.5522935313508769  0.1841465871802798  1.0000
  N   N79       1.0  0.3224207162473078  0.05229360253964901  0.6841462518936795  1.0000
  N   N80       1.0  0.8224209212924335  0.44770537796484444  0.8158542410284683  1.0000
  N   N81       1.0  0.6000726152716708  0.866404434788528  0.12119212632973132  1.0000
  N   N82       1.0  0.1000736070067347  0.6336030121366676  0.3788032406040785  1.0000
  N   N83       1.0  0.3999279695833025  0.13359817625201487  0.878806389943513  1.0000
  N   N84       1.0  0.8999269778513649  0.3664020667204184  0.621193734378828  1.0000
  O   O1        1.0  0.38223230633812477  0.8811594799898759  0.1576577496721541  1.0000
  O   O2        1.0  0.8822275489184719  0.6188480688954883  0.3423416476295388  1.0000
  O   O3        1.0  0.6177693204773435  0.11884436306369393  0.8423424175817688  1.0000
  O   O4        1.0  0.1177678261439468  0.3811574191573398  0.6576577611670872  1.0000
