data_image0
_chemical_formula_structural       Zn2H28C31N2O10
_chemical_formula_sum              "Zn2 H28 C31 N2 O10"
_cell_length_a       9.735516657189672
_cell_length_b       11.040426814803938
_cell_length_c       13.805306042880037
_cell_angle_alpha    86.01473370722064
_cell_angle_beta     78.82576357965759
_cell_angle_gamma    88.50916058092392

_space_group_name_H-M_alt    "P 1"
_space_group_IT_number       1

loop_
  _space_group_symop_operation_xyz
  'x, y, z'

loop_
  _atom_site_type_symbol
  _atom_site_label
  _atom_site_symmetry_multiplicity
  _atom_site_fract_x
  _atom_site_fract_y
  _atom_site_fract_z
  _atom_site_occupancy
  Zn  Zn1       1.0  0.36061558820659195  0.49334856966571994  0.5019897788999755  1.0000
  Zn  Zn2       1.0  0.6465302254955388  0.49106345523880884  0.49438096817776506  1.0000
  H   H1        1.0  0.17451064563744006  0.5167144770671541  0.34627023445303695  1.0000
  H   H2        1.0  0.17274767761242057  0.9020294996010139  0.4723339325082135  1.0000
  H   H3        1.0  0.9139689752420421  0.5204797855849677  0.3469212593173124  1.0000
  H   H4        1.0  0.02700016796633521  0.43633247542237547  0.13938152191663986  1.0000
  H   H5        1.0  0.048415498825953286  0.5937766998225058  0.15084703601144156  1.0000
  H   H6        1.0  0.9468136891580415  0.5457460392409245  0.06738815247197034  1.0000
  H   H7        1.0  0.186623421052893  0.615023822696905  0.9764607895557089  1.0000
  H   H8        1.0  0.16131317777780643  0.4610109804747322  0.9611030232827885  1.0000
  H   H9        1.0  0.294189179048402  0.3980160075805443  0.09365525395615745  1.0000
  H   H10       1.0  0.31352659237244745  0.5496629480033803  0.11835644613630339  1.0000
  H   H11       1.0  0.772820493525657  0.6890550740179435  0.6509548361924329  1.0000
  H   H12       1.0  0.08125165795397749  0.374136830849352  0.7186711640116241  1.0000
  H   H13       1.0  0.9271466424850632  0.6929966455850189  0.70370327349692  1.0000
  H   H14       1.0  0.7796886155731856  0.7358185104454478  0.867769109054137  1.0000
  H   H15       1.0  0.7462710143161359  0.8463581124060509  0.7745284323629135  1.0000
  H   H16       1.0  0.6251054869312965  0.7271617587893926  0.8173569858765574  1.0000
  H   H17       1.0  0.751828456148658  0.20566022588318586  0.3318223952912759  1.0000
  H   H18       1.0  0.8113194979119882  0.05344703268062288  0.3079924722154884  1.0000
  H   H19       1.0  0.0359378232522403  0.09537975613719851  0.36221094829034667  1.0000
  H   H20       1.0  0.009571752208138702  0.20197438116620245  0.2642593643805923  1.0000
  H   H21       1.0  0.9757230384767436  0.24549105186103048  0.3887725103943039  1.0000
  H   H22       1.0  0.07739308308669021  0.5341896771129059  0.7276492864138787  1.0000
  H   H23       1.0  0.8234587309808246  0.37377488572057865  0.7195599279770802  1.0000
  H   H24       1.0  0.6620364397479077  0.5181677331464769  0.9532567756465863  1.0000
  H   H25       1.0  0.7216282074856862  0.8674256161236042  0.47747160823399054  1.0000
  H   H26       1.0  0.18574256256879093  0.1250798828531643  0.5935341545664129  1.0000
  H   H27       1.0  0.18977825235043613  0.1299404926462273  0.46384644377749845  1.0000
  H   H28       1.0  0.16523198548574666  0.8973606931759973  0.6027087267199746  1.0000
  C   C1        1.0  0.49087136462560477  0.726083490323816  0.5087951546598006  1.0000
  C   C2        1.0  0.2183351770877593  0.9386346159657887  0.5308936251824505  1.0000
  C   C3        1.0  0.9092051539645779  0.48342471684725313  0.5826141524399233  1.0000
  C   C4        1.0  0.4570272025249125  0.46755431165834677  0.690339152082984  1.0000
  C   C5        1.0  0.9540760514763489  0.5086557689575315  0.4155116317812996  1.0000
  C   C6        1.0  0.09767040587807681  0.5061543226896532  0.41510290364309543  1.0000
  C   C7        1.0  0.05272392931710362  0.47917015519051614  0.5817964503295343  1.0000
  C   C8        1.0  0.03772735098584691  0.46009218262916823  0.6921890795851977  1.0000
  C   C9        1.0  0.8721698527671999  0.46247463226487173  0.6967117614004363  1.0000
  C   C10       1.0  0.5134516870720917  0.2594741447393715  0.4862412276918702  1.0000
  C   C11       1.0  0.5581016719641809  0.5238192329208713  0.3042424766512539  1.0000
  C   C12       1.0  0.4425319517202836  0.4718439524908573  0.795906634276484  1.0000
  C   C13       1.0  0.5761936596940983  0.5296384480726387  0.19792096890585498  1.0000
  C   C14       1.0  0.5673365911687184  0.5147271891411762  0.010672784522519406  1.0000
  C   C15       1.0  0.44082133351928116  0.49719806840877095  0.9839412790507465  1.0000
  C   C16       1.0  0.4398480024590085  0.4834070504601442  0.8834865873346371  1.0000
  C   C17       1.0  0.5773566297155027  0.5253389798773185  0.10953940086375977  1.0000
  C   C18       1.0  0.3045128166613508  0.49119576442586055  0.05845940875894939  1.0000
  C   C19       1.0  0.1730713030271716  0.5250218942005844  0.016567889736783997  1.0000
  C   C20       1.0  0.041737094066441195  0.5252628540723662  0.09773754623989109  1.0000
  C   C21       1.0  0.8140379581167562  0.6725678552324793  0.7198498266996792  1.0000
  C   C22       1.0  0.736697028842876  0.7498800851566401  0.7998372678724689  1.0000
  C   C23       1.0  0.37713507740245694  0.9359774459584287  0.513014200217917  1.0000
  C   C24       1.0  0.8188919142101129  0.1307326607778734  0.3533835566583006  1.0000
  C   C25       1.0  0.9689676195089091  0.1705974740493588  0.34160346065233665  1.0000
  C   C26       1.0  0.49575809128381104  0.8611431230171576  0.5041778786450095  1.0000
  C   C27       1.0  0.6248600042946535  0.9209245094709001  0.4860505208940466  1.0000
  C   C28       1.0  0.6356470780758556  0.0475978023670365  0.476059893621496  1.0000
  C   C29       1.0  0.514178310156467  0.1241592141961334  0.4880615661354993  1.0000
  C   C30       1.0  0.38735580662754626  0.06217581679037211  0.5067459146430194  1.0000
  C   C31       1.0  0.22994077019097148  0.08156834691697411  0.5249775216129962  1.0000
  N   N1        1.0  0.8564194657729091  0.4965791114593897  0.500373470047215  1.0000
  N   N2        1.0  0.1497794546027649  0.48986000726136336  0.4994759728759772  1.0000
  O   O1        1.0  0.37772262644561033  0.6789670972833406  0.49695698334926414  1.0000
  O   O2        1.0  0.7699619450889584  0.092300944566901  0.45627069947808246  1.0000
  O   O3        1.0  0.6011404710022461  0.6678112318959819  0.5229241225617755  1.0000
  O   O4        1.0  0.3483802636322721  0.49314711284591073  0.6537055502371132  1.0000
  O   O5        1.0  0.5784089127179469  0.44049286627419076  0.6430539531059335  1.0000
  O   O6        1.0  0.3929164344486652  0.30993359070502885  0.508890849987388  1.0000
  O   O7        1.0  0.6291604125596846  0.3156668133296492  0.46375158943202166  1.0000
  O   O8        1.0  0.4332042959926666  0.5020425110311635  0.3502278282357949  1.0000
  O   O9        1.0  0.6645747552308093  0.5388299208161483  0.34302307612343697  1.0000
  O   O10       1.0  0.7922565618644342  0.5471254943597827  0.7549509224156593  1.0000
