data_image0
_chemical_formula_structural       Cu2H20C28Br8O16
_chemical_formula_sum              "Cu2 H20 C28 Br8 O16"
_cell_length_a       4.526832497061896
_cell_length_b       13.080430157655492
_cell_length_c       16.420447124616825
_cell_angle_alpha    107.06122678517258
_cell_angle_beta     97.88592704717114
_cell_angle_gamma    90.02463529053766

_space_group_name_H-M_alt    "P 1"
_space_group_IT_number       1

loop_
  _space_group_symop_operation_xyz
  'x, y, z'

loop_
  _atom_site_type_symbol
  _atom_site_label
  _atom_site_symmetry_multiplicity
  _atom_site_fract_x
  _atom_site_fract_y
  _atom_site_fract_z
  _atom_site_occupancy
  Cu  Cu1       1.0  0.5000031742404617  0.4999989300273739  7.815532824822737e-07  1.0000
  Cu  Cu2       1.0  0.5000076760944198  6.646625508008198e-07  0.9999998625454156  1.0000
  H   H1        1.0  0.6509366237296847  0.6794119238623608  0.10981122503891072  1.0000
  H   H2        1.0  0.5421003671069756  0.8207904124530788  0.8901841428436512  1.0000
  H   H3        1.0  0.34907321232262234  0.32058711739665563  0.8901891286679557  1.0000
  H   H4        1.0  0.4579005488854194  0.17920862453983938  0.10981526238139588  1.0000
  H   H5        1.0  0.8932631258457704  0.638822495979575  0.04316346225253654  1.0000
  H   H6        1.0  0.8505537181105114  0.8614093703588498  0.9569695860460641  1.0000
  H   H7        1.0  0.10674448072572323  0.3611765423516431  0.9568361971737004  1.0000
  H   H8        1.0  0.1494492380388408  0.13858806870374712  0.0430301359299392  1.0000
  H   H9        1.0  0.7682180716817655  0.30825510742553053  0.0828794504047679  1.0000
  H   H10       1.0  0.686311764497134  0.1914150557043968  0.9169765979333419  1.0000
  H   H11       1.0  0.2317872093225476  0.6917431325122294  0.9171205450697996  1.0000
  H   H12       1.0  0.31369119165222514  0.8085823833581997  0.0830231240426613  1.0000
  H   H13       1.0  0.8803261083340177  0.4486861571894067  0.4228434662178627  1.0000
  H   H14       1.0  0.4594536649249505  0.0513042968084605  0.577020763050527  1.0000
  H   H15       1.0  0.1196684003528645  0.5513152822340928  0.5771568606473991  1.0000
  H   H16       1.0  0.5405495737857535  0.948695548504716  0.42298074431378296  1.0000
  H   H17       1.0  0.3368633986221  0.5796336979215013  0.2583741371964479  1.0000
  H   H18       1.0  0.07992579030887728  0.9202353872824246  0.7412809990766647  1.0000
  H   H19       1.0  0.6631202445098481  0.42037013559527037  0.7416251132008752  1.0000
  H   H20       1.0  0.9200821002484006  0.0797660523359767  0.25871922664408226  1.0000
  C   C1        1.0  0.1099115780523903  0.4363681978648941  0.1077312285529857  1.0000
  C   C2        1.0  0.0031323392258428982  0.063401675271983  0.892075505206165  1.0000
  C   C3        1.0  0.8900937036641424  0.5636300395911675  0.8922681573746871  1.0000
  C   C4        1.0  0.9968802024657822  0.9366013611333343  0.10792404841790669  1.0000
  C   C5        1.0  0.039211464092637996  0.44268702505075197  0.19453070428622954  1.0000
  C   C6        1.0  0.8462575626300152  0.05714824701330912  0.805274035639833  1.0000
  C   C7        1.0  0.9607806243651353  0.557312815550219  0.8054697698625262  1.0000
  C   C8        1.0  0.15373908230017716  0.9428523899455284  0.19472557764742504  1.0000
  C   C9        1.0  0.8348784056845349  0.36624911208272687  0.2038444561726038  1.0000
  C   C10       1.0  0.6328273207954994  0.1336039886313998  0.7960161601763643  1.0000
  C   C11       1.0  0.1651204701509101  0.6337515228405124  0.7961546323014872  1.0000
  C   C12       1.0  0.3671689440625415  0.866393451574602  0.2039839171453508  1.0000
  C   C13       1.0  0.7842330119414174  0.3696427813448153  0.2870779049933105  1.0000
  C   C14       1.0  0.499151336567927  0.1302868272098507  0.7128075230672051  1.0000
  C   C15       1.0  0.21575898399107973  0.6303562513820039  0.7129205517499172  1.0000
  C   C16       1.0  0.5008499573599678  0.8697154139810053  0.2871932467640832  1.0000
  C   C17       1.0  0.9234910970244744  0.44808242346666566  0.3591215811485569  1.0000
  C   C18       1.0  0.5663227796653417  0.0519155175577808  0.6407144378852861  1.0000
  C   C19       1.0  0.07649216745976159  0.5519182083338735  0.6408769141894197  1.0000
  C   C20       1.0  0.4336720137195371  0.9480883206711965  0.35928584572758376  1.0000
  C   C21       1.0  0.12003668056469512  0.5239960688195993  0.3482022604942827  1.0000
  C   C22       1.0  0.773485454025135  0.9759262983869307  0.6515711028617518  1.0000
  C   C23       1.0  0.8799511382553078  0.4760053667839017  0.6517972026228946  1.0000
  C   C24       1.0  0.22651631748571083  0.024079930059031102  0.3484269535123232  1.0000
  C   C25       1.0  0.18056018049255582  0.5217807523570173  0.26713206502485315  1.0000
  C   C26       1.0  0.9149837887328117  0.9781106685569156  0.7326111564160698  1.0000
  C   C27       1.0  0.8194343289065316  0.47822068458478373  0.7328676522935069  1.0000
  C   C28       1.0  0.08501731943231762  0.021889959367321403  0.2673861881510575  1.0000
  Br  Br1       1.0  0.3140294220632995  0.630567516401058  0.447305056355745  1.0000
  Br  Br2       1.0  0.867672143421274  0.8693011243852595  0.552365052300317  1.0000
  Br  Br3       1.0  0.6859538417087097  0.3694331178811794  0.5526940485291334  1.0000
  Br  Br4       1.0  0.1323244061347779  0.1306987146262131  0.4476349817690064  1.0000
  Br  Br5       1.0  0.5322563992436714  0.2616599798006476  0.3005821029217087  1.0000
  Br  Br6       1.0  0.2336914322101791  0.2382490145152615  0.6994129330501977  1.0000
  Br  Br7       1.0  0.46774404272686365  0.7383350575286727  0.6994169680260568  1.0000
  Br  Br8       1.0  0.7662983271193227  0.7617500401007506  0.30059092488138367  1.0000
  O   O1        1.0  0.3280081075042318  0.4943902711768118  0.10231163911742411  1.0000
  O   O2        1.0  0.22653145830619092  0.005441390683138499  0.8975417925475071  1.0000
  O   O3        1.0  0.671997647521941  0.5056119684245457  0.8976886906344247  1.0000
  O   O4        1.0  0.7734717832533846  0.9945584447032446  0.10245727662920254  1.0000
  O   O5        1.0  0.94897921252165  0.37079783540245614  0.04198187597224751  1.0000
  O   O6        1.0  0.90741208289176  0.1288958485162013  0.9578013855090288  1.0000
  O   O7        1.0  0.05101975726350361  0.629203602431538  0.9580180108135748  1.0000
  O   O8        1.0  0.09259096720730749  0.8711023934571571  0.042199134778705655  1.0000
  O   O9        1.0  0.7605203274067804  0.6168658093725554  0.08006208447127251  1.0000
  O   O10       1.0  0.681368217720653  0.8833488370201509  0.9199892886771578  1.0000
  O   O11       1.0  0.239496199224611  0.38313323322476833  0.9199385234367766  1.0000
  O   O12       1.0  0.3186369693339445  0.11664860000684743  0.0800099084856782  1.0000
  O   O13       1.0  0.6955743448013865  0.29031260491213123  0.1342099863169253  1.0000
  O   O14       1.0  0.5627404509275992  0.20943748838318046  0.8656618540760874  1.0000
  O   O15       1.0  0.3044287045854617  0.7096856395429255  0.8657911435177112  1.0000
  O   O16       1.0  0.43726036897843573  0.7905607531440779  0.13433858147791963  1.0000
