data_image0
_chemical_formula_structural       Co2H40C38N8O8
_chemical_formula_sum              "Co2 H40 C38 N8 O8"
_cell_length_a       9.764473536641724
_cell_length_b       9.948804746069051
_cell_length_c       12.154983477162371
_cell_angle_alpha    82.75270728310541
_cell_angle_beta     76.51029508538825
_cell_angle_gamma    61.85751170992552

_space_group_name_H-M_alt    "P 1"
_space_group_IT_number       1

loop_
  _space_group_symop_operation_xyz
  'x, y, z'

loop_
  _atom_site_type_symbol
  _atom_site_label
  _atom_site_symmetry_multiplicity
  _atom_site_fract_x
  _atom_site_fract_y
  _atom_site_fract_z
  _atom_site_occupancy
  Co  Co1       1.0  0.40714569902758085  0.9739512079754387  0.19000269474981488  1.0000
  Co  Co2       1.0  0.5928541418745609  0.026048620729298495  0.8099978293693939  1.0000
  H   H1        1.0  0.0850193853037808  0.1752780753513505  0.955467473472382  1.0000
  H   H2        1.0  0.9149826102419567  0.8247194841813508  0.0445328800664909  1.0000
  H   H3        1.0  0.8622592969131377  0.5032011410420267  0.21930275534105448  1.0000
  H   H4        1.0  0.13774103853560152  0.49679983866123206  0.7806975597320974  1.0000
  H   H5        1.0  0.13692697473555174  0.15400675184781673  0.3601687110756303  1.0000
  H   H6        1.0  0.8630733623568788  0.8459942312082942  0.6398299579313901  1.0000
  H   H7        1.0  0.6464946967945336  0.579793642702995  0.9325311912983456  1.0000
  H   H8        1.0  0.3535072399321423  0.4202062078850871  0.06746894037255664  1.0000
  H   H9        1.0  0.47793834176438593  0.7180516710048932  0.39970340255924003  1.0000
  H   H10       1.0  0.5220604512254852  0.28194814675816815  0.6002973177841329  1.0000
  H   H11       1.0  0.02107028189733741  0.07044719097294208  0.8474188227538237  1.0000
  H   H12       1.0  0.9789285119143754  0.9295526284665456  0.1525810745564797  1.0000
  H   H13       1.0  0.8948572107558946  0.10565747757205907  0.7520444661648329  1.0000
  H   H14       1.0  0.10514263096808223  0.8943423528090975  0.2479552349213138  1.0000
  H   H15       1.0  0.8163856274909806  0.12550275331739866  0.89884137348394  1.0000
  H   H16       1.0  0.1836131646770414  0.8744970627692363  0.1011601698924949  1.0000
  H   H17       1.0  0.3611681348908818  0.6491178885343697  0.6201990843077213  1.0000
  H   H18       1.0  0.6388296101867181  0.3508819182870154  0.3798018322598012  1.0000
  H   H19       1.0  0.16766538006589135  0.7767916204113587  0.6825360297509565  1.0000
  H   H20       1.0  0.8323333549267602  0.22321049008350255  0.31746364569138313  1.0000
  H   H21       1.0  0.6780359492469971  0.524590539860064  0.7607892560323251  1.0000
  H   H22       1.0  0.3219659883015281  0.4754093124044444  0.23921005260551453  1.0000
  H   H23       1.0  0.6058319722774144  0.4038826277564381  0.8475412543771345  1.0000
  H   H24       1.0  0.3941683631713318  0.5961183519468206  0.15245906069601745  1.0000
  H   H25       1.0  0.7054381517133593  0.3550594552776971  0.705608434949241  1.0000
  H   H26       1.0  0.29456378583515896  0.6449403969868112  0.29439087368859174  1.0000
  H   H27       1.0  0.05356809714626112  0.08985987043550377  0.5755432248156682  1.0000
  H   H28       1.0  0.9464301449434771  0.9101410924136883  0.4244550136065968  1.0000
  H   H29       1.0  0.9669280880410516  0.4538991944683131  0.7179780941182585  1.0000
  H   H30       1.0  0.03307335413902023  0.5460995051212406  0.2820222465987073  1.0000
  H   H31       1.0  0.99174649525024  0.29904532462510497  0.6438501221682319  1.0000
  H   H32       1.0  0.00825599484210223  0.7009533859061249  0.35615002232457743  1.0000
  H   H33       1.0  0.11101077405535166  0.2653661063868569  0.7451533337746882  1.0000
  H   H34       1.0  0.8889890668467899  0.7346337223178806  0.2548471903445275  1.0000
  H   H35       1.0  0.4523460912600326  0.8218979314766341  0.9548570522746191  1.0000
  H   H36       1.0  0.5476537504639438  0.1781018989045222  0.04514264881152741  1.0000
  H   H37       1.0  0.302508620590288  0.7023980116064051  0.8899486073251172  1.0000
  H   H38       1.0  0.6974901740432743  0.2976018095095014  0.11005046695211719  1.0000
  H   H39       1.0  0.44858609254634274  0.9691536200586907  0.6234185171130452  1.0000
  H   H40       1.0  0.5514126424463086  0.030848490436177697  0.37658115832929456  1.0000
  C   C1        1.0  0.9864630166561597  0.28225586362384536  0.9893179014591527  1.0000
  C   C2        1.0  0.013536824245981901  0.717743965080892  0.010682622660063083  1.0000
  C   C3        1.0  0.7427831363419629  0.5581631035398472  0.07969906110347581  1.0000
  C   C4        1.0  0.2572161511945056  0.4418378652217425  0.920301450193833  1.0000
  C   C5        1.0  0.8632251133748026  0.4664173315294845  0.13864097191480343  1.0000
  C   C6        1.0  0.13677522289577854  0.5335836498502001  0.8613585201252792  1.0000
  C   C7        1.0  0.6222203952667231  0.7075188408722394  0.1297623563366557  1.0000
  C   C8        1.0  0.3777810469133484  0.2924798587173142  0.8702379843803103  1.0000
  C   C9        1.0  0.9859810928726771  0.3289079319417567  0.09339577557764774  1.0000
  C   C10       1.0  0.014019795941727966  0.6710919077046568  0.9066045523174114  1.0000
  C   C11       1.0  0.7422558823467469  0.5083685680114414  0.9768729804522923  1.0000
  C   C12       1.0  0.25774605437992903  0.49163128257664085  0.02312715121860981  1.0000
  C   C13       1.0  0.8629327034176627  0.3694188288501862  0.9305084506631547  1.0000
  C   C14       1.0  0.13706818539674975  0.6305810107962201  0.06949187723190418  1.0000
  C   C15       1.0  0.8640736530369466  0.31362883369452277  0.8182801265305955  1.0000
  C   C16       1.0  0.13592723659930786  0.6863710076283097  0.18171937833139404  1.0000
  C   C17       1.0  0.269425307456423  0.8629583297782016  0.5329401834392158  1.0000
  C   C18       1.0  0.7305723788021155  0.13704376809857166  0.46706051126034254  1.0000
  C   C19       1.0  0.37101105367337084  0.8223535122725989  0.4263533279717891  1.0000
  C   C20       1.0  0.6289887880506129  0.1776463181085646  0.5736463731143645  1.0000
  C   C21       1.0  0.9017328103723443  0.14428543628980608  0.8305035118528966  1.0000
  C   C22       1.0  0.09826807926390299  0.8557144050330263  0.16949599300910023  1.0000
  C   C23       1.0  0.2834681051430366  0.7701792724324292  0.6407447501879845  1.0000
  C   C24       1.0  0.7165274844691183  0.22982280188457335  0.35925715999295704  1.0000
  C   C25       1.0  0.7035715656979634  0.4054279913004846  0.7816917337209192  1.0000
  C   C26       1.0  0.2964293231164491  0.5945718483459285  0.21830859417413961  1.0000
  C   C27       1.0  0.1550284056861031  0.012131699296936898  0.5170535120648269  1.0000
  C   C28       1.0  0.8449698347599439  0.987869260199403  0.4829463724235697  1.0000
  C   C29       1.0  0.9918926912400252  0.333661347444199  0.7262306284929922  1.0000
  C   C30       1.0  0.00810979885231697  0.6663373630870237  0.27376951599981686  1.0000
  C   C31       1.0  0.1118163633064668  0.23460092029590376  0.1608293722644305  1.0000
  C   C32       1.0  0.8881850192327009  0.7654000686725977  0.8391715696176337  1.0000
  C   C33       1.0  0.3489428016013464  0.7728990644951209  0.8357130889487723  1.0000
  C   C34       1.0  0.6510543909324298  0.22710188405955012  0.16428699176378106  1.0000
  C   C35       1.0  0.34790143696032055  0.8167789682919064  0.7220052564188253  1.0000
  C   C36       1.0  0.6520957563952976  0.18322198193918374  0.2779940012606589  1.0000
  C   C37       1.0  0.4251766198345874  0.9088483130223038  0.7004322247036473  1.0000
  C   C38       1.0  0.5748216206114591  0.0911526464740362  0.2995676597847493  1.0000
  N   N1        1.0  0.320667556315506  0.9383832104485205  0.35107415044303286  1.0000
  N   N2        1.0  0.6793333333207415  0.06161663087431178  0.6489253544189639  1.0000
  N   N3        1.0  0.1893318255728076  0.05269035088933549  0.408193243267313  1.0000
  N   N4        1.0  0.8106680169730183  0.9473094811682469  0.5918056347857644  1.0000
  N   N5        1.0  0.4236212022129706  0.8356548136132885  0.8752990659666015  1.0000
  N   N6        1.0  0.5763775915987425  0.16434500582619896  0.12470083134370209  1.0000
  N   N7        1.0  0.47140297940001114  0.9188923046634867  0.7940028276712852  1.0000
  N   N8        1.0  0.5285968615021304  0.08110752404124359  0.20599769644793048  1.0000
  O   O1        1.0  0.6320686446530461  0.7483174742411122  0.22026844161896258  1.0000
  O   O2        1.0  0.36793070170248393  0.25168120346509676  0.77973229154631  1.0000
  O   O3        1.0  0.5038749986379897  0.7999420171617969  0.08105317680998067  1.0000
  O   O4        1.0  0.4961253964516601  0.20005667316250705  0.918946537098073  1.0000
  O   O5        1.0  0.2340353450671202  0.11687242691498058  0.11299115377403274  1.0000
  O   O6        1.0  0.7659644941913298  0.8831273984369046  0.8870110164113216  1.0000
  O   O7        1.0  0.0891966358423844  0.27516715530000363  0.26077086018199946  1.0000
  O   O8        1.0  0.9108041941529589  0.7248349754017838  0.7392292458450955  1.0000
