data_image0
_chemical_formula_structural       Zn2H52C60S10N2O38
_chemical_formula_sum              "Zn2 H52 C60 S10 N2 O38"
_cell_length_a       10.669515204532805
_cell_length_b       16.744179684902853
_cell_length_c       18.216338842364955
_cell_angle_alpha    83.8853112775739
_cell_angle_beta     84.67602787816145
_cell_angle_gamma    84.70309383142072

_space_group_name_H-M_alt    "P 1"
_space_group_IT_number       1

loop_
  _space_group_symop_operation_xyz
  'x, y, z'

loop_
  _atom_site_type_symbol
  _atom_site_label
  _atom_site_symmetry_multiplicity
  _atom_site_fract_x
  _atom_site_fract_y
  _atom_site_fract_z
  _atom_site_occupancy
  Zn  Zn1       1.0  0.5207210177135623  0.40232018675374787  0.49789782808813493  1.0000
  Zn  Zn2       1.0  0.496743487850992  0.5928127158709483  0.4985374543007807  1.0000
  H   H1        1.0  0.15463953100992714  0.8849603921790034  0.5117439911132491  1.0000
  H   H2        1.0  0.8374418389762184  0.12333705158466297  0.4652890409352963  1.0000
  H   H3        1.0  0.6469276238638457  0.5649797021390127  0.8567471785156116  1.0000
  H   H4        1.0  0.349254019849532  0.43600940550440714  0.11750994188180636  1.0000
  H   H5        1.0  0.4075594968347928  0.30178300242101136  0.4154415037770676  1.0000
  H   H6        1.0  0.46999443439644745  0.6968664580019706  0.6127793997682573  1.0000
  H   H7        1.0  0.5368660709641659  0.10419476187605875  0.6174184324260351  1.0000
  H   H8        1.0  0.4983439564776547  0.8914168993992815  0.39275591123548276  1.0000
  H   H9        1.0  0.12392327579516405  0.7933706459805518  0.6245755556542462  1.0000
  H   H10       1.0  0.8527315580251199  0.21882364214145153  0.3518907203715074  1.0000
  H   H11       1.0  0.8581653875717167  0.6221560853833237  0.48837333422920887  1.0000
  H   H12       1.0  0.1610362459523387  0.38089251655699025  0.4854691129804252  1.0000
  H   H13       1.0  0.49244297062082143  0.16221366874349025  0.3073896966806373  1.0000
  H   H14       1.0  0.37884885389709666  0.09629942716831148  0.2912281685332303  1.0000
  H   H15       1.0  0.49127681803025075  0.0643802193418423  0.3567994059570977  1.0000
  H   H16       1.0  0.27457665543731474  0.10615761033720618  0.4182909796482121  1.0000
  H   H17       1.0  0.2825206778633103  0.20353409700142314  0.370446588125155  1.0000
  H   H18       1.0  0.2840389146429417  0.798173206308796  0.6985836032339278  1.0000
  H   H19       1.0  0.32373572091066194  0.8784747373337891  0.746212731172747  1.0000
  H   H20       1.0  0.2616220997779095  0.9000464477745778  0.6584972268076754  1.0000
  H   H21       1.0  0.5181979091263641  0.8064609394563645  0.6873658198475994  1.0000
  H   H22       1.0  0.49900647626713385  0.908606077156598  0.6507328881825101  1.0000
  H   H23       1.0  0.5115729682441382  0.18067361372365542  0.7256574204494939  1.0000
  H   H24       1.0  0.6646962222958166  0.14167706378231765  0.6912316862288675  1.0000
  H   H25       1.0  0.6489299915397382  0.2258524939373671  0.742802583079218  1.0000
  H   H26       1.0  0.6875103510374103  0.27402396567185855  0.6099126807161708  1.0000
  H   H27       1.0  0.5414801564617449  0.3119673454846036  0.6474775113880893  1.0000
  H   H28       1.0  0.37923467914109193  0.7456826786632004  0.3090672795826706  1.0000
  H   H29       1.0  0.46397676590942893  0.8332351957796432  0.2926294707701515  1.0000
  H   H30       1.0  0.5186472565919615  0.7463920088898917  0.2482067350312177  1.0000
  H   H31       1.0  0.6523676466453736  0.7500576832220458  0.34941238197189506  1.0000
  H   H32       1.0  0.5590115677036495  0.6687685910218233  0.3708997671830474  1.0000
  H   H33       1.0  0.1379327448065553  0.5113710910552598  0.6528572046578488  1.0000
  H   H34       1.0  0.0832973116365423  0.442975239032357  0.3316987658025495  1.0000
  H   H35       1.0  0.2950581618788207  0.595694442860953  0.3511337890541455  1.0000
  H   H36       1.0  0.8786209534370786  0.4314907392744728  0.6418476866833558  1.0000
  H   H37       1.0  0.0772862020315941  0.9687702889276151  0.4188887951828092  1.0000
  H   H38       1.0  0.24455809919814442  0.9516173198131097  0.41638448991209026  1.0000
  H   H39       1.0  0.17117328234134283  0.9838754414009967  0.3338928476440088  1.0000
  H   H40       1.0  0.2380571552465369  0.8391889468884982  0.3347396307954823  1.0000
  H   H41       1.0  0.07558981958484169  0.8561782214977995  0.3345595825095841  1.0000
  H   H42       1.0  0.055134648511362606  0.06606264958497118  0.5312478041373722  1.0000
  H   H43       1.0  0.11685758050132478  0.1279525259595076  0.5906575877202087  1.0000
  H   H44       1.0  0.04955063770885458  0.03750308417589568  0.6284689756559985  1.0000
  H   H45       1.0  0.8979687643636112  0.15718019176497927  0.6521515291270319  1.0000
  H   H46       1.0  0.8362594328090653  0.09589355727896985  0.5935504480910864  1.0000
  H   H47       1.0  0.4439853256333565  0.3877979036779847  0.9964559116458955  1.0000
  H   H48       1.0  0.5330875146550936  0.6809141302652929  0.9914306150856617  1.0000
  H   H49       1.0  0.16766748942217893  0.36757109010735417  0.8235205799015404  1.0000
  H   H50       1.0  0.8420286426136772  0.5748497388933625  0.1524016731387903  1.0000
  H   H51       1.0  0.8722334069178787  0.6138558544346393  0.7367163458819447  1.0000
  H   H52       1.0  0.1492693716621645  0.35000106428766725  0.23512512046644216  1.0000
  C   C1        1.0  0.49673334730227475  0.49321263859665965  0.3400443663888453  1.0000
  C   C2        1.0  0.4957829936609883  0.4949117944661978  0.6423639524228049  1.0000
  C   C3        1.0  0.8806519022747137  0.49479067849461694  0.48262287146825855  1.0000
  C   C4        1.0  0.1377331925903746  0.507822915175545  0.4916212246420315  1.0000
  C   C5        1.0  0.9656918605335463  0.4253854906379714  0.48100093868982435  1.0000
  C   C6        1.0  0.05391009806102431  0.5776825018633857  0.4926147621432832  1.0000
  C   C7        1.0  0.40006301383078113  0.4493309649920574  0.8511754278590543  1.0000
  C   C8        1.0  0.5729144050637415  0.5649411156594722  0.13286630940962135  1.0000
  C   C9        1.0  0.39940191596296165  0.4501866913973274  0.7738708705249805  1.0000
  C   C10       1.0  0.5856172606123806  0.5480528093949741  0.20956755723013032  1.0000
  C   C11       1.0  0.49110599187680753  0.49013881756113153  0.7264267998445886  1.0000
  C   C12       1.0  0.5040299170284044  0.4980087241503809  0.2549909269087323  1.0000
  C   C13       1.0  0.5828063033989679  0.5283429184097342  0.7577188398842266  1.0000
  C   C14       1.0  0.41774894530656337  0.45903825795617326  0.2196825875445043  1.0000
  C   C15       1.0  0.5778400600630819  0.5335062002585217  0.8331971073092672  1.0000
  C   C16       1.0  0.4138783617868356  0.46861356254962055  0.14352202198118388  1.0000
  C   C17       1.0  0.48479431867863826  0.4956081105957182  0.8807739388848929  1.0000
  C   C18       1.0  0.4916763536142525  0.5208469149792447  0.09838768461165161  1.0000
  C   C19       1.0  0.4828667462408305  0.5043248562190713  0.9571905375781143  1.0000
  C   C20       1.0  0.4884988465791125  0.5179765864852609  0.021312909145734738  1.0000
  C   C21       1.0  0.4068238690917737  0.17647250946645696  0.4568147054760415  1.0000
  C   C22       1.0  0.4672373386937068  0.8238961142496065  0.5766878373098905  1.0000
  C   C23       1.0  0.27579495484182803  0.5090383811668528  0.49634202004124006  1.0000
  C   C24       1.0  0.7414521278037398  0.4909583901192247  0.48335880841089107  1.0000
  C   C25       1.0  0.434232488285737  0.255858694853458  0.45949569485389224  1.0000
  C   C26       1.0  0.4764164033244569  0.7426333065750864  0.5657220708317396  1.0000
  C   C27       1.0  0.5305386011046523  0.2276108028634737  0.5710038849138499  1.0000
  C   C28       1.0  0.5110461973665751  0.766804602625953  0.43662685880195073  1.0000
  C   C29       1.0  0.5075036814328158  0.14714200505719785  0.5719246677951231  1.0000
  C   C30       1.0  0.4917652006579161  0.8493072486266651  0.442525905347999  1.0000
  C   C31       1.0  0.4492875802238674  0.12014010690035797  0.5143682203759994  1.0000
  C   C32       1.0  0.46869691303997035  0.8789040626208969  0.5121588126202923  1.0000
  C   C33       1.0  0.44183015380612295  0.03630135782394459  0.5144772420783992  1.0000
  C   C34       1.0  0.45190717952976206  0.9630642772500827  0.5158303449233799  1.0000
  C   C35       1.0  0.1202641183596782  0.7712943006318439  0.570777352419391  1.0000
  C   C36       1.0  0.8728013638272925  0.23717276366131293  0.40495306972390205  1.0000
  C   C37       1.0  0.09660001412939319  0.6913068996837736  0.5666726968301034  1.0000
  C   C38       1.0  0.9111724692414285  0.3141462376916662  0.4087411685495254  1.0000
  C   C39       1.0  0.09291052229206542  0.6606606649983957  0.4978426052955384  1.0000
  C   C40       1.0  0.9296898263883263  0.34204626774096875  0.47687370100588566  1.0000
  C   C41       1.0  0.11694303688030057  0.7144266612462856  0.43302760877729435  1.0000
  C   C42       1.0  0.9239029742005939  0.285239918753291  0.5405295301960251  1.0000
  C   C43       1.0  0.13713365158567112  0.7965704475940141  0.4362525887021249  1.0000
  C   C44       1.0  0.8970657144190924  0.20474402914884135  0.536383990081866  1.0000
  C   C45       1.0  0.1385264499820522  0.8226117190123643  0.5068296288625547  1.0000
  C   C46       1.0  0.8646304009152175  0.18406497957469264  0.4683924597501772  1.0000
  C   C47       1.0  0.9261561698963662  0.5695963215700387  0.48782230106654356  1.0000
  C   C48       1.0  0.09313603312098448  0.4334954752310337  0.4854758926393429  1.0000
  C   C49       1.0  0.3398450842142893  0.15138691118136893  0.3949584814407956  1.0000
  C   C50       1.0  0.4313348137535159  0.11638175035300688  0.3340597870626992  1.0000
  C   C51       1.0  0.45846684214133404  0.8501479051940206  0.6535707489336885  1.0000
  C   C52       1.0  0.3237737304842128  0.8570188749641258  0.6912812115860375  1.0000
  C   C53       1.0  0.5937795721210931  0.2560729476238065  0.6321904503193139  1.0000
  C   C54       1.0  0.6050396792074508  0.1971329983728153  0.7014716861689079  1.0000
  C   C55       1.0  0.5542058873394851  0.7348423947929419  0.36391432358462333  1.0000
  C   C56       1.0  0.47396784557088273  0.7669887326763527  0.3001816263687118  1.0000
  C   C57       1.0  0.15354981080118074  0.858320720310857  0.3695785431163116  1.0000
  C   C58       1.0  0.1619441974347069  0.945061801333629  0.3863116466298777  1.0000
  C   C59       1.0  0.9110268672927618  0.13620464523249604  0.5969142327646608  1.0000
  C   C60       1.0  0.041141204179084005  0.08905886974626749  0.5860185626619907  1.0000
  S   S1        1.0  0.08235186419733509  0.6384257555371277  0.6571642038930036  1.0000
  S   S2        1.0  0.9383380583029178  0.36530168311052336  0.3182832238321325  1.0000
  S   S3        1.0  0.11536052036270661  0.6755731266124413  0.3437085543945883  1.0000
  S   S4        1.0  0.9601892912184766  0.3077028970519462  0.6315522365695045  1.0000
  S   S5        1.0  0.30316022777087426  0.392119640110259  0.9211343404858638  1.0000
  S   S6        1.0  0.6466620928952268  0.6498299849612221  0.0814252654421566  1.0000
  S   S7        1.0  0.28577059345757766  0.40135082657238985  0.7283507722462799  1.0000
  S   S8        1.0  0.7201874542753544  0.5822281774687139  0.2497892991819981  1.0000
  S   S9        1.0  0.7119033651584559  0.5690757136445442  0.6988205627203071  1.0000
  S   S10       1.0  0.3199132612991704  0.38638588200909385  0.270011102492937  1.0000
  N   N1        1.0  0.4956923616702157  0.2810943729374812  0.5132967861349584  1.0000
  N   N2        1.0  0.4966079061003725  0.7146231180395827  0.49842200548882687  1.0000
  O   O1        1.0  0.5302610275448956  0.427346996560267  0.3751044229287643  1.0000
  O   O2        1.0  0.48510470481495105  0.5664130269511173  0.6121720364208442  1.0000
  O   O3        1.0  0.44956857279762363  0.5585972267605112  0.36486697045412336  1.0000
  O   O4        1.0  0.5137194911895976  0.43031874052960006  0.6126004693799201  1.0000
  O   O5        1.0  0.34082880573854624  0.44200145470256297  0.49558685552480586  1.0000
  O   O6        1.0  0.6741591057004044  0.5578653018048667  0.4783337950056961  1.0000
  O   O7        1.0  0.31680661830579027  0.5774701363127333  0.5005415257969119  1.0000
  O   O8        1.0  0.7011341358920263  0.4211405432153653  0.490658795591763  1.0000
  O   O9        1.0  0.19807851296903317  0.6430005123066421  0.6908665246187197  1.0000
  O   O10       1.0  0.9655299697393784  0.6721857519632549  0.6952212237236209  1.0000
  O   O11       1.0  0.05834161948880025  0.5499561083482828  0.6485546471375583  1.0000
  O   O12       1.0  0.04092645649836162  0.3145694513562985  0.2816660955820396  1.0000
  O   O13       1.0  0.822012886072173  0.378612061428356  0.28423199321058945  1.0000
  O   O14       1.0  0.9896587999727514  0.4483157525282521  0.32577873820898867  1.0000
  O   O15       1.0  0.9901113856548136  0.6538062292110209  0.3371558073302054  1.0000
  O   O16       1.0  0.17374008741369099  0.7298372667038605  0.2866792609249345  1.0000
  O   O17       1.0  0.2009089760886056  0.5931768215768044  0.35024298129806647  1.0000
  O   O18       1.0  0.8597285294540313  0.28262633931439735  0.6852882239841518  1.0000
  O   O19       1.0  0.08831386447747043  0.2750225998696435  0.6393207411355205  1.0000
  O   O20       1.0  0.9626619168787799  0.4016751486084543  0.6302132461427445  1.0000
  O   O21       1.0  0.22112731393819723  0.44817485456321987  0.9612273379647648  1.0000
  O   O22       1.0  0.25280451799093834  0.3263888393759442  0.891114901761881  1.0000
  O   O23       1.0  0.4067524989034865  0.3466210383307312  0.9716976251232691  1.0000
  O   O24       1.0  0.5824279817677648  0.7217841130147348  0.10740358987779079  1.0000
  O   O25       1.0  0.7822148029437556  0.6340899923342177  0.07638378140380547  1.0000
  O   O26       1.0  0.6125217201039631  0.6474432290144773  0.9977695670593787  1.0000
  O   O27       1.0  0.25812775140720134  0.45386127018758043  0.6624353684958564  1.0000
  O   O28       1.0  0.33311376231353756  0.3193444498631379  0.723226641217053  1.0000
  O   O29       1.0  0.15905084224898058  0.4089169136287507  0.7795049054752139  1.0000
  O   O30       1.0  0.7185895442478767  0.6681708873284221  0.2343195395317892  1.0000
  O   O31       1.0  0.7244747003171311  0.5432874473123943  0.32302903702324665  1.0000
  O   O32       1.0  0.833746130920531  0.5410398686769894  0.20086130797744056  1.0000
  O   O33       1.0  0.7575464033683018  0.5066870189572298  0.651053668376278  1.0000
  O   O34       1.0  0.6779786941837002  0.6488365573820473  0.66536398724962  1.0000
  O   O35       1.0  0.8072782062988465  0.5733447627855952  0.7585367308393174  1.0000
  O   O36       1.0  0.3995107652710034  0.3138712819353131  0.28640265981582747  1.0000
  O   O37       1.0  0.2451270911211552  0.4215950700097436  0.33136534666395073  1.0000
  O   O38       1.0  0.23023841012613394  0.3750292261307776  0.20920213295754306  1.0000
