data_image0
_chemical_formula_structural       Cu4H24C20N4O12
_chemical_formula_sum              "Cu4 H24 C20 N4 O12"
_cell_length_a       6.0144267470320365
_cell_length_b       10.107155708395208
_cell_length_c       10.952445503079094
_cell_angle_alpha    101.83878006152429
_cell_angle_beta     89.99996345555117
_cell_angle_gamma    89.99966246513675

_space_group_name_H-M_alt    "P 1"
_space_group_IT_number       1

loop_
  _space_group_symop_operation_xyz
  'x, y, z'

loop_
  _atom_site_type_symbol
  _atom_site_label
  _atom_site_symmetry_multiplicity
  _atom_site_fract_x
  _atom_site_fract_y
  _atom_site_fract_z
  _atom_site_occupancy
  Cu  Cu1       1.0  0.0111887546781801  0.9043800439239719  0.2032890418630515  1.0000
  Cu  Cu2       1.0  0.5112028459233571  0.5956175993991693  0.2967108248759089  1.0000
  Cu  Cu3       1.0  0.9887847712159754  0.09560541723286783  0.7967053994783769  1.0000
  Cu  Cu4       1.0  0.4887939572068305  0.40439324371808993  0.7032973010892932  1.0000
  H   H1        1.0  0.6165746984245288  0.843744902709723  0.6826968839751402  1.0000
  H   H2        1.0  0.11656770494317212  0.6562494815666325  0.817299154323699  1.0000
  H   H3        1.0  0.38347697272328674  0.15627708174148575  0.3173150669997611  1.0000
  H   H4        1.0  0.8834440624208497  0.34371872863012254  0.18268671351485471  1.0000
  H   H5        1.0  0.4607725259522155  0.8917745032363199  0.5603688782597658  1.0000
  H   H6        1.0  0.9607629985134951  0.6082195950959105  0.9396324960925497  1.0000
  H   H7        1.0  0.5392625185028236  0.10824565936923142  0.4396591815424955  1.0000
  H   H8        1.0  0.039245443502274206  0.39175159212756944  0.060349340379460215  1.0000
  H   H9        1.0  0.7204211406145972  0.9714589916726197  0.6060514439017552  1.0000
  H   H10       1.0  0.22041520473164414  0.528540135361155  0.8939536356008092  1.0000
  H   H11       1.0  0.27961889186722994  0.028559938080775303  0.393958132854948  1.0000
  H   H12       1.0  0.7795982252119912  0.4714444258774647  0.10604977521535372  1.0000
  H   H13       1.0  0.07130344918646608  0.6625378023150361  0.47432908931352813  1.0000
  H   H14       1.0  0.5712924585526125  0.8374625577595012  0.02566485725115803  1.0000
  H   H15       1.0  0.9286933539921947  0.3374648097791209  0.5256656897395686  1.0000
  H   H16       1.0  0.4286760792363822  0.1625440977515211  0.9743306472220253  1.0000
  H   H17       1.0  0.9682864008612739  0.6986667115188467  0.6309177755461874  1.0000
  H   H18       1.0  0.46827798730798514  0.8013343441289464  0.8690775402592834  1.0000
  H   H19       1.0  0.0317336796620609  0.30133994389009183  0.3690777289018499  1.0000
  H   H20       1.0  0.5317038518614154  0.19866623521431143  0.1309159610133861  1.0000
  H   H21       1.0  0.08302774230899962  0.8309100311232953  0.5643748507861659  1.0000
  H   H22       1.0  0.5830176596105899  0.6690895513420613  0.9356230420857586  1.0000
  H   H23       1.0  0.9169989889218327  0.16908957059114021  0.435621214366769  1.0000
  H   H24       1.0  0.4169724928422979  0.3309232024677797  0.064376295740054  1.0000
  C   C1        1.0  0.5685515999957361  0.5592824703772621  0.5348772715363239  1.0000
  C   C2        1.0  0.06853011058576189  0.940712159650943  0.965123389044841  1.0000
  C   C3        1.0  0.43144354042656363  0.4407355263255469  0.4651385294827436  1.0000
  C   C4        1.0  0.9314151500137199  0.05925902769767789  0.034858447457985206  1.0000
  C   C5        1.0  0.7528691481182647  0.7676903729730924  0.49820422364641814  1.0000
  C   C6        1.0  0.2528602870406189  0.7323073239239617  0.0017955886667237904  1.0000
  C   C7        1.0  0.2471359683682692  0.23231747090734708  0.5018061035137366  1.0000
  C   C8        1.0  0.7471165641541547  0.2676871459874448  0.9981931641606253  1.0000
  C   C9        1.0  0.783485403867452  0.8165791173129405  0.3748907892009186  1.0000
  C   C10       1.0  0.2834651609435568  0.6834305773162087  0.12511025438220716  1.0000
  C   C11       1.0  0.21654631523476556  0.1834478547782652  0.6251165780341168  1.0000
  C   C12       1.0  0.7165249915839169  0.3165660363504231  0.8748889270721564  1.0000
  C   C13       1.0  0.9850825690187507  0.7377027221246237  0.5451590520984908  1.0000
  C   C14       1.0  0.4850660672489511  0.7622962897284394  0.9548395449593841  1.0000
  C   C15       1.0  0.0149358488262976  0.26230501072843987  0.4548421242093994  1.0000
  C   C16       1.0  0.5149141092621576  0.23770131259796295  0.04515798768225919  1.0000
  C   C17       1.0  0.6290130471063476  0.8757242468302167  0.5930944854517577  1.0000
  C   C18       1.0  0.129012858249375  0.6242721764446202  0.906907393919255  1.0000
  C   C19       1.0  0.37101534667217345  0.124297815367818  0.40692387112653716  1.0000
  C   C20       1.0  0.8709905957159946  0.3757071752112182  0.0930822989598212  1.0000
  N   N1        1.0  0.6202486260572968  0.6442722805185425  0.464269602529221  1.0000
  N   N2        1.0  0.12023192221474231  0.8557219094517948  0.03573052885345622  1.0000
  N   N3        1.0  0.3797382010463224  0.35574063979942844  0.5357434615668808  1.0000
  N   N4        1.0  0.8797216517107102  0.1442523659015365  0.9642564271229263  1.0000
  O   O1        1.0  0.8966494835317675  0.9224220589570322  0.37401537263286144  1.0000
  O   O2        1.0  0.3966335411636237  0.5775710916705278  0.1259890645097244  1.0000
  O   O3        1.0  0.10337558502113352  0.0775767317223313  0.62599698269171  1.0000
  O   O4        1.0  0.6033715753858077  0.422425488666157  0.8740073716836108  1.0000
  O   O5        1.0  0.6176966485226031  0.5650741285915686  0.6499707923298317  1.0000
  O   O6        1.0  0.11768370714867869  0.93491319757112  0.8500258055854459  1.0000
  O   O7        1.0  0.38228851592100443  0.4349367811493537  0.3500428241485096  1.0000
  O   O8        1.0  0.8822598907938755  0.0650559348000357  0.1499529229613117  1.0000
  O   O9        1.0  0.7023026732567389  0.7468682628413247  0.2736251557923737  1.0000
  O   O10       1.0  0.20229326645022638  0.7531316560343555  0.2263750685579211  1.0000
  O   O11       1.0  0.2977174072579274  0.2531394589083505  0.7263751054301297  1.0000
  O   O12       1.0  0.7977085247663068  0.246863913468701  0.7736211862854533  1.0000
