data_image0
_chemical_formula_structural       Zr6H10C48S12O32F6
_chemical_formula_sum              "Zr6 H10 C48 S12 O32 F6"
_cell_length_a       16.484740497603344
_cell_length_b       16.48472873665897
_cell_length_c       16.48425876187673
_cell_angle_alpha    60.000879997910175
_cell_angle_beta     59.99776811603502
_cell_angle_gamma    59.99920177958005

_space_group_name_H-M_alt    "P 1"
_space_group_IT_number       1

loop_
  _space_group_symop_operation_xyz
  'x, y, z'

loop_
  _atom_site_type_symbol
  _atom_site_label
  _atom_site_symmetry_multiplicity
  _atom_site_fract_x
  _atom_site_fract_y
  _atom_site_fract_z
  _atom_site_occupancy
  Zr  Zr1       1.0  0.8924046280210474  0.8925463135347089  0.6074640182135622  1.0000
  Zr  Zr2       1.0  0.10724094877219412  0.10735313108467183  0.392631482952396  1.0000
  Zr  Zr3       1.0  0.10750006577430318  0.8925198286465915  0.607404191902226  1.0000
  Zr  Zr4       1.0  0.892613508628834  0.10739870794612488  0.3926826801385771  1.0000
  Zr  Zr5       1.0  0.10716931270937342  0.8920782170605437  0.3930787909360729  1.0000
  Zr  Zr6       1.0  0.8923022290450504  0.10687196479339911  0.6079691411682333  1.0000
  H   H1        1.0  0.08407855507874747  0.7464185053864655  0.5846786852324684  1.0000
  H   H2        1.0  0.08406937415352896  0.0842340647323567  0.2468654224680691  1.0000
  H   H3        1.0  0.0840808612738186  0.08431979198103785  0.5845450735187683  1.0000
  H   H4        1.0  0.7462362703074348  0.0843520848166933  0.5845904527518327  1.0000
  H   H5        1.0  0.12709443714475543  0.6098061828697041  0.3716211360040018  1.0000
  H   H6        1.0  0.6097483207248118  0.1271520852450864  0.8914316874493267  1.0000
  H   H7        1.0  0.8713402341142924  0.12744410529717948  0.10997843507045232  1.0000
  H   H8        1.0  0.609974291538201  0.39121908144589673  0.3713593464754155  1.0000
  H   H9        1.0  0.8712038817217473  0.6099513758294322  0.8912332804594808  1.0000
  H   H10       1.0  0.6098163933284296  0.8715215191477201  0.6272439962203507  1.0000
  C   C1        1.0  0.9976703052055381  0.7293005637986529  0.49799236651018913  1.0000
  C   C2        1.0  0.2739597573151755  0.9960070785432579  0.2302592319804899  1.0000
  C   C3        1.0  0.9959165821525745  0.2740585412054486  0.499673999001551  1.0000
  C   C4        1.0  0.7291977311374681  0.997794059225669  0.7749232073030894  1.0000
  C   C5        1.0  0.9972475605756227  0.7294757241941028  0.7747144304457333  1.0000
  C   C6        1.0  0.729384961335526  0.9977449265779301  0.49801716141953234  1.0000
  C   C7        1.0  0.998959914833243  0.27424886047779773  0.2300560640886358  1.0000
  C   C8        1.0  0.27412802143430054  0.9994989323066291  0.4962285620990696  1.0000
  C   C9        1.0  0.27404573815260147  0.7297044351171634  0.49950085436946506  1.0000
  C   C10       1.0  0.9990394406674952  0.9961524094512485  0.7745458058114563  1.0000
  C   C11       1.0  0.7292677098813698  0.2744075095423923  0.4978554803433965  1.0000
  C   C12       1.0  0.9972286925134951  0.9980211361664432  0.22982301316585546  1.0000
  C   C13       1.0  0.9320444851075608  0.4141177870962667  0.5670134894191532  1.0000
  C   C14       1.0  0.06515184491807686  0.5872524794605242  0.4337528893326804  1.0000
  C   C15       1.0  0.9968275123246216  0.3617673064056178  0.5009123549428833  1.0000
  C   C16       1.0  0.9981282955073566  0.6391876171064369  0.4995419322635183  1.0000
  C   C17       1.0  0.04086213417507162  0.5047760185263144  0.4589642019933251  1.0000
  C   C18       1.0  0.9557804516912258  0.4959423395014184  0.5441319636926066  1.0000
  C   C19       1.0  0.41414679211008826  0.9320214751223119  0.08684094189295155  1.0000
  C   C20       1.0  0.5872406940955199  0.06516967421551116  0.9138345918542541  1.0000
  C   C21       1.0  0.36174184455238384  0.9968440963693581  0.1404714937121906  1.0000
  C   C22       1.0  0.639155449933959  0.9981812482799199  0.863101259495927  1.0000
  C   C23       1.0  0.5047798984013809  0.040854432987274  0.9954062419023373  1.0000
  C   C24       1.0  0.49597331095871755  0.9557606224019822  0.0041586493744031686  1.0000
  C   C25       1.0  0.06673433653642741  0.9323763129261876  0.9143080725723465  1.0000
  C   C26       1.0  0.9334819137672099  0.06552420062445224  0.08742372831591155  1.0000
  C   C27       1.0  0.0005669311261087578  0.9971946479938367  0.8619992398496377  1.0000
  C   C28       1.0  0.9991519651543824  0.9984696599344646  0.13948285811198938  1.0000
  C   C29       1.0  0.9587341444481509  0.041175739074880584  0.005000307398930131  1.0000
  C   C30       1.0  0.04386718460633406  0.9560754700272369  0.9961955639181567  1.0000
  C   C31       1.0  0.4143483613846397  0.5866234300710219  0.5666877941638687  1.0000
  C   C32       1.0  0.5874615726250096  0.41359258354739126  0.43345876288049806  1.0000
  C   C33       1.0  0.3619428953380888  0.6401444173177495  0.5006269820443163  1.0000
  C   C34       1.0  0.6393769316210793  0.3628172386053097  0.49926260509073445  1.0000
  C   C35       1.0  0.5050830679689683  0.4951483097742155  0.4586675516437068  1.0000
  C   C36       1.0  0.4962610070215802  0.5039346617189581  0.5438023271272029  1.0000
  C   C37       1.0  0.06650356099645909  0.4142690959976179  0.08667821014378761  1.0000
  C   C38       1.0  0.9332888797700747  0.5873811521037882  0.9136422614501636  1.0000
  C   C39       1.0  0.00038560932107867653  0.36189860269272595  0.14026536555805078  1.0000
  C   C40       1.0  0.9990346916943198  0.639346882892532  0.862919766166314  1.0000
  C   C41       1.0  0.9585701821747961  0.505030851295487  0.995133059995808  1.0000
  C   C42       1.0  0.04369685665687943  0.4962063819514455  0.003929665355279503  1.0000
  C   C43       1.0  0.4142058440374399  0.06688901342609206  0.4321645846819777  1.0000
  C   C44       1.0  0.5873000397365258  0.9336355183291188  0.565300589800472  1.0000
  C   C45       1.0  0.36187093952980837  0.000762350757661133  0.49701708383251025  1.0000
  C   C46       1.0  0.6392962530377204  0.9993627261893396  0.4983347338644818  1.0000
  C   C47       1.0  0.5048613417435488  0.9588419703884982  0.5409750996036916  1.0000
  C   C48       1.0  0.4960564153281553  0.04398681551099059  0.45589507395425943  1.0000
  S   S1        1.0  0.08944501015243123  0.41302376277866415  0.4090662208414955  1.0000
  S   S2        1.0  0.9056372585825654  0.5885231296204196  0.5928991317462575  1.0000
  S   S3        1.0  0.4129624352911492  0.08948320085428213  0.0884265550293008  1.0000
  S   S4        1.0  0.5885238072060658  0.9056738260496929  0.912898287856535  1.0000
  S   S5        1.0  0.908877360147315  0.08988706438462672  0.9132056354372363  1.0000
  S   S6        1.0  0.09261852197803219  0.9060124433710612  0.08880843791769866  1.0000
  S   S7        1.0  0.41336886142598667  0.5881406094418509  0.4087275600624948  1.0000
  S   S8        1.0  0.5888843873000624  0.4126777094948793  0.5925376280693868  1.0000
  S   S9        1.0  0.9086460188304811  0.4132983934450394  0.0880574765618786  1.0000
  S   S10       1.0  0.09241587107603505  0.5888606084990545  0.9126089036538403  1.0000
  S   S11       1.0  0.41310591598760016  0.9089522278914545  0.5896412836132254  1.0000
  S   S12       1.0  0.5886559449356027  0.09272599829937188  0.4058220521445931  1.0000
  O   O1        1.0  0.9281149005902875  0.7645011400643472  0.5672576248114394  1.0000
  O   O2        1.0  0.23959784980026913  0.06579557949539354  0.2645338190839367  1.0000
  O   O3        1.0  0.06553589367870669  0.2398568109962156  0.4298086984453846  1.0000
  O   O4        1.0  0.764217286495729  0.9284098365450719  0.7398469930406149  1.0000
  O   O5        1.0  0.0664575266891773  0.7646286989753862  0.739624402801134  1.0000
  O   O6        1.0  0.7645244718490573  0.06708199909413551  0.4285991108454182  1.0000
  O   O7        1.0  0.9289794322934666  0.24002223017485863  0.2644655896624426  1.0000
  O   O8        1.0  0.23987518770287874  0.9296826600285331  0.5659288761818215  1.0000
  O   O9        1.0  0.2393965800615946  0.7636423289671653  0.43001755570013944  1.0000
  O   O10       1.0  0.9287544805778581  0.06547571561919363  0.7406633511372289  1.0000
  O   O11       1.0  0.7639635502686559  0.2390397708824565  0.5675339502482685  1.0000
  O   O12       1.0  0.06606262584280373  0.9282281916233759  0.2654034194838529  1.0000
  O   O13       1.0  0.06791725621034324  0.9274821915183298  0.7387475053830456  1.0000
  O   O14       1.0  0.7642863598807992  0.23979154659861748  0.4283911374175629  1.0000
  O   O15       1.0  0.9281859500356614  0.06753558173267053  0.2643522246081245  1.0000
  O   O16       1.0  0.2386376138644764  0.7657968659031769  0.5679116286188161  1.0000
  O   O17       1.0  0.9278948634369256  0.7641885902869066  0.7400298173602238  1.0000
  O   O18       1.0  0.23849065994117777  0.06819999662199906  0.4273436438068003  1.0000
  O   O19       1.0  0.0675656784060976  0.2385739143043183  0.2659384131111722  1.0000
  O   O20       1.0  0.764169289529434  0.9284980374507086  0.5672499449842899  1.0000
  O   O21       1.0  0.7641024486844472  0.06691011374029186  0.7401665389060736  1.0000
  O   O22       1.0  0.06691498874823744  0.764077773828362  0.42884911311583807  1.0000
  O   O23       1.0  0.23843433019472823  0.9270009860681016  0.2661094306595117  1.0000
  O   O24       1.0  0.9270222099292412  0.238423978234927  0.5684682502495376  1.0000
  O   O25       1.0  0.818271296011858  0.06025834015078147  0.5606366895465982  1.0000
  O   O26       1.0  0.06002200175141332  0.060264617396129046  0.5606239260450111  1.0000
  O   O27       1.0  0.05998820406399125  0.0601271560318679  0.31890222130768814  1.0000
  O   O28       1.0  0.05988970375132398  0.8184508571136532  0.5607362078580277  1.0000
  O   O29       1.0  0.13308934433216285  0.9553441519297794  0.45557452324029396  1.0000
  O   O30       1.0  0.9549142458419195  0.955292685823871  0.45554277174267066  1.0000
  O   O31       1.0  0.954933650775729  0.13337390217446213  0.45587246548489435  1.0000
  O   O32       1.0  0.9550607471709892  0.9550399872463731  0.6339437644751125  1.0000
  F   F1        1.0  0.8539083525364359  0.39096045503517746  0.6453424987164949  1.0000
  F   F2        1.0  0.3910007425235448  0.8538782295647992  0.10981984291939977  1.0000
  F   F3        1.0  0.14491301564234507  0.8542522514814125  0.8911268382990939  1.0000
  F   F4        1.0  0.39109228278945113  0.6096799163334553  0.6449365956716376  1.0000
  F   F5        1.0  0.14469422689151654  0.391040994414709  0.10979116496657321  1.0000
  F   F6        1.0  0.39104535313458655  0.14517751989698272  0.3540479549251074  1.0000
