data_image0
_chemical_formula_structural       Zn4H36C36N20O8
_chemical_formula_sum              "Zn4 H36 C36 N20 O8"
_cell_length_a       10.148952055061546
_cell_length_b       12.184924139490104
_cell_length_c       12.1068
_cell_angle_alpha    84.62826576765326
_cell_angle_beta     65.84108623116832
_cell_angle_gamma    66.28677089868295

_space_group_name_H-M_alt    "P 1"
_space_group_IT_number       1

loop_
  _space_group_symop_operation_xyz
  'x, y, z'

loop_
  _atom_site_type_symbol
  _atom_site_label
  _atom_site_symmetry_multiplicity
  _atom_site_fract_x
  _atom_site_fract_y
  _atom_site_fract_z
  _atom_site_occupancy
  Zn  Zn1       1.0  0.157030397889976  0.86122279857927  0.6534309924550286  1.0000
  Zn  Zn2       1.0  0.3412749856725697  0.3493411270089696  0.1413902471372879  1.0000
  Zn  Zn3       1.0  0.8429698075085952  0.1387779962345164  0.34656902738405637  1.0000
  Zn  Zn4       1.0  0.6587246118726282  0.6506587681853659  0.8586100660098808  1.0000
  H   H1        1.0  0.29556578988776744  0.9800283432576651  0.21718019502828406  1.0000
  H   H2        1.0  0.2065941554223231  0.7808579932816785  0.017760384077526167  1.0000
  H   H3        1.0  0.7044342797125083  0.0199706523172125  0.7828192149454979  1.0000
  H   H4        1.0  0.793405442122875  0.2191419019126499  0.9822391030875437  1.0000
  H   H5        1.0  0.1645451400520557  0.0093650385432724  0.4475009260073506  1.0000
  H   H6        1.0  0.3364360953538609  0.552654224582632  0.9897553103029679  1.0000
  H   H7        1.0  0.83545351338298  0.9906366558899721  0.5524987155402954  1.0000
  H   H8        1.0  0.6635630301362595  0.44734657023116153  0.01024342807129832  1.0000
  H   H9        1.0  0.3884762771278858  0.6450406446788506  0.4750351899255776  1.0000
  H   H10       1.0  0.10833740636512353  0.5278598127390879  0.35807935558391785  1.0000
  H   H11       1.0  0.6115233204173193  0.3549592505154777  0.5249651232215841  1.0000
  H   H12       1.0  0.8916617191249973  0.4721409820746985  0.6419210347545315  1.0000
  H   H13       1.0  0.522701775792342  0.6019218841236977  0.24797524045712283  1.0000
  H   H14       1.0  0.97463604595567  0.7528168548192511  0.39997449786240213  1.0000
  H   H15       1.0  0.4772967418444126  0.3980780110706378  0.7520262691714946  1.0000
  H   H16       1.0  0.025360447662478705  0.24718483961399332  0.6000267106660644  1.0000
  H   H17       1.0  0.9510332975040328  0.8377031475057423  0.9167474051612247  1.0000
  H   H18       1.0  0.5484619764306019  0.0842061803773007  0.16141882296984986  1.0000
  H   H19       1.0  0.04896380396748159  0.1622994465469603  0.08325433604125722  1.0000
  H   H20       1.0  0.4515411970967308  0.9157910159586606  0.8385788656405353  1.0000
  H   H21       1.0  0.7613343154913538  0.836421189780083  0.9782331428367355  1.0000
  H   H22       1.0  0.7379860296877965  0.024185369471418004  0.1618764365063113  1.0000
  H   H23       1.0  0.23866217812679477  0.16358050465316862  0.021768065691738087  1.0000
  H   H24       1.0  0.26201822374798683  0.9758118268645504  0.8381225335688995  1.0000
  H   H25       1.0  0.8789850470731295  0.6094463012587497  0.9811029663780174  1.0000
  H   H26       1.0  0.6202578801059815  0.020046220351567  0.3907414652848614  1.0000
  H   H27       1.0  0.12101468627035679  0.3905553931744947  0.018897956634447186  1.0000
  H   H28       1.0  0.3797442135129003  0.9799509759843944  0.6092574198069798  1.0000
  H   H29       1.0  0.9347284632123447  0.6796939861473419  0.06590642897280914  1.0000
  H   H30       1.0  0.5646037019844741  0.9357490736034819  0.3200257724179281  1.0000
  H   H31       1.0  0.06527019022269806  0.3203077082859025  0.9340940385569283  1.0000
  H   H32       1.0  0.43539744752425236  0.0642499219713955  0.6799732670564892  1.0000
  H   H33       1.0  0.07152649556056195  0.6094364054447325  0.9180682669383131  1.0000
  H   H34       1.0  0.4275894449803488  0.0815091212463912  0.39206183137471834  1.0000
  H   H35       1.0  0.9284721578744738  0.39056528898851894  0.08193302657351613  1.0000
  H   H36       1.0  0.5724127844368214  0.9184898743284862  0.607935185636151  1.0000
  C   C1        1.0  0.42015334523224374  0.7894178724112919  0.21681425983702235  1.0000
  C   C2        1.0  0.07986592413833198  0.7825906603551048  0.21036604646181434  1.0000
  C   C3        1.0  0.5798436204409825  0.2105829224024944  0.7831876974822548  1.0000
  C   C4        1.0  0.9201364410771261  0.2174101344586816  0.7896340583606333  1.0000
  C   C5        1.0  0.31769370802937397  0.9050117756296034  0.2729225151956882  1.0000
  C   C6        1.0  0.18326902108690754  0.7261413386919457  0.0939845487637001  1.0000
  C   C7        1.0  0.6823052816624582  0.09498721994527412  0.7270780912595569  1.0000
  C   C8        1.0  0.8167294965498471  0.27385855650238267  0.9060161348828331  1.0000
  C   C9        1.0  0.2456158975709357  0.9212175205209122  0.3988748570622249  1.0000
  C   C10       1.0  0.2548797018396626  0.6013506257687525  0.07851103869957397  1.0000
  C   C11       1.0  0.7543836999742625  0.0787823746734162  0.6011262820670352  1.0000
  C   C12       1.0  0.7451186799988035  0.39864747018667407  0.9214890350816561  1.0000
  C   C13       1.0  0.37148110952666985  0.7167870955821485  0.4146054735616573  1.0000
  C   C14       1.0  0.12656374044134816  0.5871978124774131  0.2851530879557131  1.0000
  C   C15       1.0  0.6285180159634506  0.2832136992316379  0.5853957427588838  1.0000
  C   C16       1.0  0.8734353850487723  0.4128029823363805  0.7148464764006518  1.0000
  C   C17       1.0  0.4468670877534677  0.6933897927547222  0.289131587483169  1.0000
  C   C18       1.0  0.051335372515708966  0.7115522099641539  0.307843560321821  1.0000
  C   C19       1.0  0.5531309578282089  0.3066110020590642  0.7108699993367439  1.0000
  C   C20       1.0  0.9486648328828623  0.2884485848496325  0.692156459517264  1.0000
  C   C21       1.0  0.497694675511994  0.7704970759999412  0.08044492578708429  1.0000
  C   C22       1.0  0.0035930540517696992  0.917830453266788  0.22832540324844783  1.0000
  C   C23       1.0  0.5023053940882889  0.2295019195749362  0.9195544841866975  1.0000
  C   C24       1.0  0.9964087033103229  0.0821694419275403  0.7716733429178929  1.0000
  C   C25       1.0  0.8987801893899887  0.7657533826052543  0.7960809627020848  1.0000
  C   C26       1.0  0.6009281941286418  0.2042145162691753  0.23399192452902878  1.0000
  C   C27       1.0  0.10121846404505419  0.2342483118279901  0.20392033080975122  1.0000
  C   C28       1.0  0.3990734274351694  0.7957835796862441  0.7660053857899171  1.0000
  C   C29       1.0  0.8860233284854359  0.7829172222178544  0.9207339209157298  1.0000
  C   C30       1.0  0.6132338217421918  0.0806436873291361  0.21629246626670803  1.0000
  C   C31       1.0  0.11397532494960667  0.21708447221539023  0.07926737259609952  1.0000
  C   C32       1.0  0.38676995963850674  0.9193544086262835  0.7837049290355935  1.0000
  C   C33       1.0  0.9465981505324945  0.6629160832816297  0.9741213436541329  1.0000
  C   C34       1.0  0.552597599124674  0.0268680346910131  0.3372909548021852  1.0000
  C   C35       1.0  0.0534009749576256  0.33708471153216385  0.02587987266641529  1.0000
  C   C36       1.0  0.44740463029249594  0.9731309608838645  0.6627060622086773  1.0000
  N   N1        1.0  0.2731229810810377  0.8286682693030443  0.4683934581235292  1.0000
  N   N2        1.0  0.22634227197790596  0.5330254276589272  0.17258910052290583  1.0000
  N   N3        1.0  0.7268767522624486  0.1713334251302001  0.5316074648889426  1.0000
  N   N4        1.0  0.7736577976223699  0.4669735679159501  0.827410309450876  1.0000
  N   N5        1.0  0.9941906400385534  0.7937972199260558  0.6931766669048967  1.0000
  N   N6        1.0  0.5046461339924592  0.3069735487000784  0.20851970239998954  1.0000
  N   N7        1.0  0.005810645268454115  0.2062035748877378  0.3068238084169153  1.0000
  N   N8        1.0  0.49535562336963335  0.693026346494257  0.791477391802168  1.0000
  N   N9        1.0  0.971222637471428  0.7623699138289552  0.599714376094731  1.0000
  N   N10       1.0  0.530076000231709  0.3987122427875462  0.2398298137798136  1.0000
  N   N11       1.0  0.028778039982214017  0.2376299813653802  0.4002863925351647  1.0000
  N   N12       1.0  0.46992406936856657  0.6012867527873311  0.7601712481581585  1.0000
  N   N13       1.0  0.8183743525719294  0.7178261560545351  0.7658169089567365  1.0000
  N   N14       1.0  0.684169609705748  0.2329654544828728  0.28009804517617437  1.0000
  N   N15       1.0  0.1816258528266417  0.28217463875925836  0.2341831108823484  1.0000
  N   N16       1.0  0.3158320118580563  0.7670326414725466  0.7199000911248631  1.0000
  N   N17       1.0  0.866091561369409  0.7167079290699689  0.6431110739985043  1.0000
  N   N18       1.0  0.6373833444391437  0.3545013442120677  0.28289280462247746  1.0000
  N   N19       1.0  0.13391019599268364  0.2832919661243665  0.3568893241320197  1.0000
  N   N20       1.0  0.3626151731976109  0.6454985509822677  0.7171078790240485  1.0000
  O   O1        1.0  0.4794882965930969  0.8583818003353088  0.018175890106483877  1.0000
  O   O2        1.0  0.02453510041274849  0.9786960068424266  0.1389924363694206  1.0000
  O   O3        1.0  0.5205117730071791  0.1416171952395686  0.9818259978135799  1.0000
  O   O4        1.0  0.9754703687297664  0.0213029887324439  0.8610059470896303  1.0000
  O   O5        1.0  0.5810765044185618  0.6587787334006947  0.036629895448377976  1.0000
  O   O6        1.0  0.9183638243040593  0.9624470802172027  0.34066701297851393  1.0000
  O   O7        1.0  0.4189224852732707  0.3412202621741828  0.9633715369889585  1.0000
  O   O8        1.0  0.08163685314958971  0.0375528149771327  0.6593321036871913  1.0000
