data_image0
_chemical_formula_structural       Ca2H24C8N24O16
_chemical_formula_sum              "Ca2 H24 C8 N24 O16"
_cell_length_a       8.757830817057778
_cell_length_b       8.757846322492735
_cell_length_c       11.603330245826678
_cell_angle_alpha    107.56953526487028
_cell_angle_beta     107.568660571461
_cell_angle_gamma    101.36231073092327

_space_group_name_H-M_alt    "P 1"
_space_group_IT_number       1

loop_
  _space_group_symop_operation_xyz
  'x, y, z'

loop_
  _atom_site_type_symbol
  _atom_site_label
  _atom_site_symmetry_multiplicity
  _atom_site_fract_x
  _atom_site_fract_y
  _atom_site_fract_z
  _atom_site_occupancy
  Ca  Ca1       1.0  0.7433770326924006  0.2566235454821424  0.750000514600579  1.0000
  Ca  Ca2       1.0  0.2566227713127701  0.743376046410631  0.2499998607479056  1.0000
  H   H1        1.0  0.1928517327814561  0.3057906668312  0.8107583886856632  1.0000
  H   H2        1.0  0.6942106492804072  0.8071486611480765  0.689239274603537  1.0000
  H   H3        1.0  0.8071489179721709  0.6942077113928419  0.18923931484464157  1.0000
  H   H4        1.0  0.30578834027064516  0.19285217669346363  0.31076206384599897  1.0000
  H   H5        1.0  0.3823420797010328  0.30731283728499637  0.789409648886199  1.0000
  H   H6        1.0  0.6926900552370937  0.6176593445676347  0.7105892838218465  1.0000
  H   H7        1.0  0.6176593540028392  0.6926880502747609  0.2105896884752241  1.0000
  H   H8        1.0  0.30730773645830584  0.38234149262481754  0.28941177363390114  1.0000
  H   H9        1.0  0.9974356339413081  0.1090837096586412  0.8892021879623898  1.0000
  H   H10       1.0  0.8909138884520191  0.0025620926957401046  0.6107960592188703  1.0000
  H   H11       1.0  0.002565367919515865  0.8909158828832132  0.11079846837988318  1.0000
  H   H12       1.0  0.10908549985727936  0.9974362203191446  0.38920478075189635  1.0000
  H   H13       1.0  0.4922275424054519  0.3781526289317155  0.5824784040171309  1.0000
  H   H14       1.0  0.6218480660835298  0.5077731839845613  0.9175230762144508  1.0000
  H   H15       1.0  0.5077722938940568  0.6218469952410925  0.41752026261422504  1.0000
  H   H16       1.0  0.3781521213231755  0.49222765450605976  0.08247854322887344  1.0000
  H   H17       1.0  0.6685506545296962  0.420440047214626  0.5538784478631413  1.0000
  H   H18       1.0  0.5795565621594106  0.331449571079645  0.9461220591322926  1.0000
  H   H19       1.0  0.3314491656226437  0.5795595608181686  0.44612107312677557  1.0000
  H   H20       1.0  0.42044362524730156  0.6685512674109758  0.05387956031103154  1.0000
  H   H21       1.0  0.02565251742119301  0.293613458681115  0.984868501188913  1.0000
  H   H22       1.0  0.7063878057602792  0.9743451413535736  0.5151293875351114  1.0000
  H   H23       1.0  0.9743489001355101  0.7063874127386282  0.015131690531070663  1.0000
  H   H24       1.0  0.2936119982448915  0.025654450539199996  0.4848709878133732  1.0000
  C   C1        1.0  0.21903533378639392  0.3728420807564135  0.6625604247486123  1.0000
  C   C2        1.0  0.6271604029341518  0.7809631679038985  0.8374347145278591  1.0000
  C   C3        1.0  0.7809641029644113  0.6271562806785196  0.3374378521464648  1.0000
  C   C4        1.0  0.37283737261407884  0.2190376531485398  0.1625671972864495  1.0000
  C   C5        1.0  0.06797070192874337  0.47349109341735124  0.5316430376747474  1.0000
  C   C6        1.0  0.5265070555965821  0.9320305189834241  0.9683557356372389  1.0000
  C   C7        1.0  0.9320275369664016  0.526507267368501  0.46835495822654133  1.0000
  C   C8        1.0  0.47349113564752093  0.0679715809468959  0.03164571155478772  1.0000
  N   N1        1.0  0.07617627430059311  0.42082477598384566  0.6339236651625839  1.0000
  N   N2        1.0  0.5791793529556343  0.9238257778727428  0.866077221902678  1.0000
  N   N3        1.0  0.923825159403279  0.5791761115759114  0.3660756721988392  1.0000
  N   N4        1.0  0.4208192531938764  0.0761738133709429  0.1339228724520112  1.0000
  N   N5        1.0  0.9717937450514001  0.41645483056551313  0.7015313398879498  1.0000
  N   N6        1.0  0.5835480073452856  0.028208881296436096  0.7984694485853294  1.0000
  N   N7        1.0  0.028208470812252466  0.5835447787654502  0.2984687430895505  1.0000
  N   N8        1.0  0.4164509983529355  0.9717919726851177  0.20153103550564563  1.0000
  N   N9        1.0  0.25925274162631246  0.3037441859709631  0.7519413321740416  1.0000
  N   N10       1.0  0.6962591230096536  0.740750484710169  0.7480605221146489  1.0000
  N   N11       1.0  0.7407490908358055  0.6962541767621457  0.24805750670861212  1.0000
  N   N12       1.0  0.30373868483291483  0.25925036862229683  0.2519396809825309  1.0000
  N   N13       1.0  0.29647667423130736  0.3977073661513372  0.5836238428980707  1.0000
  N   N14       1.0  0.6022974444883431  0.7035245865144687  0.916377362339631  1.0000
  N   N15       1.0  0.7035219803597172  0.6022922735124039  0.41637368838092925  1.0000
  N   N16       1.0  0.3977015450627094  0.2964762513270642  0.08362397610989795  1.0000
  N   N17       1.0  0.20132208305408028  0.46132635948313794  0.5025468862956401  1.0000
  N   N18       1.0  0.5386758983507036  0.7986775856652031  0.9974533853330954  1.0000
  N   N19       1.0  0.7986761719882337  0.5386720174427352  0.4974502552470809  1.0000
  N   N20       1.0  0.4613230750531869  0.20132323603631616  0.002548807475001503  1.0000
  N   N21       1.0  0.020403657054806935  0.5635266749155079  0.8042516135978702  1.0000
  N   N22       1.0  0.43647397814110184  0.9795982979214415  0.6957504228409307  1.0000
  N   N23       1.0  0.9795985588088457  0.43647293441545537  0.19574846937963028  1.0000
  N   N24       1.0  0.5635254424625274  0.020400047373477996  0.30424870841270746  1.0000
  O   O1        1.0  0.6108022394755253  0.37311573424680217  0.6035960356189634  1.0000
  O   O2        1.0  0.6268830146880335  0.3891979256360969  0.8964050179150503  1.0000
  O   O3        1.0  0.3891987623852984  0.6268838582950523  0.3964046207233096  1.0000
  O   O4        1.0  0.373117188865848  0.6108029289945376  0.10359574716971304  1.0000
  O   O5        1.0  0.9943395362400479  0.22000518359641316  0.8908427544902225  1.0000
  O   O6        1.0  0.7799927778424446  0.0056590358926627005  0.6091546986262628  1.0000
  O   O7        1.0  0.005660267765122636  0.7799944082963534  0.10915762085826221  1.0000
  O   O8        1.0  0.22000702616272597  0.994340556000111  0.3908456767222219  1.0000
  O   O9        1.0  0.9275027466079068  0.5546184199311383  0.8716365861471261  1.0000
  O   O10       1.0  0.4453845776075198  0.0724981599187089  0.6283657328008586  1.0000
  O   O11       1.0  0.07249867094879646  0.445382451488605  0.12836360557285786  1.0000
  O   O12       1.0  0.5546172863584643  0.9274964475299183  0.3716305091496252  1.0000
  O   O13       1.0  0.13597466706391254  0.6919486343249943  0.8325146815518352  1.0000
  O   O14       1.0  0.3080538261344116  0.864028123714881  0.6674897713107981  1.0000
  O   O15       1.0  0.8640263509440801  0.3080509743568811  0.16748512043186986  1.0000
  O   O16       1.0  0.6919459778707591  0.13597146817789246  0.33251060403767946  1.0000
