data_image0
_chemical_formula_structural       Zn6H36C60N24
_chemical_formula_sum              "Zn6 H36 C60 N24"
_cell_length_a       14.752875227940885
_cell_length_b       14.752283763419943
_cell_length_c       14.752841499623305
_cell_angle_alpha    109.4707252855771
_cell_angle_beta     109.47312771262202
_cell_angle_gamma    109.47103526573935

_space_group_name_H-M_alt    "P 1"
_space_group_IT_number       1

loop_
  _space_group_symop_operation_xyz
  'x, y, z'

loop_
  _atom_site_type_symbol
  _atom_site_label
  _atom_site_symmetry_multiplicity
  _atom_site_fract_x
  _atom_site_fract_y
  _atom_site_fract_z
  _atom_site_occupancy
  Zn  Zn1       1.0  0.7499719292478205  0.4999969582057417  0.24997507770400063  1.0000
  Zn  Zn2       1.0  0.2500175488509201  0.5000036856121073  0.7500105773153721  1.0000
  Zn  Zn3       1.0  0.49999690623292287  0.24999951977449802  0.7499739599560016  1.0000
  Zn  Zn4       1.0  0.24997014408364748  0.7499824955998803  0.4999634767683789  1.0000
  Zn  Zn5       1.0  0.7500201993731183  0.2500198438616864  0.5000155502556751  1.0000
  Zn  Zn6       1.0  0.4999683510626907  0.7500001485276826  0.24999622058223997  1.0000
  H   H1        1.0  0.8699966513759068  0.6415451232271467  0.6415593389267757  1.0000
  H   H2        1.0  0.7715664192675575  0.7715502597697608  0.1300230016563616  1.0000
  H   H3        1.0  0.35847083752376113  0.2284459021039495  1.421549112731889e-05  1.0000
  H   H4        1.0  0.13002055778722602  0.7715551277655733  0.7715665475030208  1.0000
  H   H5        1.0  0.2284415957634848  0.9999990237707337  0.3584481428678857  1.0000
  H   H6        1.0  0.3584478376083098  0.9999965822040764  0.22844017030318048  1.0000
  H   H7        1.0  5.77415369199507e-06  0.22844032488219299  0.358464810179008  1.0000
  H   H8        1.0  0.22845296295690076  0.3584597073903097  8.579927154544908e-06  1.0000
  H   H9        1.0  1.4240711607334911e-05  0.3584618258202497  0.228455536194737  1.0000
  H   H10       1.0  0.6415481473526583  0.6415382900659523  0.8699904579712907  1.0000
  H   H11       1.0  0.7715577628778619  0.13001677957770152  0.7715576728744793  1.0000
  H   H12       1.0  0.6415335342651998  0.8699769421208218  0.6415330287356796  1.0000
  H   H13       1.0  0.654316291261253  0.2363534887243475  0.12086214497090708  1.0000
  H   H14       1.0  0.5820440849157861  0.46655223339354995  0.3456956592965312  1.0000
  H   H15       1.0  0.8791420870303385  0.5334448515578175  0.11549055599532923  1.0000
  H   H16       1.0  0.34570036454748293  0.46655012645559424  0.5820498116964288  1.0000
  H   H17       1.0  0.5334581850451555  0.11549667777727274  0.8791387535297303  1.0000
  H   H18       1.0  0.417958602665365  0.8844967990283904  0.7636409975376994  1.0000
  H   H19       1.0  0.879147635292995  0.1155005404165551  0.5334614297111956  1.0000
  H   H20       1.0  0.7636372982230811  0.884501529631905  0.41795729218845423  1.0000
  H   H21       1.0  0.46654256154562995  0.5820431293155082  0.3456917816713557  1.0000
  H   H22       1.0  0.884525224037681  0.41796495992572624  0.7636579043338118  1.0000
  H   H23       1.0  0.3456835189332212  0.5820425841907665  0.46654943353705397  1.0000
  H   H24       1.0  0.7636483399033409  0.41795155431392333  0.8844994861973845  1.0000
  H   H25       1.0  0.5334595530624925  0.8791539104126685  0.11550385237151779  1.0000
  H   H26       1.0  0.11548774831545218  0.8791385541419815  0.5334527132537448  1.0000
  H   H27       1.0  0.6543189158706539  0.12086009291616763  0.2363614138646355  1.0000
  H   H28       1.0  0.23634752030526585  0.12084680628075967  0.6543057624938484  1.0000
  H   H29       1.0  0.4665504145228924  0.34569081803549306  0.5820346669855851  1.0000
  H   H30       1.0  0.5820496102346481  0.3456944449621844  0.4665500530126252  1.0000
  H   H31       1.0  0.12084729510712576  0.6542996523842461  0.23634109670394576  1.0000
  H   H32       1.0  0.23634002128336823  0.6542993002929123  0.12085269632223843  1.0000
  H   H33       1.0  0.8844993687462193  0.76364676993434  0.4179662491946345  1.0000
  H   H34       1.0  0.4179741725361408  0.7636490551587085  0.8845119063249882  1.0000
  H   H35       1.0  0.12086342852836636  0.23635264330312106  0.6543223849054769  1.0000
  H   H36       1.0  0.11551580053505002  0.5334564503954411  0.879154666417655  1.0000
  C   C1        1.0  0.6823777868476243  0.2656532279190814  0.2082902878767783  1.0000
  C   C2        1.0  0.5832680648032279  0.5259112173807948  0.31762175681621585  1.0000
  C   C3        1.0  0.7917110445558393  0.4740859883193168  0.05735790385030273  1.0000
  C   C4        1.0  0.3176276587926452  0.5259109513232261  0.5832809454436472  1.0000
  C   C5        1.0  0.47409233353213415  0.05736267521427873  0.7917079537518249  1.0000
  C   C6        1.0  0.41672325889228296  0.9426276119733149  0.734339468058629  1.0000
  C   C7        1.0  0.7917150692207358  0.05737052156404601  0.47409541720570286  1.0000
  C   C8        1.0  0.7343433525295565  0.942635306811603  0.4167276915313636  1.0000
  C   C9        1.0  0.5259053671261923  0.583278462829469  0.31762620571562666  1.0000
  C   C10       1.0  0.942654702250671  0.416733280723861  0.7343612159216306  1.0000
  C   C11       1.0  0.3176226562326221  0.583274969012372  0.525912578614225  1.0000
  C   C12       1.0  0.7343473286893385  0.416718407188654  0.9426266915813031  1.0000
  C   C13       1.0  0.47409603593412447  0.7917200575116539  0.057373180167772556  1.0000
  C   C14       1.0  0.05735556313464212  0.7917098652969656  0.47408757784619854  1.0000
  C   C15       1.0  0.6823837300373228  0.2082909810615164  0.2656600104092561  1.0000
  C   C16       1.0  0.2656528257480771  0.20828039513614252  0.682375400953603  1.0000
  C   C17       1.0  0.5259131289630474  0.31762553604873023  0.5832683421786271  1.0000
  C   C18       1.0  0.5832844289361461  0.3176292716344378  0.5259115622773152  1.0000
  C   C19       1.0  0.20827599063019858  0.6823662775512248  0.26564317861240744  1.0000
  C   C20       1.0  0.26563810889788886  0.6823674729233887  0.20827981866431605  1.0000
  C   C21       1.0  0.9426244627502672  0.734343871041425  0.41672140133906777  1.0000
  C   C22       1.0  0.41673592587247293  0.7343552520349449  0.9426437207291444  1.0000
  C   C23       1.0  0.20828811762773122  0.2656464603125885  0.6823789734344247  1.0000
  C   C24       1.0  0.05738614834526589  0.47409629993722296  0.791723920997008  1.0000
  C   C25       1.0  0.7509134374586708  0.382316584699197  0.3823094043018429  1.0000
  C   C26       1.0  0.631380120576665  0.6313991147950445  0.249083821818509  1.0000
  C   C27       1.0  0.617684789442606  0.3685984729961617  0.9999811278901519  1.0000
  C   C28       1.0  0.2490889015047059  0.6313975471893585  0.6313992863604199  1.0000
  C   C29       1.0  0.3686027654393483  0.9999950422066988  0.617683913541491  1.0000
  C   C30       1.0  0.6176916135178345  1.033814749004886e-05  0.36861255232090423  1.0000
  C   C31       1.0  1.3387790552448888e-05  0.3686093231114639  0.6177004346381452  1.0000
  C   C32       1.0  0.3686073945300166  0.6176946607166159  4.695988835262506e-06  1.0000
  C   C33       1.0  0.9999799957283175  0.6176829761368339  0.3685911136581694  1.0000
  C   C34       1.0  0.38231015878709246  0.3823042442416168  0.7509110860018  1.0000
  C   C35       1.0  0.631401971882724  0.24909283403782473  0.6313980653167874  1.0000
  C   C36       1.0  0.3822981271440968  0.7509053118247523  0.38230578997732334  1.0000
  C   C37       1.0  0.7970939739464953  0.4814694231833131  0.4814569891950953  1.0000
  C   C38       1.0  0.6843509858591474  0.6843706232211275  0.2029077011357644  1.0000
  C   C39       1.0  0.5185357178687297  0.31562572236014563  0.9999795139117397  1.0000
  C   C40       1.0  0.202910257312972  0.684367314095546  0.6843683961152962  1.0000
  C   C41       1.0  0.31563385427187285  0.999997882798674  0.5185352427496782  1.0000
  C   C42       1.0  0.5185431174087044  1.2893318029224605e-05  0.31564175566787606  1.0000
  C   C43       1.0  8.268508125228154e-06  0.31563358699418126  0.5185455723287475  1.0000
  C   C44       1.0  0.3156368867233398  0.5185458458942733  2.3184077166329794e-06  1.0000
  C   C45       1.0  0.9999820134109143  0.5185357278064728  0.3156227355084554  1.0000
  C   C46       1.0  0.4814565765440476  0.4814511747202487  0.7970884868311784  1.0000
  C   C47       1.0  0.6843709359104011  0.20291570320971197  0.6843695935273857  1.0000
  C   C48       1.0  0.4814464353089603  0.7970818930260962  0.48145105193926707  1.0000
  C   C49       1.0  0.8356639497974071  0.5665892905518887  0.5665872828598424  1.0000
  C   C50       1.0  0.7309176492470328  0.730924446773365  0.16434526137076222  1.0000
  C   C51       1.0  0.4334228559186571  0.26907485619301513  0.9999958131811371  1.0000
  C   C52       1.0  0.16434776687302144  0.7309255724096674  0.7309246438334756  1.0000
  C   C53       1.0  0.2690781980645767  1.1115530966637147e-06  0.43341246642770404  1.0000
  C   C54       1.0  0.4334134942347562  1.6596454842417894e-06  0.2690785228935085  1.0000
  C   C55       1.0  3.115971118412477e-06  0.26907676617385323  0.4334295446689397  1.0000
  C   C56       1.0  0.26907998112191933  0.4334188189642775  0.999998954671689  1.0000
  C   C57       1.0  0.9999961788946906  0.43341680797087895  0.2690760428155698  1.0000
  C   C58       1.0  0.5665812824675953  0.5665795357161584  0.8356595866633185  1.0000
  C   C59       1.0  0.7309253691087393  0.1643468818353143  0.7309235656966209  1.0000
  C   C60       1.0  0.5665715953360716  0.8356485030402112  0.5665709680263761  1.0000
  N   N1        1.0  0.725378580444584  0.37513553537507266  0.28182006523852726  1.0000
  N   N2        1.0  0.6497327097022064  0.5564398992574198  0.27461017368091933  1.0000
  N   N3        1.0  0.7181693581631095  0.44355516492804986  0.09329321374591618  1.0000
  N   N4        1.0  0.2746243192025871  0.5564409789412039  0.6497543914562769  1.0000
  N   N5        1.0  0.4435644936160158  0.09330742470505976  0.7181713464278018  1.0000
  N   N6        1.0  0.3502477806295444  0.9066809772515186  0.6248590313861372  1.0000
  N   N7        1.0  0.7181842046566375  0.09332027849727367  0.4435710968665276  1.0000
  N   N8        1.0  0.6248626167491693  0.9066955976560607  0.35025578960956233  1.0000
  N   N9        1.0  0.5564274561556033  0.6497541717734592  0.27462010023961614  1.0000
  N   N10       1.0  0.9067095794702881  0.3502597542597883  0.6248818750390156  1.0000
  N   N11       1.0  0.274614488704536  0.6497481669266136  0.5564393000375674  1.0000
  N   N12       1.0  0.6248660225876036  0.35024391467357646  0.9066743917719151  1.0000
  N   N13       1.0  0.4435617639500576  0.7181846818076137  0.0933156582063717  1.0000
  N   N14       1.0  0.09329109322963071  0.7181680501145208  0.4435503709262037  1.0000
  N   N15       1.0  0.7253923026452898  0.281833069325046  0.37513874448193013  1.0000
  N   N16       1.0  0.3751301776161925  0.28181419085379394  0.7253773258628443  1.0000
  N   N17       1.0  0.5564428964632101  0.2746194568203039  0.6497410756414368  1.0000
  N   N18       1.0  0.6497599353526127  0.274627346613471  0.5564465749979634  1.0000
  N   N19       1.0  0.28180989373279175  0.7253722980190035  0.37512094075598423  1.0000
  N   N20       1.0  0.37511700884260096  0.7253760753087521  0.2818201408137284  1.0000
  N   N21       1.0  0.9066727617727182  0.6248623223694453  0.35024028969642274  1.0000
  N   N22       1.0  0.3502631920823588  0.6248732141388231  0.90669839053988  1.0000
  N   N23       1.0  0.2818273264707969  0.37512837522164943  0.7253869717007433  1.0000
  N   N24       1.0  0.09332692330281127  0.4435661548001307  0.7181882040550462  1.0000
