data_image0
_chemical_formula_structural       Zn4H40C48S4N16O20
_chemical_formula_sum              "Zn4 H40 C48 S4 N16 O20"
_cell_length_a       6.688644229071719
_cell_length_b       14.860903518508822
_cell_length_c       16.52187205372575
_cell_angle_alpha    90.000475740202
_cell_angle_beta     97.9107569210463
_cell_angle_gamma    90.0007426177599

_space_group_name_H-M_alt    "P 1"
_space_group_IT_number       1

loop_
  _space_group_symop_operation_xyz
  'x, y, z'

loop_
  _atom_site_type_symbol
  _atom_site_label
  _atom_site_symmetry_multiplicity
  _atom_site_fract_x
  _atom_site_fract_y
  _atom_site_fract_z
  _atom_site_occupancy
  Zn  Zn1       1.0  0.13076408812705148  0.17752998197172332  0.5882876090101732  1.0000
  Zn  Zn2       1.0  0.6307477929485115  0.3224684984926115  0.08828412877350897  1.0000
  Zn  Zn3       1.0  0.8692344256239012  0.8224698899077297  0.4117135140732273  1.0000
  Zn  Zn4       1.0  0.3692507208672424  0.6775354108264154  0.9117169943286001  1.0000
  H   H1        1.0  0.005573184284216398  0.34242349253980114  0.4707519572319824  1.0000
  H   H2        1.0  0.5055267237068506  0.1575824973667964  0.9707456224658274  1.0000
  H   H3        1.0  0.9944419422901873  0.6575797439333968  0.5292518940165962  1.0000
  H   H4        1.0  0.4944461478180813  0.8424241035144604  0.029257723932040795  1.0000
  H   H5        1.0  0.007193264017693901  0.3736698957102862  0.32056722371569885  1.0000
  H   H6        1.0  0.5071729821532499  0.1263300088986909  0.8205645132040048  1.0000
  H   H7        1.0  0.9927886489561075  0.6263286303063893  0.6794335929096247  1.0000
  H   H8        1.0  0.4928089519204732  0.8736732274837494  0.179440541414202  1.0000
  H   H9        1.0  0.10760375569637398  0.2509396886412958  0.2315766832827677  1.0000
  H   H10       1.0  0.6076070209039415  0.24905392220276212  0.7315731606947722  1.0000
  H   H11       1.0  0.8923872109453796  0.7490635477473261  0.7684240253270005  1.0000
  H   H12       1.0  0.3923975154629957  0.7509398935223716  0.2684252668297518  1.0000
  H   H13       1.0  0.2052852230587163  0.10000126261309111  0.2958403867395489  1.0000
  H   H14       1.0  0.7052842767652621  0.3999961990837947  0.7958377656052917  1.0000
  H   H15       1.0  0.7947253542366539  0.9000046654526133  0.7041589778569062  1.0000
  H   H16       1.0  0.2947217720593827  0.5999989624620882  0.20416135024774457  1.0000
  H   H17       1.0  0.2590805671932159  0.00023081836220480002  0.4233586637486937  1.0000
  H   H18       1.0  0.7590752973886337  0.4997701497310417  0.9233607907358489  1.0000
  H   H19       1.0  0.740919434901251  0.9997650160628312  0.5766383042427776  1.0000
  H   H20       1.0  0.24091568132102023  0.5002364512017579  0.07664233958725927  1.0000
  H   H21       1.0  0.42494742427544446  0.8301004332008904  0.6442006163200915  1.0000
  H   H22       1.0  0.9249458813427154  0.6698986873197584  0.14420224863052056  1.0000
  H   H23       1.0  0.5750616284619099  0.16989876578009705  0.3557956382251604  1.0000
  H   H24       1.0  0.0750496195607084  0.3301018574623671  0.855799919509181  1.0000
  H   H25       1.0  0.4773426063731776  0.7124601894580922  0.7526555447257479  1.0000
  H   H26       1.0  0.9773402993092759  0.7875388890507935  0.2526555968765152  1.0000
  H   H27       1.0  0.5226649639304098  0.2875369908235399  0.2473460757322385  1.0000
  H   H28       1.0  0.0226567229866887  0.212458291214304  0.7473490758431892  1.0000
  H   H29       1.0  0.1783252693744117  0.8621656149408496  0.9099968489294951  1.0000
  H   H30       1.0  0.6783196513099767  0.6378358704204461  0.4099925694709653  1.0000
  H   H31       1.0  0.8216656942314701  0.13783560272518267  0.09000325424648278  1.0000
  H   H32       1.0  0.3216894374150811  0.36215996406115647  0.5900109501519424  1.0000
  H   H33       1.0  0.1487656386867116  0.9950170367644945  0.8141737709250733  1.0000
  H   H34       1.0  0.6487769091923922  0.5049807021835522  0.31417365878852616  1.0000
  H   H35       1.0  0.8512313565887837  0.0049808163820089  0.18582545297781652  1.0000
  H   H36       1.0  0.3512457614553384  0.49501715105788696  0.6858300014998804  1.0000
  H   H37       1.0  0.3062325984693289  0.9239607385349515  0.5574873101381712  1.0000
  H   H38       1.0  0.8062310735755389  0.5760395853847625  0.05749066009655479  1.0000
  H   H39       1.0  0.6937583411411553  0.0760424978284746  0.4425079496516631  1.0000
  H   H40       1.0  0.19376292991994148  0.42396163231038736  0.9425138468461752  1.0000
  C   C1        1.0  0.055271268512363685  0.292067155983638  0.4298449978770549  1.0000
  C   C2        1.0  0.5552581283369733  0.20793268917602606  0.9298420814637252  1.0000
  C   C3        1.0  0.9447242293659811  0.7079320429824921  0.5701565648319757  1.0000
  C   C4        1.0  0.4447313348466935  0.7920685284936441  0.07015975508772238  1.0000
  C   C5        1.0  0.0548403301877087  0.30850184163497124  0.34657581846218477  1.0000
  C   C6        1.0  0.5548326971510846  0.19149521471945977  0.8465724758942981  1.0000
  C   C7        1.0  0.94515213085851  0.6915007218378195  0.6534219459201295  1.0000
  C   C8        1.0  0.4451673320394605  0.8085046571703527  0.1534299409358155  1.0000
  C   C9        1.0  0.11086988254925959  0.23949453199058726  0.2971343295588795  1.0000
  C   C10       1.0  0.6108765460394777  0.26050037506415447  0.7971335005383935  1.0000
  C   C11       1.0  0.8891255943479663  0.7605073585823305  0.702862995191566  1.0000
  C   C12       1.0  0.38913555550070816  0.7394927677949923  0.20286897401884832  1.0000
  C   C13       1.0  0.1640416009259056  0.1561237414653363  0.3326565027867757  1.0000
  C   C14       1.0  0.6640479277096104  0.34387112869256964  0.8326574914587113  1.0000
  C   C15       1.0  0.83595991970882  0.8438781491322231  0.6673423644039147  1.0000
  C   C16       1.0  0.3359566176677474  0.6561226870409628  0.16734275233912393  1.0000
  C   C17       1.0  0.164234603691078  0.14471230604721094  0.41661655044352836  1.0000
  C   C18       1.0  0.664230721824161  0.3552880495040683  0.9166152483382317  1.0000
  C   C19       1.0  0.8357714482774412  0.8552916032872275  0.5833831708744839  1.0000
  C   C20       1.0  0.3357768485010268  0.6447104765907598  0.0833863721259931  1.0000
  C   C21       1.0  0.220202405259613  0.05919497813953001  0.4578981895047392  1.0000
  C   C22       1.0  0.7202042723068942  0.4408060827389663  0.9578948186086647  1.0000
  C   C23       1.0  0.779800609747184  0.9408042208224148  0.5420977334491396  1.0000
  C   C24       1.0  0.2797942294949607  0.5591978265688625  0.042103882795693395  1.0000
  C   C25       1.0  0.2510284734978541  0.0012251197603135003  0.6651878990592761  1.0000
  C   C26       1.0  0.7510284006256996  0.49877342171334504  0.16518602758994663  1.0000
  C   C27       1.0  0.7489700342677492  0.9987760979267295  0.3348120131814838  1.0000
  C   C28       1.0  0.24896558771200722  0.5012190481820654  0.8348154521900568  1.0000
  C   C29       1.0  0.2876128141864456  0.9236586364653763  0.7223602855662604  1.0000
  C   C30       1.0  0.7876052462106884  0.576339734685618  0.222360279601773  1.0000
  C   C31       1.0  0.7123962355474305  0.0763405625128115  0.27763536355454477  1.0000
  C   C32       1.0  0.2123992932893231  0.4236621559214627  0.7776387533846076  1.0000
  C   C33       1.0  0.37795627707185997  0.8428972359934408  0.7037340662332809  1.0000
  C   C34       1.0  0.8779497830404424  0.6571008147990657  0.20373290955301826  1.0000
  C   C35       1.0  0.6220527756546942  0.15710129008095922  0.2962621883088445  1.0000
  C   C36       1.0  0.1220502341253962  0.3428983841729476  0.7962670855762326  1.0000
  C   C37       1.0  0.40305096222965625  0.7758296539583044  0.7628931082872441  1.0000
  C   C38       1.0  0.9030451026386573  0.7241717794226474  0.2628906740008006  1.0000
  C   C39       1.0  0.596949045914961  0.2241688720987157  0.23710507056557617  1.0000
  C   C40       1.0  0.09695491449478769  0.2758254008295823  0.7371093211190924  1.0000
  C   C41       1.0  0.24173795949786134  0.8607524306695424  0.8526309083059758  1.0000
  C   C42       1.0  0.7417354146797094  0.6392495667771032  0.35262862401550876  1.0000
  C   C43       1.0  0.758256010916199  0.13924609536843496  0.1473669389554715  1.0000
  C   C44       1.0  0.2582736681031932  0.36075030513847395  0.6473736847772286  1.0000
  C   C45       1.0  0.2212320257923821  0.9328607943208954  0.7988940253303056  1.0000
  C   C46       1.0  0.721234728542079  0.5671426075183845  0.29889451439295556  1.0000
  C   C47       1.0  0.778770992250294  0.0671404233636395  0.20110250305736338  1.0000
  C   C48       1.0  0.27878491727661725  0.43285793733431893  0.701107769263359  1.0000
  S   S1        1.0  0.6642454295654616  0.20173921670951242  0.5605346661109039  1.0000
  S   S2        1.0  0.1642391399906558  0.29826525841608037  0.0605353514229137  1.0000
  S   S3        1.0  0.3357530692329149  0.7982646925955167  0.43946342986901493  1.0000
  S   S4        1.0  0.8357548514693249  0.7017346134546827  0.9394667338158341  1.0000
  N   N1        1.0  0.1106134081015995  0.21273918793099972  0.4639236055294943  1.0000
  N   N2        1.0  0.6106012988554423  0.2872599467057598  0.9639201305386749  1.0000
  N   N3        1.0  0.889395677706375  0.7872620298005728  0.5360793086939138  1.0000
  N   N4        1.0  0.3894002337499884  0.7127392522766202  0.0360811583372964  1.0000
  N   N5        1.0  0.2135616804757845  0.058111937225589806  0.535564135974674  1.0000
  N   N6        1.0  0.713564318878163  0.44188653775260184  0.0355638022728826  1.0000
  N   N7        1.0  0.7864368273006191  0.9418899533680476  0.4644357762692052  1.0000
  N   N8        1.0  0.2864357073089039  0.5581133341344043  0.9644380091327918  1.0000
  N   N9        1.0  0.261012155764945  0.9862261218936087  0.5838307365483146  1.0000
  N   N10       1.0  0.7610146578196151  0.5137687992051809  0.0838314193303873  1.0000
  N   N11       1.0  0.7389863309439305  0.013773077054047206  0.4161649377120326  1.0000
  N   N12       1.0  0.2389974197899676  0.48623039979093374  0.9161662118594194  1.0000
  N   N13       1.0  0.33442443345920486  0.7841859417970911  0.8351072450892119  1.0000
  N   N14       1.0  0.8344152837827182  0.7158164319359487  0.3351039621450482  1.0000
  N   N15       1.0  0.6655755716927345  0.2158132571637239  0.16489032834228817  1.0000
  N   N16       1.0  0.1655817115467713  0.284184785743527  0.6648952617734378  1.0000
  O   O1        1.0  0.2069473885074231  0.0761573014447947  0.6918039714175279  1.0000
  O   O2        1.0  0.7069509599718415  0.4238331547271131  0.19180415876532206  1.0000
  O   O3        1.0  0.7930631735869654  0.9238371871947849  0.30819236600373756  1.0000
  O   O4        1.0  0.2930596172803277  0.5761700817122132  0.8081952058186628  1.0000
  O   O5        1.0  0.4946262249163311  0.19116018382727168  0.609101942371062  1.0000
  O   O6        1.0  0.9946155570152795  0.3088405999991864  0.10910411623837749  1.0000
  O   O7        1.0  0.5053722679182968  0.8088464170985434  0.39089494277246206  1.0000
  O   O8        1.0  0.005376936982763399  0.6911565802516294  0.8909003077877954  1.0000
  O   O9        1.0  0.839489282319235  0.14572044647615462  0.6029342318319735  1.0000
  O   O10       1.0  0.339490825673856  0.35428610934962296  0.10293516247491398  1.0000
  O   O11       1.0  0.16050921950422037  0.8542848086448631  0.3970644695786163  1.0000
  O   O12       1.0  0.6605046721828883  0.6457117438033183  0.8970664002278781  1.0000
  O   O13       1.0  0.7255957754956058  0.29589043847093427  0.554364877597841  1.0000
  O   O14       1.0  0.22558192638707195  0.20411231703307206  0.054362625387909695  1.0000
  O   O15       1.0  0.2744042267176638  0.7041127979266621  0.4456320904279281  1.0000
  O   O16       1.0  0.7743999595554528  0.7958862089584144  0.9456327424174801  1.0000
  O   O17       1.0  0.6050315942769373  0.16112201797292874  0.4770493000751158  1.0000
  O   O18       1.0  0.1050273873323349  0.3388846072780042  0.9770486283948043  1.0000
  O   O19       1.0  0.39496691650293764  0.8388798726235083  0.522951217593203  1.0000
  O   O20       1.0  0.8949620849373545  0.661121320746233  0.022955024451782394  1.0000
