data_image0
_chemical_formula_structural       Ca2Cu2H8C8O16
_chemical_formula_sum              "Ca2 Cu2 H8 C8 O16"
_cell_length_a       6.532845979084507
_cell_length_b       7.3717362973311555
_cell_length_c       8.387648065052298
_cell_angle_alpha    90.00018690374199
_cell_angle_beta     90.00033045479341
_cell_angle_gamma    97.52033272966082

_space_group_name_H-M_alt    "P 1"
_space_group_IT_number       1

loop_
  _space_group_symop_operation_xyz
  'x, y, z'

loop_
  _atom_site_type_symbol
  _atom_site_label
  _atom_site_symmetry_multiplicity
  _atom_site_fract_x
  _atom_site_fract_y
  _atom_site_fract_z
  _atom_site_occupancy
  Ca  Ca1       1.0  0.7500000813655773  7.214452679999403e-07  0.1373584296613046  1.0000
  Ca  Ca2       1.0  0.24999934321938616  0.9999986620939723  0.8626228132309848  1.0000
  Cu  Cu1       1.0  0.7499960741232101  0.4999993740338552  0.4046247606442037  1.0000
  Cu  Cu2       1.0  0.2500050842114661  0.500001376987086  0.5953803268404485  1.0000
  H   H1        1.0  0.2737053368483018  0.1545303514497505  0.4464263369037411  1.0000
  H   H2        1.0  0.22629189856304066  0.845464866616069  0.4464260138810943  1.0000
  H   H3        1.0  0.7262650064613679  0.8454690487715123  0.5535704049043204  1.0000
  H   H4        1.0  0.7737322186889061  0.15453587124400056  0.5535707280499621  1.0000
  H   H5        1.0  0.40903339077156897  0.4281563205292043  0.1547970049489464  1.0000
  H   H6        1.0  0.0909651586437548  0.5718416291600973  0.1547988760804699  1.0000
  H   H7        1.0  0.5909446840633947  0.5718745488961828  0.845206890296936  1.0000
  H   H8        1.0  0.9090580678881183  0.42812216193659924  0.8452026347136937  1.0000
  C   C1        1.0  0.1280668421458557  0.1928061423279955  0.3978045666156333  1.0000
  C   C2        1.0  0.37193999621023716  0.8071943150209788  0.397804791445175  1.0000
  C   C3        1.0  0.8719503557977505  0.8071685995292055  0.6021826374285126  1.0000
  C   C4        1.0  0.628042467295664  0.1928351834379995  0.6021836048274167  1.0000
  C   C5        1.0  0.5055934913671009  0.31589212272514533  0.14378205707959074  1.0000
  C   C6        1.0  0.9944028747174514  0.684106763398809  0.14378367800209446  1.0000
  C   C7        1.0  0.49445277270073973  0.6841031288400785  0.8562373372507821  1.0000
  C   C8        1.0  0.005549101508499608  0.31589264738030914  0.8562321394338426  1.0000
  O   O1        1.0  0.08685473293932942  0.35486965059435255  0.4305731257567587  1.0000
  O   O2        1.0  0.41316083543478044  0.6451364297136093  0.4305826162213222  1.0000
  O   O3        1.0  0.9131232785628568  0.6451092188900845  0.5693902336184422  1.0000
  O   O4        1.0  0.5868690765071988  0.3548930415503477  0.569390281176844  1.0000
  O   O5        1.0  0.4641141694406485  0.1921600089706672  0.040842324416757905  1.0000
  O   O6        1.0  0.03588325615498182  0.8078360364826904  0.0408422297151034  1.0000
  O   O7        1.0  0.5359082295257166  0.8078188351998818  0.9591603786261302  1.0000
  O   O8        1.0  0.9640965676385633  0.19217567406799668  0.9591521276730431  1.0000
  O   O9        1.0  0.6594461132499063  0.3157714405784659  0.2381223177295624  1.0000
  O   O10       1.0  0.8405527487459707  0.6842292566467519  0.2381208615897137  1.0000
  O   O11       1.0  0.34056613484669646  0.6842730935616572  0.7619221134096676  1.0000
  O   O12       1.0  0.1594371170687623  0.31572634312711045  0.7619188004561791  1.0000
  O   O13       1.0  0.015363449377723304  0.07918640019857288  0.3153996457528621  1.0000
  O   O14       1.0  0.4846352732075586  0.920815042275187  0.3153971224819473  1.0000
  O   O15       1.0  0.9846438313149762  0.9208143473012168  0.6845982883696137  1.0000
  O   O16       1.0  0.5153538433713791  0.07918708403370539  0.6845984271429159  1.0000
