data_image0
_chemical_formula_structural       Zn2H38C50S2N10O4
_chemical_formula_sum              "Zn2 H38 C50 S2 N10 O4"
_cell_length_a       8.690356365766387
_cell_length_b       9.03145445375788
_cell_length_c       16.141262643296674
_cell_angle_alpha    77.53102502872974
_cell_angle_beta     88.83399346888935
_cell_angle_gamma    64.49873999954666

_space_group_name_H-M_alt    "P 1"
_space_group_IT_number       1

loop_
  _space_group_symop_operation_xyz
  'x, y, z'

loop_
  _atom_site_type_symbol
  _atom_site_label
  _atom_site_symmetry_multiplicity
  _atom_site_fract_x
  _atom_site_fract_y
  _atom_site_fract_z
  _atom_site_occupancy
  Zn  Zn1       1.0  0.9691418763145516  0.0986540443871036  0.08931832184586602  1.0000
  Zn  Zn2       1.0  0.030859008454846966  0.9013536314898829  0.9106850658433459  1.0000
  H   H1        1.0  0.6286537051104586  0.77138765146735  0.035067151533326145  1.0000
  H   H2        1.0  0.37136541707037185  0.22860730751873598  0.9649364485459415  1.0000
  H   H3        1.0  0.5384868896283092  0.9251823281061391  0.09880290333299509  1.0000
  H   H4        1.0  0.4615205362604937  0.0748078033880333  0.9012051680407966  1.0000
  H   H5        1.0  0.7201854502930443  0.7336349300443173  0.14040605070908196  1.0000
  H   H6        1.0  0.2798285737424564  0.2663637823156293  0.8595958785544868  1.0000
  H   H7        1.0  0.9837670195409203  0.7544850860147818  0.19455369456834856  1.0000
  H   H8        1.0  0.016225775253254002  0.24551742149314748  0.8054454945665555  1.0000
  H   H9        1.0  0.1697958795884134  0.5164536218453291  0.3118746209220832  1.0000
  H   H10       1.0  0.8302009807680191  0.48354749163726046  0.6881216067110005  1.0000
  H   H11       1.0  0.5223820635501254  0.7412469252416186  0.2904767529234108  1.0000
  H   H12       1.0  0.4776124097688735  0.25875175568424413  0.7095216751690645  1.0000
  H   H13       1.0  0.31517688111487957  0.9776623854493067  0.1783566778674555  1.0000
  H   H14       1.0  0.6848170466381305  0.022340161797842494  0.8216437330611656  1.0000
  H   H15       1.0  0.5856957920918546  0.4867336057862985  0.40509835403497624  1.0000
  H   H16       1.0  0.41430045678330163  0.5132662767804277  0.5948986595824125  1.0000
  H   H17       1.0  0.1836666793788026  0.352130808733186  0.49731585059023337  1.0000
  H   H18       1.0  0.8163335520824758  0.6478678638461302  0.5026831356173034  1.0000
  H   H19       1.0  0.034639874172213966  0.24834116368946008  0.6122950057805099  1.0000
  H   H20       1.0  0.9653620532134963  0.751656265433489  0.38770474295275653  1.0000
  H   H21       1.0  0.20291467850852024  0.011035386791590399  0.7341368037691752  1.0000
  H   H22       1.0  0.7970872696212296  0.9889619963218762  0.2658617114411044  1.0000
  H   H23       1.0  0.7894714363245471  0.8455002452064876  0.6738058493358423  1.0000
  H   H24       1.0  0.21053001107168973  0.15449828307412616  0.3261894245734211  1.0000
  H   H25       1.0  0.9370138299576278  0.9579999311464107  0.5634759743901656  1.0000
  H   H26       1.0  0.0629859285417709  0.0420024467210141  0.4365206773230312  1.0000
  H   H27       1.0  0.7691065145118684  0.202817038833949  0.44357970445692985  1.0000
  H   H28       1.0  0.230892128428323  0.7971878824199337  0.5564172490307158  1.0000
  H   H29       1.0  0.37760258433004174  0.7276634292492474  0.7653659546611353  1.0000
  H   H30       1.0  0.6223993049120151  0.27233146275749925  0.23463350402696656  1.0000
  H   H31       1.0  0.4245586707831917  0.47314124976060856  0.8692101835359838  1.0000
  H   H32       1.0  0.57545406771888  0.5268472743952939  0.13078936375321606  1.0000
  H   H33       1.0  0.6138435869344574  0.2270075950825188  0.983920502432767  1.0000
  H   H34       1.0  0.38616865451728427  0.7729873095061421  0.0160807009762394  1.0000
  H   H35       1.0  0.9696779608658158  0.4144360727849374  0.9858721071607875  1.0000
  H   H36       1.0  0.03032121057952241  0.5855702634227385  0.014128994434528908  1.0000
  H   H37       1.0  0.7949622646247149  0.6728514552378257  0.8729467917897438  1.0000
  H   H38       1.0  0.20503567348604423  0.3271524421428679  0.12705649853568704  1.0000
  C   C1        1.0  0.9063687167499738  0.3332867247565047  0.21953140736008694  1.0000
  C   C2        1.0  0.09362464503178088  0.6667275992221917  0.780479874439628  1.0000
  C   C3        1.0  0.6568232899673774  0.8301198369111943  0.08158612765848261  1.0000
  C   C4        1.0  0.34318892739591417  0.16987774282211623  0.9184190663646703  1.0000
  C   C5        1.0  0.7723352522127196  0.910230549677209  0.04676963044290972  1.0000
  C   C6        1.0  0.22767130069522062  0.08977469576074529  0.9532371091236771  1.0000
  C   C7        1.0  0.10358453482305659  0.7477969964600176  0.2179929728414153  1.0000
  C   C8        1.0  0.8964111614585019  0.252204146297565  0.7820038832824567  1.0000
  C   C9        1.0  0.20716237830404075  0.6156990795728986  0.28338367330192693  1.0000
  C   C10       1.0  0.792834443908738  0.38429949679348135  0.7166122642859849  1.0000
  C   C11       1.0  0.3604076204329303  0.6115535379175155  0.3124675670931296  1.0000
  C   C12       1.0  0.6395886665858795  0.388448881765413  0.6875297365694237  1.0000
  C   C13       1.0  0.40294997136655286  0.7409343241543239  0.2719248977946621  1.0000
  C   C14       1.0  0.5970451515773758  0.2590681248036049  0.7280730343586728  1.0000
  C   C15       1.0  0.2896853471733748  0.8710473821485465  0.2081976424976801  1.0000
  C   C16       1.0  0.7103068846551962  0.12895640855497698  0.791802005905204  1.0000
  C   C17       1.0  0.4695114909850701  0.4794690213649913  0.3844005044110902  1.0000
  C   C18       1.0  0.5304859115929473  0.5205308549314793  0.6155964974770073  1.0000
  C   C19       1.0  0.5255252558267215  0.2336414617728693  0.4888541661832306  1.0000
  C   C20       1.0  0.47447331082616967  0.7663583852486014  0.5111422072140785  1.0000
  C   C21       1.0  0.4368758748948379  0.17071249328592583  0.5525809306583227  1.0000
  C   C22       1.0  0.5631254928696734  0.8292835898974573  0.44741652025176404  1.0000
  C   C23       1.0  0.25599011984296277  0.2471829587250909  0.550418292086917  1.0000
  C   C24       1.0  0.744009531253084  0.752814413924142  0.44957962982043415  1.0000
  C   C25       1.0  0.1738957552563107  0.18853084670571715  0.6142066918815702  1.0000
  C   C26       1.0  0.8261073362042806  0.8114665531422316  0.38579242836091515  1.0000
  C   C27       1.0  0.2681444115279703  0.051973099517482496  0.6821853013236634  1.0000
  C   C28       1.0  0.731859242898231  0.9480230171348653  0.31781335965084173  1.0000
  C   C29       1.0  0.44613459137821804  0.9716290411380156  0.6859167629590531  1.0000
  C   C30       1.0  0.5538679093451222  0.0283670817845874  0.31408190974474354  1.0000
  C   C31       1.0  0.5350157313426677  0.03025249532468169  0.620679629764723  1.0000
  C   C32       1.0  0.46498393012539174  0.9697448543198134  0.37931767538113803  1.0000
  C   C33       1.0  0.7157917053989775  0.9543494870711696  0.6227716798121179  1.0000
  C   C34       1.0  0.28420914791559676  0.0456503934192725  0.3772259036496167  1.0000
  C   C35       1.0  0.7976301456191093  0.017780190250675797  0.5607677890937666  1.0000
  C   C36       1.0  0.2023696025082771  0.9822222106214864  0.43922947938091994  1.0000
  C   C37       1.0  0.7036754827402729  0.15700203855501368  0.49387850362403907  1.0000
  C   C38       1.0  0.2963237127935157  0.8430016225080053  0.5061186073571307  1.0000
  C   C39       1.0  0.4942183002186977  0.7299175692099593  0.7894392901131938  1.0000
  C   C40       1.0  0.5057876130975528  0.2700760207904125  0.21055967411907522  1.0000
  C   C41       1.0  0.5953376438862744  0.5927874067477532  0.8612325530165422  1.0000
  C   C42       1.0  0.40466830757362954  0.40720872036882133  0.1387667012608915  1.0000
  C   C43       1.0  0.5437493358163362  0.46596176675574  0.8941529263458962  1.0000
  C   C44       1.0  0.4562589230492831  0.5340343478203237  0.10584630447295502  1.0000
  C   C45       1.0  0.6486301670842918  0.32861176407104153  0.9574268703831168  1.0000
  C   C46       1.0  0.35137864437492533  0.6713830903141654  0.04257251792925839  1.0000
  C   C47       1.0  0.8464542343430279  0.4352019873609335  0.9587884933797711  1.0000
  C   C48       1.0  0.15354891266083107  0.5648005327289098  0.04121244047604481  1.0000
  C   C49       1.0  0.7498263259212191  0.5772867691354976  0.896298879446242  1.0000
  C   C50       1.0  0.25017961182225423  0.42271201012098913  0.10370374868384152  1.0000
  S   S1        1.0  0.8677693641176843  0.45250624243568177  0.2862059642210256  1.0000
  S   S2        1.0  0.13222278139033244  0.5475003614409459  0.7138013753649874  1.0000
  N   N1        1.0  0.9337122430744244  0.24618381270689574  0.17015496442762415  1.0000
  N   N2        1.0  0.06629029244815138  0.753817476467084  0.8298467554124899  1.0000
  N   N3        1.0  0.142115488966894  0.8752931784791186  0.18098344952926476  1.0000
  N   N4        1.0  0.8578790502673924  0.124710599683894  0.819016175415044  1.0000
  N   N5        1.0  0.4250044989744947  0.3647435361814289  0.4217296559651444  1.0000
  N   N6        1.0  0.5749923128662713  0.635255063189696  0.5782668983842641  1.0000
  N   N7        1.0  0.5449093341325619  0.8412712128757107  0.7541329428976127  1.0000
  N   N8        1.0  0.4550960265900981  0.15872363731551786  0.24586586384112513  1.0000
  N   N9        1.0  0.7990009688829075  0.3108942589810866  0.9888147017362884  1.0000
  N   N10       1.0  0.20100662664135152  0.6891007397028233  0.011188398874359998  1.0000
  O   O1        1.0  0.8278985528362879  0.8906075991712327  0.9744612175723195  1.0000
  O   O2        1.0  0.17210750636574082  0.1094013975643051  0.025544421022921402  1.0000
  O   O3        1.0  0.8052186931582666  0.9921606813534396  0.09333814252330093  1.0000
  O   O4        1.0  0.19477591567449787  0.007853429312326903  0.90666757669365  1.0000
