data_image0
_chemical_formula_structural       Ag2H28C38N14O6
_chemical_formula_sum              "Ag2 H28 C38 N14 O6"
_cell_length_a       9.04624411600384
_cell_length_b       9.948107399415413
_cell_length_c       11.669520571704975
_cell_angle_alpha    90.2887953598943
_cell_angle_beta     87.63918255454003
_cell_angle_gamma    82.9378654462438

_space_group_name_H-M_alt    "P 1"
_space_group_IT_number       1

loop_
  _space_group_symop_operation_xyz
  'x, y, z'

loop_
  _atom_site_type_symbol
  _atom_site_label
  _atom_site_symmetry_multiplicity
  _atom_site_fract_x
  _atom_site_fract_y
  _atom_site_fract_z
  _atom_site_occupancy
  Ag  Ag1       1.0  0.24560216351749628  0.3035966280547981  0.8190998294704885  1.0000
  Ag  Ag2       1.0  0.7543947373012188  0.6964012058629407  0.1808973537941441  1.0000
  H   H1        1.0  0.3532138987049152  0.11353923300136873  0.5542240570257775  1.0000
  H   H2        1.0  0.6467949828086219  0.8864526219894772  0.445775177478474  1.0000
  H   H3        1.0  0.3949684543085965  0.8846568566336614  0.45173967309385443  1.0000
  H   H4        1.0  0.6050328551646516  0.11533393406955382  0.5482607574288495  1.0000
  H   H5        1.0  0.21596054103572737  0.723229062970603  0.47361818276360174  1.0000
  H   H6        1.0  0.7840351214886995  0.2767637694639049  0.5263910650717563  1.0000
  H   H7        1.0  0.9851421647524248  0.7711008391801359  0.6002438467402911  1.0000
  H   H8        1.0  0.014857541932592299  0.22890215738477337  0.39976434249594933  1.0000
  H   H9        1.0  0.7038688311019001  0.0699102648385832  0.7400067820267325  1.0000
  H   H10       1.0  0.2961295649493607  0.9300926555701282  0.259991180943004  1.0000
  H   H11       1.0  0.7817681748626342  0.8970635973467012  0.7182934131790264  1.0000
  H   H12       1.0  0.2182386397453158  0.10294243264352336  0.2817050258795534  1.0000
  H   H13       1.0  0.6876910489262543  0.26038876328156146  0.8763248893915475  1.0000
  H   H14       1.0  0.3123045544601695  0.7396029882420053  0.12367407867747464  1.0000
  H   H15       1.0  0.549228993139188  0.37805540803087473  0.046241195779188594  1.0000
  H   H16       1.0  0.4507485901549657  0.6219311517531311  0.9537602987521867  1.0000
  H   H17       1.0  0.4958671349086359  0.25443190756416817  0.22134143409366666  1.0000
  H   H18       1.0  0.5041466481841183  0.7455580165562167  0.7786670142382377  1.0000
  H   H19       1.0  0.5764588983220378  0.003242333804330102  0.23516851574378714  1.0000
  H   H20       1.0  0.42358749362384884  0.9967529616790998  0.7648478988274976  1.0000
  H   H21       1.0  0.0834071116997634  0.8306380131312423  0.85895274981187  1.0000
  H   H22       1.0  0.916563141872686  0.1693776155642865  0.141005298514429  1.0000
  H   H23       1.0  0.2420469540490657  0.6184300937413595  0.7952534344113574  1.0000
  H   H24       1.0  0.7579410360641673  0.3815807343601065  0.20472526200068591  1.0000
  H   H25       1.0  0.8958224155840212  0.38783287444812237  0.8529395017903099  1.0000
  H   H26       1.0  0.10417192922702159  0.6121690741291774  0.14706978515608435  1.0000
  H   H27       1.0  0.7207868829892162  0.5901509707231655  0.9200278573796936  1.0000
  H   H28       1.0  0.2792161163649496  0.40985911477196185  0.07997502794930261  1.0000
  C   C1        1.0  0.14553486569669613  0.06632566598336352  0.6341543242018304  1.0000
  C   C2        1.0  0.8544690728995759  0.9336773008425753  0.36584424928219766  1.0000
  C   C3        1.0  0.27499496270729656  0.038796954606283414  0.5632654778655707  1.0000
  C   C4        1.0  0.7250147045561235  0.9611979869191173  0.4367397145169249  1.0000
  C   C5        1.0  0.297129911244383  0.9134418110608707  0.5083467818308733  1.0000
  C   C6        1.0  0.7028718491447634  0.0865530167426343  0.4916501917801314  1.0000
  C   C7        1.0  0.19329062491576113  0.8183047068064369  0.521832940551903  1.0000
  C   C8        1.0  0.8067088551616877  0.18169220417993873  0.4781752717644708  1.0000
  C   C9        1.0  0.06441150618699959  0.8448307775386895  0.5912805213684892  1.0000
  C   C10       1.0  0.9355864583768251  0.15517624549367787  0.4087251655494271  1.0000
  C   C11       1.0  0.042936807252033304  0.9707803047904805  0.6479064669932272  1.0000
  C   C12       1.0  0.9570670098112044  0.029224744516788803  0.35210067803269146  1.0000
  C   C13       1.0  0.794327433301923  0.9918455877608353  0.7629291271387546  1.0000
  C   C14       1.0  0.205674797431584  0.008161416866926202  0.23706865659704593  1.0000
  C   C15       1.0  0.7048444544437656  0.0665477949914575  0.9625007629386957  1.0000
  C   C16       1.0  0.2951576695866862  0.9334531637280534  0.0375030378726251  1.0000
  C   C17       1.0  0.6603359307397199  0.20509326145557344  0.952956276658746  1.0000
  C   C18       1.0  0.33966530083779395  0.794898564821132  0.047047583349844  1.0000
  C   C19       1.0  0.5839039190449923  0.2693242756274827  0.04810800576869671  1.0000
  C   C20       1.0  0.41608749606748313  0.730666458727207  0.9518954359965408  1.0000
  C   C21       1.0  0.5535191023270514  0.19798998842302507  0.14881946304864613  1.0000
  C   C22       1.0  0.44649567369469884  0.8020009680864959  0.8511906530448884  1.0000
  C   C23       1.0  0.5985175096632103  0.059495232531709505  0.15778497041588932  1.0000
  C   C24       1.0  0.40150851499036816  0.9404948095746879  0.8422272186456112  1.0000
  C   C25       1.0  0.6755105965548439  0.9934723495753206  0.0628099367433919  1.0000
  C   C26       1.0  0.3245102873812087  0.006529800269362303  0.937199026788392  1.0000
  C   C27       1.0  0.7973514680669711  0.8487438784713247  0.9418872093664419  1.0000
  C   C28       1.0  0.20265053605896816  0.151257040577903  0.058110597449491805  1.0000
  C   C29       1.0  0.8882753862493331  0.7273793556007889  0.8949687715405618  1.0000
  C   C30       1.0  0.1117093018158855  0.2726254418126786  0.1050220834048474  1.0000
  C   C31       1.0  0.036191366621750376  0.7351033265599157  0.8573841193704299  1.0000
  C   C32       1.0  0.9637868070264375  0.26490640961953466  0.14259415879826076  1.0000
  C   C33       1.0  0.12578450508084427  0.6169303205830372  0.823093657642957  1.0000
  C   C34       1.0  0.8741997796335285  0.3830754047274426  0.1768843573722876  1.0000
  C   C35       1.0  0.9326893180396781  0.48791104581137296  0.8570120901488636  1.0000
  C   C36       1.0  0.06729666353008669  0.5120938220911172  0.1429881347780011  1.0000
  C   C37       1.0  0.8354924111815759  0.6007155424771116  0.893508509292218  1.0000
  C   C38       1.0  0.16449691989608786  0.39928936120976743  0.10649328074229912  1.0000
  N   N1        1.0  0.7345480491622779  0.8585444943646152  0.04676969055852712  1.0000
  N   N2        1.0  0.265470763269704  0.14145556236589843  0.9532316560247268  1.0000
  N   N3        1.0  0.7817768385957679  0.9720370606096369  0.8860160679352094  1.0000
  N   N4        1.0  0.2182238797759695  0.02796485185997  0.11398007981043182  1.0000
  N   N5        1.0  0.07620555890834879  0.4949952636517169  0.8243408309453814  1.0000
  N   N6        1.0  0.9237790932699214  0.5050116445789996  0.1756628769671948  1.0000
  N   N7        1.0  0.9348517174058628  0.03412038187750001  0.7225526259537035  1.0000
  N   N8        1.0  0.06515142836089885  0.9658886907128735  0.27745025502962056  1.0000
  N   N9        1.0  0.967134418568783  0.15977774376848694  0.7515168183714567  1.0000
  N   N10       1.0  0.03287125669757527  0.8402282667373628  0.2484799572711651  1.0000
  N   N11       1.0  0.09311783780138683  0.17928108226156783  0.6997362675956399  1.0000
  N   N12       1.0  0.9068946369568494  0.8207168997593897  0.3002653652211863  1.0000
  N   N13       1.0  0.5394369992177558  0.366601401695931  0.7244485979052655  1.0000
  N   N14       1.0  0.46055678415173423  0.633395411868577  0.27555129733131883  1.0000
  O   O1        1.0  0.4879202944985294  0.2553503788983846  0.7001587552307029  1.0000
  O   O2        1.0  0.512084079407785  0.7446435373081287  0.2998509600021606  1.0000
  O   O3        1.0  0.45868189022884565  0.45389871816599486  0.7877191865534456  1.0000
  O   O4        1.0  0.5413107024114083  0.546098058912591  0.2122764764120149  1.0000
  O   O5        1.0  0.667503448444272  0.3866588395086482  0.6891222556865629  1.0000
  O   O6        1.0  0.3324865290502999  0.6133409713185501  0.31087523119432353  1.0000
