data_image0
_chemical_formula_structural       Ca2H60C48O26
_chemical_formula_sum              "Ca2 H60 C48 O26"
_cell_length_a       8.319528368
_cell_length_b       8.32197167665869
_cell_length_c       20.864
_cell_angle_alpha    90.0
_cell_angle_beta     90.0
_cell_angle_gamma    113.52667040660351

_space_group_name_H-M_alt    "P 1"
_space_group_IT_number       1

loop_
  _space_group_symop_operation_xyz
  'x, y, z'

loop_
  _atom_site_type_symbol
  _atom_site_label
  _atom_site_symmetry_multiplicity
  _atom_site_fract_x
  _atom_site_fract_y
  _atom_site_fract_z
  _atom_site_occupancy
  Ca  Ca1       1.0  0.5179350718006573  0.4821038511895708  0.7500086273006161  1.0000
  Ca  Ca2       1.0  0.48206506356316225  0.5178958240484095  0.2500081480061382  1.0000
  H   H1        1.0  0.9765129348547887  0.0023682202473765  0.6938310007668704  1.0000
  H   H2        1.0  0.02348720050902401  0.9976314549905967  0.19383052147239252  1.0000
  H   H3        1.0  0.0023106370693639984  0.9764603261161329  0.3061747507668713  1.0000
  H   H4        1.0  0.997691223591744  0.0235406597030519  0.8061757093558272  1.0000
  H   H5        1.0  0.6825556075200225  0.020873626939682307  0.4959130559815961  1.0000
  H   H6        1.0  0.3174452065289231  0.9791247377170862  0.9959111388036774  1.0000
  H   H7        1.0  0.020883211517506987  0.6825153087372655  0.5040855061349703  1.0000
  H   H8        1.0  0.9791155664760464  0.3174869876631305  0.0040864647239260005  1.0000
  H   H9        1.0  0.39912149081272474  0.9976615983584409  0.4464311733128811  1.0000
  H   H10       1.0  0.600879323236221  0.002336766298327601  0.9464306940184031  1.0000
  H   H11       1.0  0.9976648024959688  0.3991506134707876  0.553564513036811  1.0000
  H   H12       1.0  0.0023350221097473436  0.6008543040920318  0.0535640337423331  1.0000
  H   H13       1.0  0.1628127543188  0.0116484457989472  0.5155622124233119  1.0000
  H   H14       1.0  0.8371885830362302  0.9883512294390258  0.015561733128834  1.0000
  H   H15       1.0  0.011654340861987598  0.1629078656279432  0.4844320360429464  1.0000
  H   H16       1.0  0.9883461624288613  0.8370957413536646  0.9844310774539907  1.0000
  H   H17       1.0  0.21004153476818027  0.05821208562691282  0.6331532783742304  1.0000
  H   H18       1.0  0.7899567199192887  0.941788900192279  0.1331527990797525  1.0000
  H   H19       1.0  0.05820528336028019  0.2101189325738915  0.3668424079754615  1.0000
  H   H20       1.0  0.9417953753096171  0.7898820532453003  0.8668414493865058  1.0000
  H   H21       1.0  0.4894967313602265  0.0801407304410446  0.6820398773006104  1.0000
  H   H22       1.0  0.5105004767150803  0.9198576342157168  0.18203843941717682  1.0000
  H   H23       1.0  0.08014132828422761  0.4895099456101235  0.31795916411042674  1.0000
  H   H24       1.0  0.9198610556829651  0.5104923507902726  0.8179591641104267  1.0000
  H   H25       1.0  0.5747897615846327  0.13531882056564376  0.7985276073619618  1.0000
  H   H26       1.0  0.42520744649067416  0.864679544091125  0.29852664877300583  1.0000
  H   H27       1.0  0.13530635399199303  0.5747907755587606  0.2014666411042967  1.0000
  H   H28       1.0  0.8646931026866936  0.4252102102604241  0.7014671203987747  1.0000
  H   H29       1.0  0.3991241107669694  0.04679037037738  0.8755861771472411  1.0000
  H   H30       1.0  0.6008718953171197  0.9532079942793887  0.37558521855828536  1.0000
  H   H31       1.0  0.046707344469254494  0.399115227778104  0.1244210122699414  1.0000
  H   H32       1.0  0.9532921122094251  0.6008857580410878  0.6244214915644193  1.0000
  H   H33       1.0  0.2633838209655508  0.1267934897913179  0.8311014187116542  1.0000
  H   H34       1.0  0.7366121851185383  0.8732048748654437  0.3310995015337426  1.0000
  H   H35       1.0  0.12677019138763515  0.263421580986254  0.168902415644169  1.0000
  H   H36       1.0  0.8732299439761775  0.7365780942517192  0.668902415644169  1.0000
  H   H37       1.0  0.32187052734327176  0.2624832048395334  0.9385558857361929  1.0000
  H   H38       1.0  0.6781272040381197  0.7375164703984396  0.4385544478527592  1.0000
  H   H39       1.0  0.262465419526059  0.3218997145988993  0.061443155674844305  1.0000
  H   H40       1.0  0.7375347158377609  0.678099960639081  0.5614431556748443  1.0000
  H   H41       1.0  0.554783492022338  0.3438322911566658  0.9245552147239238  1.0000
  H   H42       1.0  0.445216120035397  0.6561660735001027  0.42455473542944594  1.0000
  H   H43       1.0  0.34382156199340136  0.5547506782689597  0.0754452645705541  1.0000
  H   H44       1.0  0.6561785733704184  0.4452489969690134  0.5754452645705541  1.0000
  H   H45       1.0  0.4387295756244001  0.7045671481851841  0.879912768404907  1.0000
  H   H46       1.0  0.5612705597394196  0.29543252705278894  0.3799132476993847  1.0000
  H   H47       1.0  0.7046403239143474  0.4387524459085555  0.12008339723926302  1.0000
  H   H48       1.0  0.2953603347555429  0.5612485399106362  0.6200829179447851  1.0000
  H   H49       1.0  0.3417667308932124  0.5610978230714281  0.9462974501533739  1.0000
  H   H50       1.0  0.6582327257854671  0.4389031627477636  0.4462974501533736  1.0000
  H   H51       1.0  0.561120241416269  0.3417969585367544  0.053701111963192716  1.0000
  H   H52       1.0  0.43888041725362836  0.6582040272824303  0.5537011119631927  1.0000
  H   H53       1.0  0.574573045363806  0.6435464870241674  0.9329045245398789  1.0000
  H   H54       1.0  0.42542709000000667  0.3564531882138056  0.4329045245398789  1.0000
  H   H55       1.0  0.6435712923270814  0.5745483180348145  0.0670940375766875  1.0000
  H   H56       1.0  0.3564305683340265  0.42545266778437  0.5670935582822096  1.0000
  H   H57       1.0  0.3948258308253756  0.7691866653502475  0.7676298888036825  1.0000
  H   H58       1.0  0.6051749832235701  0.23081169930652126  0.2676298888036825  1.0000
  H   H59       1.0  0.769220770860251  0.3948348695445959  0.23237154907975113  1.0000
  H   H60       1.0  0.2307793645035687  0.6051648056933772  0.7323715490797511  1.0000
  C   C1        1.0  0.0921303210299058  0.2825678618904917  0.7079692292944771  1.0000
  C   C2        1.0  0.9078710163251175  0.7174318133474815  0.20796874999999915  1.0000
  C   C3        1.0  0.2825713111901962  0.09211813212382942  0.29203268788343456  1.0000
  C   C4        1.0  0.7174288241736164  0.9078815431141438  0.7920331671779124  1.0000
  C   C5        1.0  0.9382541656419434  0.1030431370945877  0.7145235812883471  1.0000
  C   C6        1.0  0.06174717171308694  0.8969565381433926  0.21452310199386201  1.0000
  C   C7        1.0  0.10302938146628551  0.9382332933681781  0.2854831288343576  1.0000
  C   C8        1.0  0.8969719558887448  0.06176638186979491  0.7854836081288356  1.0000
  C   C9        1.0  0.7693813342727579  0.0582763041062222  0.6193893788343559  1.0000
  C   C10       1.0  0.23062120507348283  0.941723371131751  0.1193884202454001  1.0000
  C   C11       1.0  0.058288085768012456  0.7693596620700307  0.3806139762269964  1.0000
  C   C12       1.0  0.9417130962079696  0.23064263433036564  0.8806144555214744  1.0000
  C   C13       1.0  0.6022427781118935  0.049768010887639505  0.591801667944786  1.0000
  C   C14       1.0  0.39775563195462377  0.950230353769129  0.0918007093558302  1.0000
  C   C15       1.0  0.04976821795262513  0.6022395884315372  0.4081930598159502  1.0000
  C   C16       1.0  0.9502341660145674  0.39776270796885893  0.9081935391104281  1.0000
  C   C17       1.0  0.5769284154589868  0.0271866966306717  0.5252741564417179  1.0000
  C   C18       1.0  0.4230694713014529  0.9728103574448781  0.0252727185582842  1.0000
  C   C19       1.0  0.027187285613273156  0.5769191594446144  0.47472105061349623  1.0000
  C   C20       1.0  0.972810969074196  0.4230818263745704  0.9747215299079741  1.0000
  C   C21       1.0  0.4194515785164725  0.014398045178587903  0.4980253067484668  1.0000
  C   C22       1.0  0.5805440596405872  0.9855963877345459  0.998024827453989  1.0000
  C   C23       1.0  0.014397692531105132  0.4194855915329471  0.5019703796012251  1.0000
  C   C24       1.0  0.9856034894448696  0.5805167048674491  0.0019703796012251  1.0000
  C   C25       1.0  0.2865349191894282  0.023773943158524  0.5369143021472382  1.0000
  C   C26       1.0  0.7134646928682997  0.9762244214982447  0.0369138228527603  1.0000
  C   C27       1.0  0.023779837244248397  0.2866005202752078  0.4630828220858874  1.0000
  C   C28       1.0  0.976223070029029  0.7134030867064001  0.9630828220858874  1.0000
  C   C29       1.0  0.3119763969606596  0.04765797513873341  0.6029898389570576  1.0000
  C   C30       1.0  0.6880220131058651  0.9523403895180353  0.1029893596625797  1.0000
  C   C31       1.0  0.0476539640924614  0.3120349698274438  0.39700536809815656  1.0000
  C   C32       1.0  0.9523472178835135  0.6879673265729525  0.8970053680981566  1.0000
  C   C33       1.0  0.4693091533476164  0.0611333711451181  0.630570360429445  1.0000
  C   C34       1.0  0.5306880547276904  0.9388649935116433  0.1305694018404893  1.0000
  C   C35       1.0  0.06113091730000524  0.46932961613079993  0.3694272430981584  1.0000
  C   C36       1.0  0.9388714666671873  0.5306726802695962  0.8694272430981587  1.0000
  C   C37       1.0  0.8364158624126006  0.6058541714101011  0.6473495015337392  1.0000
  C   C38       1.0  0.1635842729512191  0.3941455038278719  0.1473490222392613  1.0000
  C   C39       1.0  0.6058500120335353  0.8363709899442568  0.3526528949386503  1.0000
  C   C40       1.0  0.3941454707444763  0.163626064131293  0.8526543328220839  1.0000
  C   C41       1.0  0.6934268447990064  0.5747213147546049  0.5985165835889603  1.0000
  C   C42       1.0  0.3065732905648062  0.42527836048336815  0.09851610429447531  1.0000
  C   C43       1.0  0.5747213343094373  0.6934101703401723  0.4014829371165618  1.0000
  C   C44       1.0  0.4252763970719542  0.3065895048978007  0.9014834164110399  1.0000
  C   C45       1.0  0.4452326583992132  0.5987770328733859  0.9094607937116592  1.0000
  C   C46       1.0  0.5547662749733888  0.4012226423645871  0.40946127300613716  1.0000
  C   C47       1.0  0.5988152108276096  0.4452411334817513  0.0905363305214735  1.0000
  C   C48       1.0  0.4011849245362029  0.5547585417562217  0.5905363305214735  1.0000
  O   O1        1.0  0.2407977744326217  0.2809191507276836  0.7186766679447842  1.0000
  O   O2        1.0  0.7592052882197038  0.719081835091508  0.21867618865030644  1.0000
  O   O3        1.0  0.28088201319727096  0.24072624616397326  0.28132524923312735  1.0000
  O   O4        1.0  0.7191193241577594  0.7592734290739998  0.7813252492331274  1.0000
  O   O5        1.0  0.058203259133954105  0.4147779838248198  0.6951672737730092  1.0000
  O   O6        1.0  0.9417968762298655  0.5852216914131532  0.19516679447852436  1.0000
  O   O7        1.0  0.4148431345907966  0.05823698666991112  0.3048336848159536  1.0000
  O   O8        1.0  0.5851582027642338  0.9417626885680692  0.8048346434049095  1.0000
  O   O9        1.0  0.7821968987600272  0.09761470972068052  0.6830981595091999  1.0000
  O   O10       1.0  0.21780323660379247  0.9023849655172924  0.18309815950919983  1.0000
  O   O11       1.0  0.0976410509113421  0.7822190849074886  0.31690231978527816  1.0000
  O   O12       1.0  0.9023590844524706  0.21778059033049155  0.8169027990797559  1.0000
  O   O13       1.0  0.8843537536478651  0.032440816703577  0.5896970858895685  1.0000
  O   O14       1.0  0.11564570303081483  0.9675601691156077  0.0896961273006127  1.0000
  O   O15       1.0  0.032428893914733685  0.8842819072566144  0.4103139378834372  1.0000
  O   O16       1.0  0.9675705627639458  0.1157190785625701  0.9103139378834371  1.0000
  O   O17       1.0  0.7737429334580028  0.47533994156216164  0.6967115605828199  1.0000
  O   O18       1.0  0.2262559999145992  0.5246597336758114  0.1967115605828198  1.0000
  O   O19       1.0  0.4753094113313665  0.7737278292446348  0.3032870015337394  1.0000
  O   O20       1.0  0.524686071446645  0.2262692248309151  0.8032884394171802  1.0000
  O   O21       1.0  0.5458793559591654  0.5803188071046606  0.6323284125766905  1.0000
  O   O22       1.0  0.4541195774134366  0.4196808681333124  0.1323288918711683  1.0000
  O   O23       1.0  0.5803192542636637  0.5458911492859573  0.3676735046012283  1.0000
  O   O24       1.0  0.4196786324967761  0.4541059047895928  0.8676739838957062  1.0000
  O   O25       1.0  0.35017524571967584  0.6498097546291606  0.7500067101226975  1.0000
  O   O26       1.0  0.6498231643468415  0.350188610027601  0.2500052722392638  1.0000
