data_image0
_chemical_formula_structural       Na4Zn4H44C36O40
_chemical_formula_sum              "Na4 Zn4 H44 C36 O40"
_cell_length_a       6.946367247991023
_cell_length_b       11.008896073871579
_cell_length_c       18.3804
_cell_angle_alpha    78.77682333399643
_cell_angle_beta     85.68755754091457
_cell_angle_gamma    73.67207818633158

_space_group_name_H-M_alt    "P 1"
_space_group_IT_number       1

loop_
  _space_group_symop_operation_xyz
  'x, y, z'

loop_
  _atom_site_type_symbol
  _atom_site_label
  _atom_site_symmetry_multiplicity
  _atom_site_fract_x
  _atom_site_fract_y
  _atom_site_fract_z
  _atom_site_occupancy
  Na  Na1       1.0  0.49711248421318993  0.2471901562802685  0.2522689020235305  1.0000
  Na  Na2       1.0  0.5028897905882274  0.7528074350146738  0.7477341432237736  1.0000
  Na  Na3       1.0  0.49371888680619236  0.7476052249787202  0.24898530832587804  1.0000
  Na  Na4       1.0  0.5062817526986693  0.2523962162403919  0.7510140702459793  1.0000
  Zn  Zn1       1.0  0.30479890955827926  0.9814929307674091  0.33747708332983  1.0000
  Zn  Zn2       1.0  0.6951996602173977  0.018506585489618  0.6625204022286013  1.0000
  Zn  Zn3       1.0  0.3134752789513655  0.48664100249593634  0.8380572882125676  1.0000
  Zn  Zn4       1.0  0.6865296916196824  0.5133604387231756  0.16194359945250622  1.0000
  H   H1        1.0  0.6840379701101468  0.8375336787251868  0.3709207674148374  1.0000
  H   H2        1.0  0.3159568946397967  0.1624677624939252  0.6290798633795376  1.0000
  H   H3        1.0  0.6892285509374286  0.9239442642604772  0.2873077376767982  1.0000
  H   H4        1.0  0.31077290621571046  0.0760552519965501  0.7126940182905841  1.0000
  H   H5        1.0  0.9477386154953249  0.0389227333680182  0.3952609937333946  1.0000
  H   H6        1.0  0.052263058874125114  0.9610796703321398  0.6047387872873742  1.0000
  H   H7        1.0  0.9041676052585714  0.1747172587247547  0.3379806963098773  1.0000
  H   H8        1.0  0.09583118173342338  0.8252851449754032  0.6620186227065474  1.0000
  H   H9        1.0  0.5221972328343012  0.055770001539968896  0.4092322092177056  1.0000
  H   H10       1.0  0.47780340667055987  0.9442314396791431  0.5907693455853575  1.0000
  H   H11       1.0  0.3297822705210223  0.1852554636616119  0.3996692913192277  1.0000
  H   H12       1.0  0.6702200042803952  0.8147421276333304  0.6003315776968705  1.0000
  H   H13       1.0  0.5263759959641803  0.5709456795097338  0.9067656556781216  1.0000
  H   H14       1.0  0.47362358306760644  0.4290480618610388  0.09324172338261857  1.0000
  H   H15       1.0  0.3301748958133003  0.6965889173087945  0.8950950721510152  1.0000
  H   H16       1.0  0.6698370759850931  0.3034096364671868  0.1049032328646149  1.0000
  H   H17       1.0  0.912072970563372  0.6800794799828438  0.8358727044732959  1.0000
  H   H18       1.0  0.08793426134468517  0.3199200362741834  0.1641272552137636  1.0000
  H   H19       1.0  0.959083720693343  0.5478788588396597  0.8961819208423095  1.0000
  H   H20       1.0  0.040925772551723645  0.45211873245528267  0.1038192870979486  1.0000
  H   H21       1.0  0.6923660772793666  0.3379819555220607  0.87550371639486  1.0000
  H   H22       1.0  0.30763971093996645  0.6620175607349665  0.12449465214552899  1.0000
  H   H23       1.0  0.7037645648938451  0.42521834979201145  0.7922447573142293  1.0000
  H   H24       1.0  0.2962325611931077  0.5747811664650158  0.2077544014443404  1.0000
  H   H25       1.0  0.11977758932556527  0.435844140503761  0.2429579435021836  1.0000
  H   H26       1.0  0.8802209804501188  0.5641553757532733  0.7570417182874607  1.0000
  H   H27       1.0  0.19932575038257033  0.412046796722251  0.3251089979205872  1.0000
  H   H28       1.0  0.8006703408397938  0.5879517570537374  0.6748903024468689  1.0000
  H   H29       1.0  0.8710252848617512  0.0582281781231018  0.2578942719160224  1.0000
  H   H30       1.0  0.12897905966885057  0.9417713381339253  0.74210413765109  1.0000
  H   H31       1.0  0.7897703141844303  0.0836646271203776  0.1755299172738489  1.0000
  H   H32       1.0  0.210236917723627  0.9163348891366496  0.8244678661820047  1.0000
  H   H33       1.0  0.25195369488488234  0.0320958553319315  0.8978876990712124  1.0000
  H   H34       1.0  0.7480380652712879  0.9679026984440569  0.10211063626083929  1.0000
  H   H35       1.0  0.22794925904112512  0.865149184803208  0.12969476656269308  1.0000
  H   H36       1.0  0.7720406486021785  0.1348503314538192  0.8703018770405181  1.0000
  H   H37       1.0  0.2629707215965524  0.2556022405937313  0.0622276542318829  1.0000
  H   H38       1.0  0.7370175507501953  0.7444011255874656  0.937772395447297  1.0000
  H   H39       1.0  0.24980406546829667  0.5195761412971294  0.39988338416411306  1.0000
  H   H40       1.0  0.7501961652124294  0.48042626240302866  0.6001142616521804  1.0000
  H   H41       1.0  0.2329880004213649  0.3620641936922198  0.6334659154116693  1.0000
  H   H42       1.0  0.7670095344897303  0.6379343600837686  0.3665338879868614  1.0000
  H   H43       1.0  0.2585553900402571  0.7531375660123345  0.5588936828241415  1.0000
  H   H44       1.0  0.7414415444388636  0.2468658001688695  0.44110612069465566  1.0000
  C   C1        1.0  0.24154101793888572  0.8077545152631059  0.9893299555885093  1.0000
  C   C2        1.0  0.7584639526321695  0.192246925956006  0.010666579614152691  1.0000
  C   C3        1.0  0.24071190637633313  0.9327644405360543  0.011405511971105368  1.0000
  C   C4        1.0  0.7592811058607366  0.0672379631640965  0.9885950592678442  1.0000
  C   C5        1.0  0.24839777732803003  0.0385233037352819  0.9562164323991595  1.0000
  C   C6        1.0  0.7515950176927362  0.9614762125217452  0.043782849439601486  1.0000
  C   C7        1.0  0.23772378040634126  0.9453257806247278  0.08577853665920543  1.0000
  C   C8        1.0  0.7622681969661399  0.0546756605943841  0.9142216321308254  1.0000
  C   C9        1.0  0.24599255377300722  0.06141110293140879  0.1044011964840337  1.0000
  C   C10       1.0  0.7540049811380883  0.9385874508445724  0.895600239087905  1.0000
  C   C11       1.0  0.25263096228410115  0.1660568543022691  0.048445983477563494  1.0000
  C   C12       1.0  0.7473566840221935  0.8339445869168428  0.9515564846238648  1.0000
  C   C13       1.0  0.251758590002467  0.1552664793322194  0.9742759940106324  1.0000
  C   C14       1.0  0.7482286474796849  0.8447359243679385  0.02572582945084178  1.0000
  C   C15       1.0  0.25383876523891746  0.0743170112333829  0.1831692593561769  1.0000
  C   C16       1.0  0.7461552818627479  0.925686354947814  0.8168273618692794  1.0000
  C   C17       1.0  0.26233406605152243  0.26455812669633616  0.9132691442178712  1.0000
  C   C18       1.0  0.7376537974710826  0.7354462019659067  0.08672971676354281  1.0000
  C   C19       1.0  0.25521871070746727  0.7552251873940179  0.4110998246385833  1.0000
  C   C20       1.0  0.7447804851086628  0.2447762538251013  0.5889012271334053  1.0000
  C   C21       1.0  0.24770559199798467  0.6474215357219605  0.47356377748459283  1.0000
  C   C22       1.0  0.7522915340889609  0.3525779805350666  0.52643646938958  1.0000
  C   C23       1.0  0.2463724568858794  0.5288650458405185  0.4577351910662273  1.0000
  C   C24       1.0  0.7536275565785289  0.4711344704165085  0.5422644296966794  1.0000
  C   C25       1.0  0.24196793648395953  0.4246225740265643  0.5145020875870401  1.0000
  C   C26       1.0  0.7580331118450374  0.5753779047115087  0.48549739156698024  1.0000
  C   C27       1.0  0.24471973463044344  0.2980669041989898  0.4939144064462084  1.0000
  C   C28       1.0  0.7552753473358109  0.7019374244632458  0.506085881574954  1.0000
  C   C29       1.0  0.2403937487292537  0.440805730279031  0.5882386234429833  1.0000
  C   C30       1.0  0.7596029685335636  0.5591947484590349  0.4117615228490266  1.0000
  C   C31       1.0  0.24771995085050946  0.5588482552836567  0.6045895530375205  1.0000
  C   C32       1.0  0.7522716176978362  0.44115414841650136  0.39540942705475873  1.0000
  C   C33       1.0  0.25017554500533373  0.6618568264008289  0.5470229915139839  1.0000
  C   C34       1.0  0.7498123185172787  0.338147502261414  0.4529775016408307  1.0000
  C   C35       1.0  0.2609235227878485  0.576050678960371  0.6823389023175466  1.0000
  C   C36       1.0  0.7390758646361134  0.4239469123345713  0.31766041657861893  1.0000
  O   O1        1.0  0.2351132830209222  0.811004813744411  0.9187516816903668  1.0000
  O   O2        1.0  0.7648953669673799  0.1889879651453157  0.0812468468673515  1.0000
  O   O3        1.0  0.25234237831399037  0.7072349201224384  0.03715855590342441  1.0000
  O   O4        1.0  0.7476743333747251  0.292762671172504  0.9628359182095708  1.0000
  O   O5        1.0  0.2796510556837788  0.24712567005040137  0.8473433112190634  1.0000
  O   O6        1.0  0.720346070403174  0.7528738462066257  0.15265639159730435  1.0000
  O   O7        1.0  0.2569262680086695  0.3733098221954805  0.9320143971166602  1.0000
  O   O8        1.0  0.7430743714961919  0.6266916190236316  0.067987701744201  1.0000
  O   O9        1.0  0.2376591473660952  0.1832737151946304  0.20028654014541297  1.0000
  O   O10       1.0  0.7623470496773732  0.8167248385813578  0.7997108408615361  1.0000
  O   O11       1.0  0.28077589968013683  0.9703618375082286  0.2317801637285015  1.0000
  O   O12       1.0  0.7192173297732508  0.0296434536350532  0.7682184325638275  1.0000
  O   O13       1.0  0.2700456908280982  0.7357695955962669  0.3456715616446004  1.0000
  O   O14       1.0  0.7299576188379078  0.2642289581797214  0.6543313419938173  1.0000
  O   O15       1.0  0.2500952232915452  0.8647112559287606  0.42887926465427034  1.0000
  O   O16       1.0  0.7499192270601611  0.1352882603282666  0.5711232101881408  1.0000
  O   O17       1.0  0.6178464031320559  0.8683301846494303  0.32093748268823663  1.0000
  O   O18       1.0  0.3821566893176396  0.1316654816834273  0.6790619553187867  1.0000
  O   O19       1.0  0.982046822473613  0.0806424366462082  0.3461411668261647  1.0000
  O   O20       1.0  0.017953817031248227  0.919359004572911  0.6538582117456927  1.0000
  O   O21       1.0  0.4230083767850985  0.108561124252688  0.37289815478299465  1.0000
  O   O22       1.0  0.5769947412730829  0.89144127944747  0.6271021292688417  1.0000
  O   O23       1.0  0.2372650500507376  0.2996155361967467  0.42366596907259446  1.0000
  O   O24       1.0  0.7627211781753046  0.7003926423896658  0.5763341217535682  1.0000
  O   O25       1.0  0.2578993025939055  0.1981546345962855  0.5426655373196425  1.0000
  O   O26       1.0  0.7420972230610798  0.8018496940659574  0.4573341656169916  1.0000
  O   O27       1.0  0.24484067134221013  0.6866455256563455  0.6970846052172419  1.0000
  O   O28       1.0  0.7551634559720808  0.3133511031575509  0.302915235238693  1.0000
  O   O29       1.0  0.29274422239863174  0.4737553062958638  0.7324044396300096  1.0000
  O   O30       1.0  0.7072594960915167  0.5262422849990784  0.2675942121281594  1.0000
  O   O31       1.0  0.426805266760951  0.6193642508453223  0.8696529684324547  1.0000
  O   O32       1.0  0.5732021567549381  0.38063141548752805  0.1303523311301831  1.0000
  O   O33       1.0  0.9911097842264027  0.5861037934516915  0.845923391353594  1.0000
  O   O34       1.0  0.008899517410839096  0.41389764776742055  0.1540779172890865  1.0000
  O   O35       1.0  0.6280251055987093  0.3722491680863911  0.8253880503423118  1.0000
  O   O36       1.0  0.3719783956751285  0.6277455357654205  0.17461040013127158  1.0000
  O   O37       1.0  0.23430047704535173  0.4334052135414765  0.27207573350434444  1.0000
  O   O38       1.0  0.7656985015544675  0.5665933402345047  0.7279245729252608  1.0000
  O   O39       1.0  0.7561474326201889  0.061149308087785  0.22877116136602638  1.0000
  O   O40       1.0  0.24385917324742223  0.9388482832071574  0.7712263202230858  1.0000
