data_image0
_chemical_formula_structural       Mn2H38C42N4O12
_chemical_formula_sum              "Mn2 H38 C42 N4 O12"
_cell_length_a       8.570925146825378
_cell_length_b       9.973132242881267
_cell_length_c       13.08379067879248
_cell_angle_alpha    73.43017769088671
_cell_angle_beta     79.01720284274415
_cell_angle_gamma    81.57460735750546

_space_group_name_H-M_alt    "P 1"
_space_group_IT_number       1

loop_
  _space_group_symop_operation_xyz
  'x, y, z'

loop_
  _atom_site_type_symbol
  _atom_site_label
  _atom_site_symmetry_multiplicity
  _atom_site_fract_x
  _atom_site_fract_y
  _atom_site_fract_z
  _atom_site_occupancy
  Mn  Mn1       1.0  0.9517423955545116  0.8435689008172385  0.820118922021216  1.0000
  Mn  Mn2       1.0  0.048257719609601714  0.1564273968043466  0.17988460787761082  1.0000
  H   H1        1.0  0.03872982633672  0.8201345869090205  0.028563310162382966  1.0000
  H   H2        1.0  0.9612667720975667  0.1798741894756759  0.9714400906396178  1.0000
  H   H3        1.0  0.03445666796391578  0.669769353004597  0.00684154795112588  1.0000
  H   H4        1.0  0.9655496063826732  0.3302378824348722  0.9931647167646462  1.0000
  H   H5        1.0  0.9730614645454312  0.8982035670023265  0.5680574896279112  1.0000
  H   H6        1.0  0.026953691828850896  0.10174503605792037  0.4319445262206614  1.0000
  H   H7        1.0  0.7989150922724877  0.8970580020911781  0.4344899881792585  1.0000
  H   H8        1.0  0.2010907267805919  0.10290190787373629  0.5655151322338627  1.0000
  H   H9        1.0  0.5123030224254279  0.8425419721882861  0.5065945088620225  1.0000
  H   H10       1.0  0.48768839725532587  0.15745850251220617  0.493410949954857  1.0000
  H   H11       1.0  0.409883780910171  0.812012473244117  0.7011610291845756  1.0000
  H   H12       1.0  0.5901093320861436  0.1880213486345923  0.29884011682606376  1.0000
  H   H13       1.0  0.339523799422203  0.798563595875727  0.865576684313311  1.0000
  H   H14       1.0  0.6604735087089537  0.20146269816365253  0.1344152426377292  1.0000
  H   H15       1.0  0.2754402560189817  0.7926774395091698  0.059725900499607534  1.0000
  H   H16       1.0  0.7245601087559167  0.20734147854818016  0.940266884373749  1.0000
  H   H17       1.0  0.4892226284871057  0.8248274741657512  0.15447837750182458  1.0000
  H   H18       1.0  0.5107824775406798  0.17517873654215066  0.8455167179337337  1.0000
  H   H19       1.0  0.7640444915212329  0.8582428526822955  0.04928581159757064  1.0000
  H   H20       1.0  0.23596123965567273  0.1417567845199983  0.950713378552905  1.0000
  H   H21       1.0  0.9541853117560776  0.3667826051888595  0.8164746804985941  1.0000
  H   H22       1.0  0.045818394997780815  0.6332271784165043  0.18353837364673353  1.0000
  H   H23       1.0  0.38793297098700913  0.5585860264007537  0.677849227344183  1.0000
  H   H24       1.0  0.6120737511694686  0.4414152749725204  0.3221426620073374  1.0000
  H   H25       1.0  0.36487817864897215  0.1236543597757134  0.6886711973573869  1.0000
  H   H26       1.0  0.635107078900937  0.8763479548541825  0.3113270715860495  1.0000
  H   H27       1.0  0.6456198097087266  0.4626824323798145  0.6831840042165782  1.0000
  H   H28       1.0  0.354366756670629  0.5373177736869081  0.31680296446997164  1.0000
  H   H29       1.0  0.5939168395318859  0.5272569047006996  0.5509000009475004  1.0000
  H   H30       1.0  0.40608234526943227  0.47273508782674867  0.4490829250352705  1.0000
  H   H31       1.0  0.811244269065405  0.3529619522904354  0.4887286848675319  1.0000
  H   H32       1.0  0.1887530927016954  0.647024825527964  0.5112668429841848  1.0000
  H   H33       1.0  0.8698442469872205  0.30471932026670595  0.6182505433310939  1.0000
  H   H34       1.0  0.13013886562608692  0.6952674573745483  0.3817490886415699  1.0000
  H   H35       1.0  0.913465955002771  0.5584956855348436  0.5943685035058692  1.0000
  H   H36       1.0  0.0865328107121996  0.44147654488661203  0.4056392608621311  1.0000
  H   H37       1.0  0.8568744804132394  0.6032311201631727  0.46517962455055084  1.0000
  H   H38       1.0  0.14312139077266295  0.3967597932630794  0.534827650379043  1.0000
  C   C1        1.0  0.8466878277637591  0.8822784384965626  0.5933099819777824  1.0000
  C   C2        1.0  0.15332856159862732  0.11768264338584801  0.406690536733656  1.0000
  C   C3        1.0  0.7500094921554563  0.8782757707774705  0.5201366084272154  1.0000
  C   C4        1.0  0.24999694909838147  0.12169034342912967  0.4798681516443254  1.0000
  C   C5        1.0  0.5916545612906745  0.8503176180359947  0.5602283374765451  1.0000
  C   C6        1.0  0.4083445339289468  0.14967674044964946  0.43977411704388214  1.0000
  C   C7        1.0  0.5339633744418819  0.8327287154880949  0.6699079401024621  1.0000
  C   C8        1.0  0.4660362776877775  0.16728546266186584  0.3300918635653504  1.0000
  C   C9        1.0  0.638091049778069  0.8425389064627993  0.7376420968445035  1.0000
  C   C10       1.0  0.3619153773553592  0.1574660269670431  0.2623553448729226  1.0000
  C   C11       1.0  0.5884531734228349  0.8314739858598442  0.8543450591916228  1.0000
  C   C12       1.0  0.41154850104430096  0.1685437252582389  0.14564929550962094  1.0000
  C   C13       1.0  0.4325983016752914  0.8105312838207865  0.9076599783030161  1.0000
  C   C14       1.0  0.5674004355575022  0.1894926139099908  0.09233523620038403  1.0000
  C   C15       1.0  0.39625897725066045  0.8060102634668382  0.01696397391602745  1.0000
  C   C16       1.0  0.6037434783421674  0.19401176552585744  0.9830280207146701  1.0000
  C   C17       1.0  0.5147423188874357  0.8239173502708962  0.06997828953601025  1.0000
  C   C18       1.0  0.4852573385175347  0.17609634189771126  0.9300154673164089  1.0000
  C   C19       1.0  0.6671586379132606  0.8432985232171718  0.01186967161316229  1.0000
  C   C20       1.0  0.33284720972468307  0.15671270236308027  0.9881267812052815  1.0000
  C   C21       1.0  0.05721227271740051  0.10574928812550159  0.7946150506284441  1.0000
  C   C22       1.0  0.9427775080078362  0.8942562365872179  0.20539206136449917  1.0000
  C   C23       1.0  0.14937532020270083  0.23161151795542168  0.7557415471405806  1.0000
  C   C24       1.0  0.8506207130978751  0.7683907024935978  0.2442660962729306  1.0000
  C   C25       1.0  0.0780300511165564  0.35771135816288785  0.7777919241886337  1.0000
  C   C26       1.0  0.9219714225831622  0.6422966445540795  0.22221864956690499  1.0000
  C   C27       1.0  0.16502196808206554  0.4737695257940189  0.7497174470902692  1.0000
  C   C28       1.0  0.8349895388953641  0.5262324662458155  0.2502882736676711  1.0000
  C   C29       1.0  0.32378718372165594  0.46584005689845015  0.6980280907452112  1.0000
  C   C30       1.0  0.6762171868340731  0.5341615545796542  0.3019724705768354  1.0000
  C   C31       1.0  0.39511387784520485  0.3395905713756093  0.6755955103819391  1.0000
  C   C32       1.0  0.6048812882977118  0.6604074079278419  0.3244022346548263  1.0000
  C   C33       1.0  0.3072674863541351  0.2225352523447626  0.7039259616378929  1.0000
  C   C34       1.0  0.6927212173595763  0.7774686849260065  0.29607619270672103  1.0000
  C   C35       1.0  0.08779769712496939  0.6051672467736823  0.7791079078294062  1.0000
  C   C36       1.0  0.9122240508984875  0.39483976025660183  0.2208964342308023  1.0000
  C   C37       1.0  0.6467115267694297  0.43464922833594216  0.6072311670184761  1.0000
  C   C38       1.0  0.35328162758663245  0.5653442460366804  0.3927599333540784  1.0000
  C   C39       1.0  0.8150574664830118  0.39188294493416703  0.5589001015750557  1.0000
  C   C40       1.0  0.18493512273933999  0.6081039735027858  0.44109524140900913  1.0000
  C   C41       1.0  0.9139992683053393  0.5176309373183585  0.524348949841091  1.0000
  C   C42       1.0  0.08599590078593881  0.4823542642377987  0.4756532502521794  1.0000
  N   N1        1.0  0.7040697270659847  0.8458084370327155  0.9071117709719163  1.0000
  N   N2        1.0  0.2959336091834786  0.15420408339554834  0.09288248346123851  1.0000
  N   N3        1.0  0.7928081134580722  0.8648060497405723  0.6988972334385865  1.0000
  N   N4        1.0  0.20720292705379964  0.13517465830065586  0.3011044797190864  1.0000
  O   O1        1.0  0.0832956272294041  0.016069726753393403  0.7385567811260785  1.0000
  O   O2        1.0  0.9166857820004566  0.9839366179466325  0.26145508359637404  1.0000
  O   O3        1.0  0.9587531799305961  0.09149203418433417  0.8819767508049455  1.0000
  O   O4        1.0  0.041231413817442344  0.9085184525728278  0.11803401096177887  1.0000
  O   O5        1.0  0.1510550781133305  0.720578193682634  0.7343101437247415  1.0000
  O   O6        1.0  0.8489632404350475  0.27942663438663123  0.2656850425728763  1.0000
  O   O7        1.0  0.9605435361832801  0.5978643178363682  0.8484853510810313  1.0000
  O   O8        1.0  0.039486476202355916  0.4021438898610512  0.15152616706395614  1.0000
  O   O9        1.0  0.049512396118778716  0.7682638221591632  0.971197874038957  1.0000
  O   O10       1.0  0.950490648055997  0.231739552578361  0.028806387816601352  1.0000
  O   O11       1.0  0.5506420583500643  0.3193773946869527  0.6289734130909537  1.0000
  O   O12       1.0  0.4493471388271715  0.6806203271624297  0.37101747170535765  1.0000
