data_image0
_chemical_formula_structural       Mn2P4H12C4O12
_chemical_formula_sum              "Mn2 P4 H12 C4 O12"
_cell_length_a       5.464533028783461
_cell_length_b       7.690633535006771
_cell_length_c       8.060265752537516
_cell_angle_alpha    83.71976716066065
_cell_angle_beta     75.98256463387678
_cell_angle_gamma    80.28402327951956

_space_group_name_H-M_alt    "P 1"
_space_group_IT_number       1

loop_
  _space_group_symop_operation_xyz
  'x, y, z'

loop_
  _atom_site_type_symbol
  _atom_site_label
  _atom_site_symmetry_multiplicity
  _atom_site_fract_x
  _atom_site_fract_y
  _atom_site_fract_z
  _atom_site_occupancy
  Mn  Mn1       1.0  0.20076256739901047  0.7956047044417147  0.9933937858132964  1.0000
  Mn  Mn2       1.0  0.7992381838521039  0.20438582427539845  0.0066187966249557865  1.0000
  P   P1        1.0  0.36287839139832545  0.4096650354562642  0.774259599669193  1.0000
  P   P2        1.0  0.6371316914881292  0.5903438731678037  0.22573451048322107  1.0000
  P   P3        1.0  0.24607104425655987  0.08767664439074002  0.25519497497271  1.0000
  P   P4        1.0  0.7539188801701043  0.9123204893407078  0.744812479418421  1.0000
  H   H1        1.0  0.21833482504128907  0.4793865045614112  0.5169181142839534  1.0000
  H   H2        1.0  0.78168686573116  0.5206210599371985  0.48307669097731315  1.0000
  H   H3        1.0  0.4719815177637795  0.30458124424576744  0.4939805535625156  1.0000
  H   H4        1.0  0.5280355912615704  0.6954303157677657  0.5060170556464456  1.0000
  H   H5        1.0  0.29366014881992436  0.13520391120973585  0.8153013176344999  1.0000
  H   H6        1.0  0.7063426622943466  0.8648037072696514  0.184695387560417  1.0000
  H   H7        1.0  0.26142133765632275  0.9866444906994545  0.5469633274241232  1.0000
  H   H8        1.0  0.7385650822900728  0.0133327673314909  0.45303697950622274  1.0000
  H   H9        1.0  0.1718101994341197  0.8295888047420376  0.4344778279835921  1.0000
  H   H10       1.0  0.8281815617848023  0.17038968772051524  0.5655102863307491  1.0000
  H   H11       1.0  0.02459189687601075  0.35118638351670495  0.22887597409059166  1.0000
  H   H12       1.0  0.9754002144516674  0.6488094601542402  0.7711374616400235  1.0000
  C   C1        1.0  0.40801798044484605  0.43592877878191433  0.5437164855570344  1.0000
  C   C2        1.0  0.5920109347329543  0.5640892889795454  0.4562685121678667  1.0000
  C   C3        1.0  0.14111406080585445  0.9698784472622466  0.4601364490954935  1.0000
  C   C4        1.0  0.8588739632464522  0.030100111692711106  0.5398609655196864  1.0000
  O   O1        1.0  0.20555215578286823  0.5796844214172551  0.8481319061756379  1.0000
  O   O2        1.0  0.7944614401730377  0.42032581290154514  0.1518639535050426  1.0000
  O   O3        1.0  0.6106797149889899  0.3449591078793405  0.8284178322383153  1.0000
  O   O4        1.0  0.38932770479252793  0.6550445537630837  0.1715822636714819  1.0000
  O   O5        1.0  0.18291522146571984  0.2575349535108274  0.8256597843792902  1.0000
  O   O6        1.0  0.8170835368562445  0.7424739921430618  0.17433620909282155  1.0000
  O   O7        1.0  0.09957302265793537  0.0381603948463152  0.131065758500128  1.0000
  O   O8        1.0  0.9004262807709078  0.9618459056739329  0.8689304360990278  1.0000
  O   O9        1.0  0.1723670698020356  0.2913301703388385  0.2824403485340383  1.0000
  O   O10       1.0  0.8276067661986841  0.7086631672707288  0.7175888165149401  1.0000
  O   O11       1.0  0.538317610786052  0.0504705467397244  0.19881932032306782  1.0000
  O   O12       1.0  0.46167227165781083  0.9495358078454786  0.8011821605067124  1.0000
