data_image0
_chemical_formula_structural       Zn12H96C120N8O40
_chemical_formula_sum              "Zn12 H96 C120 N8 O40"
_cell_length_a       15.182343023000804
_cell_length_b       17.749889271000416
_cell_length_c       17.749882149000634
_cell_angle_alpha    90.0000089575639
_cell_angle_beta     89.9999707354576
_cell_angle_gamma    89.9999768641945

_space_group_name_H-M_alt    "P 1"
_space_group_IT_number       1

loop_
  _space_group_symop_operation_xyz
  'x, y, z'

loop_
  _atom_site_type_symbol
  _atom_site_label
  _atom_site_symmetry_multiplicity
  _atom_site_fract_x
  _atom_site_fract_y
  _atom_site_fract_z
  _atom_site_occupancy
  Zn  Zn1       1.0  0.030443194382293405  0.1457107707643033  0.10091335082137225  1.0000
  Zn  Zn2       1.0  0.03044344719848621  0.8542899013177704  0.8990865930197747  1.0000
  Zn  Zn3       1.0  0.9695562627759033  0.10091320491423521  0.8542894120471874  1.0000
  Zn  Zn4       1.0  0.9695562861502226  0.8990865794573824  0.14571068535158826  1.0000
  Zn  Zn5       1.0  0.5304435149119159  0.1457107467959844  0.899086428511183  1.0000
  Zn  Zn6       1.0  0.5304435862159238  0.8542891892250994  0.10091386051519895  1.0000
  Zn  Zn7       1.0  0.469556574126564  0.10091323588342505  0.14571016865149747  1.0000
  Zn  Zn8       1.0  0.4695568325723657  0.8990867211651551  0.8542895835617164  1.0000
  Zn  Zn9       1.0  0.2500001998797927  0.14892991161547542  0.14892939661646667  1.0000
  Zn  Zn10      1.0  0.24999982426012934  0.8510701212579551  0.8510704514106922  1.0000
  Zn  Zn11      1.0  0.7499998904535589  0.1489298801431858  0.8510702874056054  1.0000
  Zn  Zn12      1.0  0.7499999345734238  0.8510699800531686  0.14892990580697335  1.0000
  H   H1        1.0  0.22728427068483373  0.13693098590741223  0.3851850537595497  1.0000
  H   H2        1.0  0.22728403063387503  0.8630690548109926  0.614814240796726  1.0000
  H   H3        1.0  0.7727163511664302  0.3851854354872515  0.8630686904459284  1.0000
  H   H4        1.0  0.7727158553419644  0.6148144168639222  0.13693092946934377  1.0000
  H   H5        1.0  0.727284102492469  0.13693035412859444  0.6148140749150175  1.0000
  H   H6        1.0  0.7272839997131301  0.8630695139127839  0.38518612821069825  1.0000
  H   H7        1.0  0.27271600910543736  0.38518546508451124  0.13693102061217396  1.0000
  H   H8        1.0  0.2727163965157331  0.6148145599437813  0.8630688175017059  1.0000
  H   H9        1.0  0.19018258230445897  0.12107794628857255  0.521046807738955  1.0000
  H   H10       1.0  0.19018241598664795  0.8789226706268851  0.47895306639244967  1.0000
  H   H11       1.0  0.8098173072096843  0.5210465595459013  0.8789223193613797  1.0000
  H   H12       1.0  0.8098175436659787  0.47895327999222576  0.12107784774700295  1.0000
  H   H13       1.0  0.690182495330035  0.12107729327695443  0.47895289803135216  1.0000
  H   H14       1.0  0.690182303848431  0.8789225875775916  0.5210467579014095  1.0000
  H   H15       1.0  0.309816974625818  0.5210465866655555  0.12107796013803812  1.0000
  H   H16       1.0  0.3098167580431906  0.4789528621660682  0.8789218617851592  1.0000
  H   H17       1.0  0.9153769951556046  0.10211262774642901  0.4623651316434023  1.0000
  H   H18       1.0  0.9153774434637045  0.8978877387199593  0.5376349893990098  1.0000
  H   H19       1.0  0.08462358321921223  0.46236575680541137  0.8978871059667529  1.0000
  H   H20       1.0  0.0846231446478498  0.5376348965653509  0.10211281423036674  1.0000
  H   H21       1.0  0.415377072214028  0.10211271996662673  0.5376344728866089  1.0000
  H   H22       1.0  0.4153769068584908  0.8978872557931513  0.4623653029704828  1.0000
  H   H23       1.0  0.5846230628597553  0.46236504490030966  0.10211326262916744  1.0000
  H   H24       1.0  0.5846234658943319  0.5376348724096262  0.8978875661373569  1.0000
  H   H25       1.0  0.9540410239527619  0.12071723359087379  0.32694676076379653  1.0000
  H   H26       1.0  0.9540414000916899  0.8792825561389466  0.6730533434057124  1.0000
  H   H27       1.0  0.04595896937494361  0.32694745246568163  0.8792830366303765  1.0000
  H   H28       1.0  0.04595845574737471  0.6730532142580903  0.12071690043989493  1.0000
  H   H29       1.0  0.4540416787181201  0.12071678359071573  0.6730528298028492  1.0000
  H   H30       1.0  0.4540409444395765  0.879282615432331  0.3269463657971771  1.0000
  H   H31       1.0  0.5459590965538439  0.3269467434679569  0.12071732765973313  1.0000
  H   H32       1.0  0.5459587881155273  0.6730531871948245  0.8792829545957732  1.0000
  H   H33       1.0  0.9026885234165435  0.16410964515935691  0.5743489813675142  1.0000
  H   H34       1.0  0.9026890679391784  0.8358901623052334  0.42565114521205083  1.0000
  H   H35       1.0  0.09731134028680093  0.5743495469448591  0.8358900806080103  1.0000
  H   H36       1.0  0.09731091752438202  0.42565053866032815  0.16410983405215523  1.0000
  H   H37       1.0  0.40268932607874325  0.16410971987829737  0.4256506383956023  1.0000
  H   H38       1.0  0.4026891230497825  0.8358902602632556  0.5743491429984007  1.0000
  H   H39       1.0  0.5973107828655699  0.5743494081125817  0.16410973658078387  1.0000
  H   H40       1.0  0.5973112758325385  0.4256510681993364  0.8358905232648512  1.0000
  H   H41       1.0  0.8722676198602743  0.15520988734135702  0.7120214506804958  1.0000
  H   H42       1.0  0.8722675838216392  0.8447904940131182  0.2879786891748354  1.0000
  H   H43       1.0  0.12773216963376652  0.712021950518569  0.8447909889038103  1.0000
  H   H44       1.0  0.12773181719089174  0.28797812458073935  0.15521003924882856  1.0000
  H   H45       1.0  0.3722678461631333  0.15520937716082983  0.2879787443504399  1.0000
  H   H46       1.0  0.37226821529155535  0.8447906134868576  0.7120216137033142  1.0000
  H   H47       1.0  0.6277316175332859  0.7120212469115188  0.15520996330874945  1.0000
  H   H48       1.0  0.6277321701787599  0.28797865551062074  0.8447902832612616  1.0000
  H   H49       1.0  0.10755365134063058  0.04486848908072012  0.7516883511518916  1.0000
  H   H50       1.0  0.10755358691980633  0.9551315929871864  0.24831155903848415  1.0000
  H   H51       1.0  0.892446109999867  0.7516885534164714  0.95513183944464  1.0000
  H   H52       1.0  0.8924458422466088  0.2483118209693204  0.044868291604906615  1.0000
  H   H53       1.0  0.6075537022433509  0.04486836340763741  0.24831194214267793  1.0000
  H   H54       1.0  0.6075539955640039  0.9551315459830789  0.7516883132329755  1.0000
  H   H55       1.0  0.39244582297416036  0.7516880052420947  0.044868440067091314  1.0000
  H   H56       1.0  0.39244566972535466  0.2483119784371297  0.9551319091811625  1.0000
  H   H57       1.0  0.14616433361833  0.04411015714828181  0.6150699708023384  1.0000
  H   H58       1.0  0.14616484582878536  0.9558904749689532  0.3849299225383549  1.0000
  H   H59       1.0  0.8538355007605248  0.6150702430944225  0.9558895886961456  1.0000
  H   H60       1.0  0.8538358276190298  0.3849301446255637  0.044109995818814716  1.0000
  H   H61       1.0  0.6461649615106567  0.04411005282614162  0.38492974213988174  1.0000
  H   H62       1.0  0.6461646774835473  0.955890406613861  0.6150699330020688  1.0000
  H   H63       1.0  0.35383587284783863  0.6150696948014629  0.044110122914503315  1.0000
  H   H64       1.0  0.3538349959847551  0.38493030221195573  0.9558896797991568  1.0000
  H   H65       1.0  0.2284057990443956  0.09888290766762255  0.981945632445552  1.0000
  H   H66       1.0  0.22840523911327892  0.9011165692797577  0.01805422500533641  1.0000
  H   H67       1.0  0.7715945011709522  0.9819457811147247  0.9011168773003039  1.0000
  H   H68       1.0  0.7715949684981497  0.018054635007565902  0.09888330648839633  1.0000
  H   H69       1.0  0.7284053289350396  0.09888330939315892  0.018054053173209208  1.0000
  H   H70       1.0  0.728405510109596  0.9011171216446956  0.981945586079171  1.0000
  H   H71       1.0  0.27159484051498595  0.9819458047656013  0.09888292757779743  1.0000
  H   H72       1.0  0.2715948282671832  0.0180542206499581  0.9011169110254404  1.0000
  H   H73       1.0  0.26988252839552024  0.23386451158098254  0.008773538778548603  1.0000
  H   H74       1.0  0.2698821090906805  0.7661355144260046  0.9912263005720238  1.0000
  H   H75       1.0  0.7301176422532124  0.008773509650787005  0.7661356323539368  1.0000
  H   H76       1.0  0.730117569427499  0.9912263574120106  0.23386456953522136  1.0000
  H   H77       1.0  0.7698821351841476  0.23386450201264358  0.9912261498503345  1.0000
  H   H78       1.0  0.7698823031892773  0.7661353513172319  0.008773471301637404  1.0000
  H   H79       1.0  0.23011790090553327  0.008773554396896102  0.23386403842489062  1.0000
  H   H80       1.0  0.23011750988811036  0.9912264853429711  0.7661358182788479  1.0000
  H   H81       1.0  0.16247456683305467  0.2626056304781629  0.9811918518125968  1.0000
  H   H82       1.0  0.16247474240903162  0.7373944326225231  0.018808034410390903  1.0000
  H   H83       1.0  0.8375250854132407  0.9811919494172022  0.7373946490623384  1.0000
  H   H84       1.0  0.8375247958514154  0.0188084439358462  0.26260606933861663  1.0000
  H   H85       1.0  0.6624747549330721  0.26260546893760056  0.018807888183666008  1.0000
  H   H86       1.0  0.6624750138559393  0.7373944214859025  0.9811923432245923  1.0000
  H   H87       1.0  0.3375253268840127  0.9811919986550847  0.2626056903099753  1.0000
  H   H88       1.0  0.3375254121535748  0.018808003991125605  0.7373946829053755  1.0000
  H   H89       1.0  0.23427510919862732  0.21861773277318972  0.9138099768739996  1.0000
  H   H90       1.0  0.23427522372586657  0.7813823055308762  0.08618987801543916  1.0000
  H   H91       1.0  0.7657239176707338  0.913809573073465  0.781382557151254  1.0000
  H   H92       1.0  0.7657242812519485  0.08619028169247403  0.21861762919933628  1.0000
  H   H93       1.0  0.7342759156776567  0.21861758176313376  0.08618972490906172  1.0000
  H   H94       1.0  0.7342755354539251  0.7813817204797929  0.9138099117814424  1.0000
  H   H95       1.0  0.2657241854373282  0.9138101788205976  0.21861780301664888  1.0000
  H   H96       1.0  0.2657248712578593  0.08619041200614673  0.7813826015324425  1.0000
  C   C1        1.0  0.09275366451630161  0.13076139029344358  0.3481763862082873  1.0000
  C   C2        1.0  0.0927547167483951  0.8692381335017105  0.6518235304404743  1.0000
  C   C3        1.0  0.9072456594256979  0.3481767311654949  0.8692388400097717  1.0000
  C   C4        1.0  0.9072458084763468  0.6518236381091783  0.13076184796522486  1.0000
  C   C5        1.0  0.5927541328597032  0.1307613276821797  0.6518233635940975  1.0000
  C   C6        1.0  0.5927540492919192  0.869238586819698  0.3481768982401335  1.0000
  C   C7        1.0  0.4072459797130606  0.3481761964145989  0.13076136993594648  1.0000
  C   C8        1.0  0.4072463459620793  0.6518237821531941  0.8692384094694179  1.0000
  C   C9        1.0  0.1591887170250033  0.12944250163865692  0.4029998342006636  1.0000
  C   C10       1.0  0.15918914274787002  0.8705575625967726  0.5970000534562063  1.0000
  C   C11       1.0  0.8408112361656066  0.4030001833342923  0.8705571774048624  1.0000
  C   C12       1.0  0.8408107532282968  0.5970002088838628  0.12944297617805495  1.0000
  C   C13       1.0  0.6591892181418544  0.12944243045942022  0.5969998864033743  1.0000
  C   C14       1.0  0.6591884425180724  0.8705574610989333  0.40300034643891564  1.0000
  C   C15       1.0  0.340810898581232  0.40300021176123124  0.12944250672295965  1.0000
  C   C16       1.0  0.340810631266045  0.5969997897502708  0.8705567382906101  1.0000
  C   C17       1.0  0.13815636991150632  0.11974104220965394  0.4786335796375741  1.0000
  C   C18       1.0  0.1381574949276043  0.8802595926730563  0.5213663171976465  1.0000
  C   C19       1.0  0.8618428835483417  0.47863389171957493  0.8802586515937281  1.0000
  C   C20       1.0  0.8618431007794882  0.5213659298512427  0.11974092942681122  1.0000
  C   C21       1.0  0.6381575749021878  0.11974039582626265  0.5213661486274577  1.0000
  C   C22       1.0  0.6381574081437125  0.8802600663791511  0.4786340933928913  1.0000
  C   C23       1.0  0.36184321042337336  0.47863391863023014  0.11974103518455345  1.0000
  C   C24       1.0  0.3618429730170618  0.5213660756177562  0.8802593274186069  1.0000
  C   C25       1.0  0.04997695841760931  0.11115227324759054  0.5014737498536024  1.0000
  C   C26       1.0  0.049977434372685516  0.8888483920883703  0.49852618546301414  1.0000
  C   C27       1.0  0.950022940943896  0.5014734562628363  0.888847423558538  1.0000
  C   C28       1.0  0.9500231740926142  0.49852633485461695  0.11115211898046344  1.0000
  C   C29       1.0  0.5499768597421023  0.11115218667874423  0.4985265789337846  1.0000
  C   C30       1.0  0.5499773339350825  0.8888483059801899  0.5014742649522717  1.0000
  C   C31       1.0  0.4500232729533027  0.5014734818312121  0.11115222831021752  1.0000
  C   C32       1.0  0.4500230411958413  0.49852704534716  0.8888475324274272  1.0000
  C   C33       1.0  0.9838684026479569  0.11102759982588141  0.4459199377856111  1.0000
  C   C34       1.0  0.9838681866744141  0.8889721796030231  0.5540801533674371  1.0000
  C   C35       1.0  0.0161315264250135  0.44591946815651096  0.8889721308570915  1.0000
  C   C36       1.0  0.0161317334195203  0.5540806454843762  0.11102781922959085  1.0000
  C   C37       1.0  0.4838691285352895  0.11102713123231214  0.5540802016330348  1.0000
  C   C38       1.0  0.4838683185598569  0.8889722574897976  0.44592010771842905  1.0000
  C   C39       1.0  0.5161310007360813  0.4459198844122128  0.11102770167251214  1.0000
  C   C40       1.0  0.5161314013356774  0.5540806199354621  0.8889720302157618  1.0000
  C   C41       1.0  0.004925319277788301  0.12081261272747673  0.3702588047314138  1.0000
  C   C42       1.0  0.004925721353501401  0.8791880681672812  0.6297411502456359  1.0000
  C   C43       1.0  0.9950746508858191  0.3702591080534888  0.8791870576377152  1.0000
  C   C44       1.0  0.9950748163093907  0.6297412308890176  0.12081302862491587  1.0000
  C   C45       1.0  0.5049251421621791  0.12081254666522062  0.6297409818432202  1.0000
  C   C46       1.0  0.5049256993561714  0.8791879615524609  0.37025931831924214  1.0000
  C   C47       1.0  0.4950743184603753  0.3702585717479678  0.12081311743339285  1.0000
  C   C48       1.0  0.4950746891878738  0.629741376487978  0.8791871870279383  1.0000
  C   C49       1.0  0.027948715217291906  0.10509252724457951  0.5821655575445706  1.0000
  C   C50       1.0  0.0279492365490555  0.8949075823151279  0.4178343873850567  1.0000
  C   C51       1.0  0.9720511405962712  0.5821652239139467  0.8949071836055044  1.0000
  C   C52       1.0  0.9720507568041089  0.41783455959617316  0.10509347608861934  1.0000
  C   C53       1.0  0.5279486647794871  0.10509242806494973  0.4178342165241349  1.0000
  C   C54       1.0  0.5279490878740918  0.8949075088176459  0.5821655102068918  1.0000
  C   C55       1.0  0.47205081756816725  0.5821652485354392  0.10509303465418184  1.0000
  C   C56       1.0  0.47205062028528744  0.4178347076518636  0.8949072798546711  1.0000
  C   C57       1.0  0.9493710370812637  0.13544748934280898  0.611169495099901  1.0000
  C   C58       1.0  0.9493709314230115  0.8645528653836865  0.3888306111077215  1.0000
  C   C59       1.0  0.05062880512371492  0.6111695052475524  0.8645516924225023  1.0000
  C   C60       1.0  0.050629075538807904  0.3888311598632869  0.13544767922567055  1.0000
  C   C61       1.0  0.449371203094728  0.13544755830749725  0.38883066319262144  1.0000
  C   C62       1.0  0.4493709645224513  0.864552405712317  0.6111696612135662  1.0000
  C   C63       1.0  0.5506289234964187  0.6111693619358007  0.13544758751272926  1.0000
  C   C64       1.0  0.5506287580530015  0.38883113049801227  0.8645526927048909  1.0000
  C   C65       1.0  0.9325152503868851  0.13177986974373826  0.6880009945286789  1.0000
  C   C66       1.0  0.932515188927198  0.8682199274201283  0.3119985556506891  1.0000
  C   C67       1.0  0.06748520914515412  0.6880015312169193  0.868219888121573  1.0000
  C   C68       1.0  0.06748551802739661  0.31199856468877135  0.13178060293850546  1.0000
  C   C69       1.0  0.4325148036705003  0.13177992670105004  0.311998607162174  1.0000
  C   C70       1.0  0.4325151760963167  0.8682200431400847  0.6880017245999641  1.0000
  C   C71       1.0  0.5674846710506716  0.688001387332051  0.13177995985790866  1.0000
  C   C72       1.0  0.5674851983494167  0.3119985358965921  0.8682197496196908  1.0000
  C   C73       1.0  0.06402348615621631  0.06986132529544882  0.7098424509660436  1.0000
  C   C74       1.0  0.06402406717958092  0.9301387718056733  0.29015747822064253  1.0000
  C   C75       1.0  0.9359762991409399  0.7098426490986683  0.9301384212939969  1.0000
  C   C76       1.0  0.9359759966903385  0.29015714686995153  0.06986112737503453  1.0000
  C   C77       1.0  0.5640235120436685  0.06986176954587361  0.2901567384657398  1.0000
  C   C78       1.0  0.5640238421792246  0.9301387182619295  0.7098429725223883  1.0000
  C   C79       1.0  0.43597599717418234  0.7098421048303295  0.06986183267677153  1.0000
  C   C80       1.0  0.4359764977698292  0.29015730043165183  0.930138497574845  1.0000
  C   C81       1.0  0.08547079113546369  0.07093287163252171  0.6338278571646898  1.0000
  C   C82       1.0  0.08547066856337442  0.9290672180618034  0.3661720626625994  1.0000
  C   C83       1.0  0.9145290348940879  0.6338286573970039  0.9290663002352563  1.0000
  C   C84       1.0  0.9145293545740504  0.36617227274595626  0.07093269440923683  1.0000
  C   C85       1.0  0.5854707715813777  0.0709327643789592  0.3661718864591209  1.0000
  C   C86       1.0  0.5854711476645492  0.929067152638133  0.6338278151694257  1.0000
  C   C87       1.0  0.4145293909467541  0.6338275499122263  0.07093282443857164  1.0000
  C   C88       1.0  0.4145291976343871  0.36617186275650954  0.9290669517884144  1.0000
  C   C89       1.0  0.11532595990480841  0.14176313878279964  0.2664586564805021  1.0000
  C   C90       1.0  0.11532630982060253  0.85823637721699  0.733540686933907  1.0000
  C   C91       1.0  0.8846740671045341  0.2664590413290854  0.8582365119737293  1.0000
  C   C92       1.0  0.8846741709972934  0.7335407723569106  0.14176305908336675  1.0000
  C   C93       1.0  0.6153263793973808  0.14176308894260362  0.7335410851920303  1.0000
  C   C94       1.0  0.615326349874792  0.8582362543800459  0.2664591667916768  1.0000
  C   C95       1.0  0.3846737221550143  0.26645850829773116  0.14176313165802415  1.0000
  C   C96       1.0  0.3846740563998524  0.7335409146817043  0.8582366575977718  1.0000
  C   C97       1.0  0.17833050973864323  0.1417057197972227  0.9964319400853019  1.0000
  C   C98       1.0  0.17833063734498472  0.858294337827552  0.0035679392182075007  1.0000
  C   C99       1.0  0.8216697854177186  0.9964320566739107  0.8582946113576857  1.0000
  C   C100      1.0  0.8216695753252523  0.003567778771028401  0.14170611396242805  1.0000
  C   C101      1.0  0.6783307069488914  0.14170611925873544  0.0035683374673496017  1.0000
  C   C102      1.0  0.6783308996814983  0.8582937656888989  0.9964324504054577  1.0000
  C   C103      1.0  0.32166944050271706  0.9964315236335325  0.1417057373174089  1.0000
  C   C104      1.0  0.3216701193533212  0.0035679211046826006  0.858294642817228  1.0000
  C   C105      1.0  0.09578924919983933  0.12490393550129401  0.9504355950512821  1.0000
  C   C106      1.0  0.09578934137697812  0.8750961506294677  0.049564320273013614  1.0000
  C   C107      1.0  0.9042104108474405  0.9504357004590251  0.8750958280628897  1.0000
  C   C108      1.0  0.9042101890827824  0.049564106480112016  0.12490429785269445  1.0000
  C   C109      1.0  0.5957894189137749  0.12490377876740412  0.04956415251036363  1.0000
  C   C110      1.0  0.5957896312102665  0.8750955713023321  0.9504355446151397  1.0000
  C   C111      1.0  0.40421073463595303  0.9504357281765865  0.12490447739798334  1.0000
  C   C112      1.0  0.4042107230669103  0.049564251439555604  0.8750958667160591  1.0000
  C   C113      1.0  0.21346473291136192  0.21934675962440056  0.9730030505401079  1.0000
  C   C114      1.0  0.21346488316838472  0.7806532858666132  0.026996813430912415  1.0000
  C   C115      1.0  0.7865349209974115  0.9730031781242735  0.7806535383142974  1.0000
  C   C116      1.0  0.7865353120895763  0.026996669454540306  0.21934720233844032  1.0000
  C   C117      1.0  0.7134649161159959  0.2193471627474041  0.026996660438740612  1.0000
  C   C118      1.0  0.7134651595106832  0.7806527100664343  0.9730035487175575  1.0000
  C   C119      1.0  0.2865351883283297  0.973003220601541  0.2193468220292943  1.0000
  C   C120      1.0  0.2865352438715973  0.02699679965434141  0.7806535734380164  1.0000
  N   N1        1.0  0.9892489107320659  0.10007544062573002  0.7367708809424659  1.0000
  N   N2        1.0  0.9892488634584853  0.8999243369449135  0.2632286444784882  1.0000
  N   N3        1.0  0.010750862057804504  0.7367714251947463  0.899924340168113  1.0000
  N   N4        1.0  0.0107512129187128  0.26322869030433793  0.10007561226664315  1.0000
  N   N5        1.0  0.4892491518301797  0.10007548996104282  0.2632286910313938  1.0000
  N   N6        1.0  0.48924948013283415  0.8999244602866556  0.736771615972039  1.0000
  N   N7        1.0  0.5107510015760824  0.736771276354908  0.10007554019731664  1.0000
  N   N8        1.0  0.510750874287794  0.26322810308327166  0.8999241940387965  1.0000
  O   O1        1.0  0.05272167020334  0.14514175858320746  0.21992934738925388  1.0000
  O   O2        1.0  0.052721993899055505  0.8548577790372535  0.780070023345502  1.0000
  O   O3        1.0  0.9472777232499254  0.2199297259087488  0.8548578806936294  1.0000
  O   O4        1.0  0.947277803155025  0.7800700661568528  0.14514222642743146  1.0000
  O   O5        1.0  0.5527220618807294  0.14514227939849184  0.7800698587480499  1.0000
  O   O6        1.0  0.5527220617684564  0.8548576489285726  0.21992985717202634  1.0000
  O   O7        1.0  0.4472780349404033  0.21992975678909232  0.14514172834098826  1.0000
  O   O8        1.0  0.44727769057748656  0.7800702079535784  0.854858033594653  1.0000
  O   O9        1.0  0.19799699747814975  0.14646568789456893  0.2516151599746622  1.0000
  O   O10       1.0  0.1979973407407343  0.8535337995544271  0.7483841473623303  1.0000
  O   O11       1.0  0.802003037767399  0.25161558235797804  0.8535339624177853  1.0000
  O   O12       1.0  0.8020031318407919  0.7483842598788615  0.14646620810074756  1.0000
  O   O13       1.0  0.6979974080974644  0.14646564037411036  0.7483839829718949  1.0000
  O   O14       1.0  0.6979967310081819  0.853534237781652  0.2516162329345805  1.0000
  O   O15       1.0  0.3020026900065531  0.25161561344535244  0.14646571496997046  1.0000
  O   O16       1.0  0.30200367871457  0.748384401468556  0.8535341103631426  1.0000
  O   O17       1.0  0.15840566658746985  0.13831577088249256  0.07434075152727361  1.0000
  O   O18       1.0  0.15840590002718363  0.8616842936234408  0.9256596998553807  1.0000
  O   O19       1.0  0.8415951216411346  0.07434066745549472  0.8616844165665971  1.0000
  O   O20       1.0  0.8415944782306684  0.9256591611081718  0.13831573667421546  1.0000
  O   O21       1.0  0.6584053125719863  0.13831575106716798  0.9256595341904377  1.0000
  O   O22       1.0  0.6584053962700338  0.8616841407617601  0.07434069899375832  1.0000
  O   O23       1.0  0.34159477875248007  0.07434069726912898  0.13831577920232266  1.0000
  O   O24       1.0  0.3415943615721062  0.925659867355563  0.8616845922372821  1.0000
  O   O25       1.0  0.0209674546839764  0.12526620676172234  0.983189631692611  1.0000
  O   O26       1.0  0.0209675666124909  0.8747339052090624  0.01681031628370991  1.0000
  O   O27       1.0  0.9790321878636876  0.9831896946554511  0.8747341217558644  1.0000
  O   O28       1.0  0.979032640006615  0.016810649827341703  0.12526597150759505  1.0000
  O   O29       1.0  0.5209676439782598  0.12526604490894042  0.016810148577711508  1.0000
  O   O30       1.0  0.5209678368653102  0.874733894384619  0.9831895811998598  1.0000
  O   O31       1.0  0.47903251143628023  0.9831891590456934  0.12526559279149305  1.0000
  O   O32       1.0  0.47903251554722465  0.0168102313465752  0.8747341552864543  1.0000
  O   O33       1.0  0.1029330977947254  0.11379005660879224  0.8799111807151124  1.0000
  O   O34       1.0  0.1029338012250562  0.8862094636709587  0.12008929487546995  1.0000
  O   O35       1.0  0.8970672579420482  0.8799113189499793  0.8862097007140763  1.0000
  O   O36       1.0  0.8970670095246406  0.12008905383987674  0.11379042831880784  1.0000
  O   O37       1.0  0.6029332253488846  0.11379047428049206  0.12008912537488925  1.0000
  O   O38       1.0  0.6029334745579931  0.8862094367059329  0.8799111320171352  1.0000
  O   O39       1.0  0.3970669297147041  0.8799107815469471  0.11379059683445555  1.0000
  O   O40       1.0  0.397066878205159  0.12008863715254142  0.886209750397086  1.0000
