data_image0
_chemical_formula_structural       Cd2H24C16N8Cl4
_chemical_formula_sum              "Cd2 H24 C16 N8 Cl4"
_cell_length_a       3.9618109096198673
_cell_length_b       9.798059621715458
_cell_length_c       14.5519412940154
_cell_angle_alpha    89.99998021537938
_cell_angle_beta     90.00016723759232
_cell_angle_gamma    93.7678610915253

_space_group_name_H-M_alt    "P 1"
_space_group_IT_number       1

loop_
  _space_group_symop_operation_xyz
  'x, y, z'

loop_
  _atom_site_type_symbol
  _atom_site_label
  _atom_site_symmetry_multiplicity
  _atom_site_fract_x
  _atom_site_fract_y
  _atom_site_fract_z
  _atom_site_occupancy
  Cd  Cd1       1.0  0.4999988799182162  0.4999992583287708  0.4999994108342565  1.0000
  Cd  Cd2       1.0  0.5000006814716328  4.705948626000962e-07  1.995955827000001e-07  1.0000
  H   H1        1.0  0.2097896702439854  0.7136090471472516  0.335259051289711  1.0000
  H   H2        1.0  0.790209983153204  0.7863913930200755  0.8352592302141064  1.0000
  H   H3        1.0  0.7902080895960992  0.28638946951020483  0.6647404575723501  1.0000
  H   H4        1.0  0.2097880395793439  0.21360916908549407  0.16474027864781965  1.0000
  H   H5        1.0  0.33369459363291304  0.6839030046567204  0.14672137267798044  1.0000
  H   H6        1.0  0.6663079760737246  0.8160964860858545  0.6467214458947128  1.0000
  H   H7        1.0  0.6663058238091111  0.3160965488127445  0.8532795105720866  1.0000
  H   H8        1.0  0.3336900466624685  0.18390407601962988  0.3532787501607474  1.0000
  H   H9        1.0  0.7942482874077895  0.37534775623845473  0.2972987522801561  1.0000
  H   H10       1.0  0.20575190873095286  0.12465188744393173  0.797299188722349  1.0000
  H   H11       1.0  0.2057494724286428  0.6246507604190868  0.7027000693883567  1.0000
  H   H12       1.0  0.7942511663020538  0.8753487028377908  0.20270100733512925  1.0000
  H   H13       1.0  0.908224730164953  0.38458653901364676  0.12640888246663456  1.0000
  H   H14       1.0  0.09177617521339698  0.11541315965623514  0.6264092300227733  1.0000
  H   H15       1.0  0.09177316111770754  0.6154130003679442  0.8735899392018215  1.0000
  H   H16       1.0  0.9082242422249749  0.8845863938133081  0.37359096603375985  1.0000
  H   H17       1.0  0.826827515556907  0.5408314147815433  0.06911544541441833  1.0000
  H   H18       1.0  0.17317183434309413  0.9591691031704174  0.5691164666277759  1.0000
  H   H19       1.0  0.17317050717563381  0.4591691473240191  0.9308840634475078  1.0000
  H   H20       1.0  0.8268287145451579  0.040831473023104116  0.4308844166222273  1.0000
  H   H21       1.0  0.5105064752441776  0.4009002680586066  0.07364875088369162  1.0000
  H   H22       1.0  0.48949400063050763  0.09910046596255742  0.5736487325033083  1.0000
  H   H23       1.0  0.489494073633118  0.5991003081351638  0.9263500707857094  1.0000
  H   H24       1.0  0.5105065482504403  0.9009001102311276  0.4263507763596196  1.0000
  C   C1        1.0  0.3516178749751191  0.6401605471119611  0.298510754739816  1.0000
  C   C2        1.0  0.6483837824141149  0.8598388932144799  0.7985108036547788  1.0000
  C   C3        1.0  0.6483825424669123  0.359839006357504  0.7014901285102584  1.0000
  C   C4        1.0  0.35161676647048523  0.14016168297911952  0.2014893924016904  1.0000
  C   C5        1.0  0.40884692877023093  0.6257661182874942  0.20593825074075775  1.0000
  C   C6        1.0  0.591158928123349  0.8742343950948669  0.7059375634851082  1.0000
  C   C7        1.0  0.5911562777016994  0.37423549471844814  0.7940605709295812  1.0000
  C   C8        1.0  0.40884401546342986  0.12576517246279917  0.29406263257243387  1.0000
  C   C9        1.0  0.6488368121421856  0.4626355001877299  0.282575562745592  1.0000
  C   C10       1.0  0.3511657536044551  0.0373641611065665  0.7825754480275509  1.0000
  C   C11       1.0  0.3511586844419555  0.5373650478297167  0.7174239461153322  1.0000
  C   C12       1.0  0.6488347952764927  0.9626364150871185  0.21742406083538415  1.0000
  C   C13       1.0  0.7162775801935053  0.4565976218127831  0.11141286026625614  1.0000
  C   C14       1.0  0.2837207710452248  0.04340308908204092  0.6114133775173018  1.0000
  C   C15       1.0  0.28371804783685667  0.5434039489287202  0.888586648594597  1.0000
  C   C16       1.0  0.7162772516909683  0.9565974730234434  0.38858681853815835  1.0000
  N   N1        1.0  0.5028374877324637  0.5380791665592568  0.3453437534665867  1.0000
  N   N2        1.0  0.49716466758642514  0.9619202625585787  0.8453436583330716  1.0000
  N   N3        1.0  0.4971602721076208  0.46191935009819945  0.6546557553954673  1.0000
  N   N4        1.0  0.5028382760003537  0.0380793049990871  0.15465653772447044  1.0000
  N   N5        1.0  0.5948831778928679  0.5119297968541262  0.19708591086961044  1.0000
  N   N6        1.0  0.4051148749971958  0.9880696536583287  0.6970864234672975  1.0000
  N   N7        1.0  0.4051147134007565  0.48806974252721613  0.802914972379455  1.0000
  N   N8        1.0  0.5948855424411762  0.011929899811221403  0.30291377258923563  1.0000
  Cl  Cl1       1.0  0.04040446397053193  0.690133558699401  0.5222450348147732  1.0000
  Cl  Cl2       1.0  0.9595917300069914  0.8098659336579532  0.022246119725942006  1.0000
  Cl  Cl3       1.0  0.9595934273157808  0.3098659806821047  0.4777544740472167  1.0000
  Cl  Cl4       1.0  0.0404088188776086  0.19013464253564655  0.977754076330527  1.0000
