data_image0
_chemical_formula_structural       Co2P2H20C6N2O16
_chemical_formula_sum              "Co2 P2 H20 C6 N2 O16"
_cell_length_a       5.3596067229789925
_cell_length_b       7.794974065745455
_cell_length_c       9.842266663558613
_cell_angle_alpha    90.00175432954681
_cell_angle_beta     90.00006728256356
_cell_angle_gamma    97.7559918420502

_space_group_name_H-M_alt    "P 1"
_space_group_IT_number       1

loop_
  _space_group_symop_operation_xyz
  'x, y, z'

loop_
  _atom_site_type_symbol
  _atom_site_label
  _atom_site_symmetry_multiplicity
  _atom_site_fract_x
  _atom_site_fract_y
  _atom_site_fract_z
  _atom_site_occupancy
  Co  Co1       1.0  0.18583443979211722  0.5183704212863419  0.06591105537420112  1.0000
  Co  Co2       1.0  0.8141624742519582  0.48162165726143513  0.5658980026672894  1.0000
  P   P1        1.0  0.6840719609624273  0.37900079458184177  0.24501764194882725  1.0000
  P   P2        1.0  0.3158822238466286  0.6210105368062883  0.7450158141401959  1.0000
  H   H1        1.0  0.715107377855624  0.5388991649643702  0.0083137798451602  1.0000
  H   H2        1.0  0.2848412996938663  0.461042609275971  0.5083205907168493  1.0000
  H   H3        1.0  0.8908359244048826  0.5679734029709993  0.8719432414617216  1.0000
  H   H4        1.0  0.10910606965966711  0.43197874252845037  0.37194738992908344  1.0000
  H   H5        1.0  0.2764726543594236  0.24059325100532186  0.9275979403474326  1.0000
  H   H6        1.0  0.7235196443037567  0.7593857683143242  0.4275465331979974  1.0000
  H   H7        1.0  0.9846762647269074  0.26677167748045605  0.9038643842494383  1.0000
  H   H8        1.0  0.015309131455005308  0.7331928724016663  0.4038103328608998  1.0000
  H   H9        1.0  0.6262201522248888  0.021317836489117805  0.9867458184596534  1.0000
  H   H10       1.0  0.37367816672036  0.9786585016808332  0.48677789659085874  1.0000
  H   H11       1.0  0.5415796701313909  0.8023154996682039  0.976954921380845  1.0000
  H   H12       1.0  0.45853861474756746  0.19764209240682365  0.47698995679021305  1.0000
  H   H13       1.0  0.8429190007877381  0.882947779703379  0.9760868164583204  1.0000
  H   H14       1.0  0.1571344114748499  0.11717547752832054  0.4761145674626379  1.0000
  H   H15       1.0  0.8176017509855313  0.05056682123606041  0.3380956624025942  1.0000
  H   H16       1.0  0.1824425450573983  0.949491914669494  0.838145913132145  1.0000
  H   H17       1.0  0.9931363849589374  0.10490842095519781  0.18416420758546084  1.0000
  H   H18       1.0  0.006861898734257512  0.8951210215380742  0.6842194221310011  1.0000
  H   H19       1.0  0.8248009667580691  0.7931814220522996  0.18848939524137626  1.0000
  H   H20       1.0  0.17523534010648945  0.20685218258873317  0.6885233421568488  1.0000
  C   C1        1.0  0.8053784209359945  0.06172066722775331  0.22680310482627428  1.0000
  C   C2        1.0  0.19465464249511652  0.9382739639360197  0.7268525468815883  1.0000
  C   C3        1.0  0.6943789627220411  0.8877162208391526  0.16879391720452475  1.0000
  C   C4        1.0  0.3055971881537261  0.1122798668872989  0.6688335864424817  1.0000
  C   C5        1.0  0.43828456135452143  0.8220091473343345  0.233824662410811  1.0000
  C   C6        1.0  0.5617012138127181  0.17805325659214336  0.7338440255516334  1.0000
  N   N1        1.0  0.6737369291559928  0.9022477171917275  0.018256892390823502  1.0000
  N   N2        1.0  0.326271287319237  0.0977581385072881  0.5182885396454682  1.0000
  O   O1        1.0  0.8775389071672136  0.5944905603670989  0.9712518783787022  1.0000
  O   O2        1.0  0.12239940202037052  0.4054174597609617  0.47126068376402236  1.0000
  O   O3        1.0  0.5184618486181662  0.4743270659777111  0.15498986938816028  1.0000
  O   O4        1.0  0.4814685412351167  0.5256927321301178  0.654956005588801  1.0000
  O   O5        1.0  0.11874261684286583  0.26903662560572883  0.9721280560660834  1.0000
  O   O6        1.0  0.8812334330829544  0.7309193543790613  0.47207314002766065  1.0000
  O   O7        1.0  0.9667366036989264  0.4461086430561707  0.22859202297603085  1.0000
  O   O8        1.0  0.0332463786826764  0.5539314135304494  0.7285628264409569  1.0000
  O   O9        1.0  0.6347561510724731  0.1809151999388874  0.18943259164495882  1.0000
  O   O10       1.0  0.3653042992696527  0.8191158766134026  0.689466904785448  1.0000
  O   O11       1.0  0.6153238579261711  0.3705008816306332  0.3967813662288578  1.0000
  O   O12       1.0  0.3846931058277718  0.6294204909453923  0.8967695691199044  1.0000
  O   O13       1.0  0.24827572989899246  0.7869288899437807  0.15779603920923083  1.0000
  O   O14       1.0  0.7517587234460308  0.21309238825491408  0.6578182393326062  1.0000
  O   O15       1.0  0.43943323111659555  0.8077883084252094  0.3628688235639218  1.0000
  O   O16       1.0  0.5606234951479792  0.19225388963193524  0.8628898002119744  1.0000
