data_image0
_chemical_formula_structural       Al4H9C28N2ClO24
_chemical_formula_sum              "Al4 H9 C28 N2 Cl1 O24"
_cell_length_a       6.679830697648914
_cell_length_b       16.559696289543368
_cell_length_c       18.989113234456795
_cell_angle_alpha    75.35703403372057
_cell_angle_beta     89.64204963025682
_cell_angle_gamma    90.03768377723725

_space_group_name_H-M_alt    "P 1"
_space_group_IT_number       1

loop_
  _space_group_symop_operation_xyz
  'x, y, z'

loop_
  _atom_site_type_symbol
  _atom_site_label
  _atom_site_symmetry_multiplicity
  _atom_site_fract_x
  _atom_site_fract_y
  _atom_site_fract_z
  _atom_site_occupancy
  Al  Al1       1.0  0.10842396585749009  0.49652926556466076  0.5003460979659308  1.0000
  Al  Al2       1.0  0.606896994920149  0.499469066898378  0.4980828429652036  1.0000
  Al  Al3       1.0  0.6181988678552841  0.9982758599151753  0.9970214523004798  1.0000
  Al  Al4       1.0  0.1170251077635172  0.9981524544009873  0.9976406729022145  1.0000
  H   H1        1.0  0.9914466605771749  0.8255136250499648  0.21340876555383653  1.0000
  H   H2        1.0  0.5712476406695545  0.6883453915487082  0.30040445461590787  1.0000
  H   H3        1.0  0.0754159751515857  0.1917591652857951  0.8053310931140061  1.0000
  H   H4        1.0  0.0668540417814043  0.29417561762662103  0.6897956255592064  1.0000
  H   H5        1.0  0.5254027910789673  0.3145520017839658  0.6987800977580605  1.0000
  H   H6        1.0  0.3546615470081703  0.6072000032237811  0.49039079038404754  1.0000
  H   H7        1.0  0.8555403324919837  0.3979847520003831  0.4866268230602557  1.0000
  H   H8        1.0  0.36775829612176386  0.8925441224105839  0.03881399549104003  1.0000
  H   H9        1.0  0.8682628708258734  0.099900317437104  0.008068300943165208  1.0000
  C   C1        1.0  0.3605155287053918  0.41211689735201423  0.4127268202665419  1.0000
  C   C2        1.0  0.3566895703269424  0.38745640593217706  0.6093953665868809  1.0000
  C   C3        1.0  0.8565876061978558  0.5854516166731756  0.5833057344526509  1.0000
  C   C4        1.0  0.8627514502466412  0.6084813258772003  0.3872963226747358  1.0000
  C   C5        1.0  0.7180484664378853  0.765861937860976  0.20438782882857248  1.0000
  C   C6        1.0  0.8620217706548344  0.8237436125762869  0.17914352897648914  1.0000
  C   C7        1.0  0.7182311494015537  0.7064639748631408  0.2756982291186602  1.0000
  C   C8        1.0  0.8757287929709889  0.669068672359046  0.31423922285630823  1.0000
  C   C9        1.0  0.8703162643305546  0.8632540963404411  0.8595160763883528  1.0000
  C   C10       1.0  0.8694302081348867  0.8198125617505384  0.8159302303867548  1.0000
  C   C11       1.0  0.8664522798677653  0.7721445297754033  0.7684263344479589  1.0000
  C   C12       1.0  0.8623958954355828  0.7278714198199056  0.7250703894811963  1.0000
  C   C13       1.0  0.8586067182042997  0.6798798560017405  0.677881867944535  1.0000
  C   C14       1.0  0.8563287971414368  0.6359530183993486  0.6346800753291646  1.0000
  C   C15       1.0  0.36113126012760693  0.36284791020397483  0.36030719261664496  1.0000
  C   C16       1.0  0.3620352229205892  0.3198887979973648  0.3163262358082903  1.0000
  C   C17       1.0  0.36256414401344017  0.2728341016156222  0.2683507081666434  1.0000
  C   C18       1.0  0.36323994470717474  0.22928242108675082  0.22438226370060477  1.0000
  C   C19       1.0  0.364347433372977  0.18201822871250783  0.17654935526974208  1.0000
  C   C20       1.0  0.3658754892542078  0.1387030954344368  0.1328311740317574  1.0000
  C   C21       1.0  0.2201345678793061  0.21351325326976678  0.7804710224496461  1.0000
  C   C22       1.0  0.37902342524638744  0.17351953939723333  0.8170034372905945  1.0000
  C   C23       1.0  0.2148799474289333  0.2790646997262485  0.7136309774506984  1.0000
  C   C24       1.0  0.37264914466438626  0.32316752734329424  0.6788762318218601  1.0000
  C   C25       1.0  0.36813291907561313  0.10744222704271783  0.8864119393160833  1.0000
  C   C26       1.0  0.3680230380716409  0.08872478657688283  0.08081079997336359  1.0000
  C   C27       1.0  0.8652368623000442  0.8869781806527401  0.10866385271462058  1.0000
  C   C28       1.0  0.8677624111513252  0.9126412015665509  0.9120110640682384  1.0000
  N   N1        1.0  0.0841538669975535  0.6811834332631791  0.2870401182304789  1.0000
  N   N2        1.0  0.5881115823755394  0.1917564782183021  0.7916363767709313  1.0000
  Cl  Cl1       1.0  0.5087850718340833  0.7536403275737059  0.15502020105650868  1.0000
  O   O1        1.0  0.5250964249843051  0.4138176154262326  0.5802042274051473  1.0000
  O   O2        1.0  0.18995992659240812  0.42876431432669193  0.4358359780343691  1.0000
  O   O3        1.0  0.0304289851898005  0.5831263741688844  0.4154054411191268  1.0000
  O   O4        1.0  0.18461529069898566  0.41080383592147035  0.5833449973081457  1.0000
  O   O5        1.0  0.0273220946075838  0.5647746453493099  0.5633791167861446  1.0000
  O   O6        1.0  0.531074144446201  0.4336120913223312  0.4316499252074593  1.0000
  O   O7        1.0  0.3568178574758249  0.5484371698197776  0.49145402062393373  1.0000
  O   O8        1.0  0.6865591376590601  0.5667416529508529  0.5618434498316773  1.0000
  O   O9        1.0  0.6894980684242569  0.5886281390795745  0.4136592458529478  1.0000
  O   O10       1.0  0.8564081867397207  0.4490621496360348  0.5028118054175081  1.0000
  O   O11       1.0  0.1977976997155935  0.07141749552614132  0.058293911290576296  1.0000
  O   O12       1.0  0.536329515566841  0.08319965311133609  0.9148941701700152  1.0000
  O   O13       1.0  0.6964191922619066  0.934103119474571  0.9303314094657793  1.0000
  O   O14       1.0  0.5397428445046443  0.0675853676730256  0.06209814652581969  1.0000
  O   O15       1.0  0.6988105341369248  0.9109391647766643  0.07826652280574112  1.0000
  O   O16       1.0  0.1965145312636665  0.08216452278205111  0.9112296546495102  1.0000
  O   O17       1.0  0.3672110965239881  0.948420725072893  0.006686803983846778  1.0000
  O   O18       1.0  0.03848883153574428  0.9134353794748479  0.0844180641298209  1.0000
  O   O19       1.0  0.0367933621602532  0.9290718331582966  0.935703878313916  1.0000
  O   O20       1.0  0.868188385727528  0.048765471906016  0.9919844054730973  1.0000
  O   O21       1.0  0.18500093264882622  0.7347051090865336  0.3061958939984137  1.0000
  O   O22       1.0  0.1435231413909293  0.6352098463720284  0.24941754481038456  1.0000
  O   O23       1.0  0.6797140237310159  0.24467319789162192  0.8148102898043348  1.0000
  O   O24       1.0  0.6566820236588526  0.15224404701542943  0.7498709360988869  1.0000
