data_image0
_chemical_formula_structural       Zn2H36C44N8O12
_chemical_formula_sum              "Zn2 H36 C44 N8 O12"
_cell_length_a       8.16675225905598
_cell_length_b       8.83024620629906
_cell_length_c       14.50870574996766
_cell_angle_alpha    90.00024077166687
_cell_angle_beta     95.03892797706963
_cell_angle_gamma    90.00089766431623

_space_group_name_H-M_alt    "P 1"
_space_group_IT_number       1

loop_
  _space_group_symop_operation_xyz
  'x, y, z'

loop_
  _atom_site_type_symbol
  _atom_site_label
  _atom_site_symmetry_multiplicity
  _atom_site_fract_x
  _atom_site_fract_y
  _atom_site_fract_z
  _atom_site_occupancy
  Zn  Zn1       1.0  0.9999989574065677  0.9999999460871365  1.8227361655105324e-07  1.0000
  Zn  Zn2       1.0  0.9999992037448634  0.49999495716262726  0.5000022108516688  1.0000
  H   H1        1.0  0.9832319072477631  0.7737945198785142  0.8368259273905281  1.0000
  H   H2        1.0  0.0167681787377632  0.2737950993181786  0.6631682708865726  1.0000
  H   H3        1.0  0.01677372273226751  0.22620833522574912  0.1631703179134476  1.0000
  H   H4        1.0  0.9832476294670794  0.7261930337825221  0.33684412561385807  1.0000
  H   H5        1.0  0.7376861858518566  0.3832262014928319  0.9041016408450488  1.0000
  H   H6        1.0  0.2623074722311713  0.8832350045687891  0.5958901313034701  1.0000
  H   H7        1.0  0.26231680614232294  0.6167766535689695  0.0958867559357017  1.0000
  H   H8        1.0  0.7376968377179693  0.11676785052730315  0.4041066829914328  1.0000
  H   H9        1.0  0.8609605884789177  0.7336918101479669  0.1063570244443355  1.0000
  H   H10       1.0  0.13904543526808055  0.23370121314917477  0.3936345858309592  1.0000
  H   H11       1.0  0.1390404223439816  0.2663008526733465  0.8936367190559623  1.0000
  H   H12       1.0  0.8609360584580871  0.7662982443732604  0.606365644939892  1.0000
  H   H13       1.0  0.5422026102435638  0.3329976247184946  0.9877875929790534  1.0000
  H   H14       1.0  0.45779414849991434  0.8330054537983501  0.5122112676324875  1.0000
  H   H15       1.0  0.4577938739661178  0.667006362798553  0.012211952728144088  1.0000
  H   H16       1.0  0.5422170428846728  0.1670030637171465  0.4877896406173363  1.0000
  H   H17       1.0  0.40962192072942116  0.18492797909235756  0.103605508123735  1.0000
  H   H18       1.0  0.5903695058532321  0.6849411495302962  0.3963867152799168  1.0000
  H   H19       1.0  0.5903722067754131  0.8150816707607691  0.8963931279698018  1.0000
  H   H20       1.0  0.4096361242041198  0.3150707653440109  0.6036095300412966  1.0000
  H   H21       1.0  0.48718680016715876  0.22579880215579354  0.2722492770072407  1.0000
  H   H22       1.0  0.5127971205534791  0.725813234061036  0.2277485634215779  1.0000
  H   H23       1.0  0.5128121352512309  0.7742074503226635  0.7277504957932663  1.0000
  H   H24       1.0  0.4871907845997043  0.27420321057363145  0.7722501874978034  1.0000
  H   H25       1.0  0.8607437339899987  0.5391777036809772  0.20615887882610903  1.0000
  H   H26       1.0  0.13925830858999433  0.03919105913474401  0.2938367692811212  1.0000
  H   H27       1.0  0.1392722672680904  0.4608138267786688  0.793834179599763  1.0000
  H   H28       1.0  0.86072949996408  0.9608151932860379  0.7061716506593854  1.0000
  H   H29       1.0  0.30088537086732003  0.9298013993751019  0.9927967469430924  1.0000
  H   H30       1.0  0.6991070065863739  0.4297987725645528  0.5072012316281729  1.0000
  H   H31       1.0  0.6991020619115601  0.07019239584089124  0.0072054166103611775  1.0000
  H   H32       1.0  0.3008944743802645  0.5701984201614964  0.49279808570867806  1.0000
  H   H33       1.0  0.28585444060485793  0.017517267008003004  0.8950568185306979  1.0000
  H   H34       1.0  0.7141440033304178  0.5175068025584366  0.6049435708451512  1.0000
  H   H35       1.0  0.7141466626169831  0.9824799257231763  0.10494522894786941  1.0000
  H   H36       1.0  0.2858553097747815  0.48249265508736283  0.3950534718007148  1.0000
  C   C1        1.0  0.925530814073156  0.7058957919467163  0.8877458804324405  1.0000
  C   C2        1.0  0.07447753998101798  0.20589806670199814  0.6122516980616695  1.0000
  C   C3        1.0  0.07447641923670291  0.2941059306906198  0.1122477482721678  1.0000
  C   C4        1.0  0.9255323291131249  0.7940889338776176  0.3877587656432411  1.0000
  C   C5        1.0  0.7909564045871562  0.4922541993017334  0.9260017610333051  1.0000
  C   C6        1.0  0.20904090457640484  0.9922575520630162  0.5739954306798368  1.0000
  C   C7        1.0  0.20904375845351808  0.5077463908037745  0.0739891387958593  1.0000
  C   C8        1.0  0.7909678333205932  0.007724918620844801  0.4260142369365241  1.0000
  C   C9        1.0  0.7857008852045553  0.5415683768855003  0.01795318954399513  1.0000
  C   C10       1.0  0.21430053704082042  0.04157148733548151  0.4820472453857718  1.0000
  C   C11       1.0  0.21430418014720937  0.4584242859590406  0.9820381644480847  1.0000
  C   C12       1.0  0.7857008452604504  0.9584166456740634  0.5179707274794367  1.0000
  C   C13       1.0  0.8581381606656251  0.6830520045105787  0.03760302609561711  1.0000
  C   C14       1.0  0.14187086224048784  0.18305505475584036  0.4623963536036086  1.0000
  C   C15       1.0  0.1418665269606691  0.31694292328160156  0.9623910580424919  1.0000
  C   C16       1.0  0.8581251476446141  0.816941005494954  0.5376155912707432  1.0000
  C   C17       1.0  0.7065955225444255  0.45307668742935897  0.08781393039738107  1.0000
  C   C18       1.0  0.29340340234546863  0.9530900585179726  0.41218511395014445  1.0000
  C   C19       1.0  0.29341029625001624  0.5469193728448193  0.9121809498228116  1.0000
  C   C20       1.0  0.7065998688151254  0.04691392906348571  0.5878192082366311  1.0000
  C   C21       1.0  0.5804125698236291  0.3500876010417359  0.0607446658815718  1.0000
  C   C22       1.0  0.41957677347777894  0.8501007431295876  0.4392477316043681  1.0000
  C   C23       1.0  0.41958334980611073  0.6499118565718547  0.9392499885245015  1.0000
  C   C24       1.0  0.5804231042653569  0.14991003924719593  0.5607542023555467  1.0000
  C   C25       1.0  0.5040175073104792  0.2671325715004755  0.1264032528502383  1.0000
  C   C26       1.0  0.49597777352506256  0.7671362767223827  0.37358951032727117  1.0000
  C   C27       1.0  0.4959793546633335  0.7328736809539437  0.8735935627195487  1.0000
  C   C28       1.0  0.5040254052945913  0.2328699757767367  0.626406507894167  1.0000
  C   C29       1.0  0.548601714390756  0.28801821139121137  0.22029841772463493  1.0000
  C   C30       1.0  0.45139363966000445  0.7880252364808414  0.2796964725135851  1.0000
  C   C31       1.0  0.4513987298729276  0.7119812462653243  0.7796994210011619  1.0000
  C   C32       1.0  0.5486003934182904  0.21198554584481852  0.7203028461175336  1.0000
  C   C33       1.0  0.6766054595444403  0.3879462448751455  0.24851729767181038  1.0000
  C   C34       1.0  0.32339895373088723  0.8879523326787508  0.2514786539537255  1.0000
  C   C35       1.0  0.32340092381061686  0.6120520803599733  0.7514824738452006  1.0000
  C   C36       1.0  0.6765998872802896  0.11205731721474883  0.7485218013886694  1.0000
  C   C37       1.0  0.7560192821073385  0.4684608203693089  0.18252728382238806  1.0000
  C   C38       1.0  0.2439843376069106  0.9684695072314967  0.3174666993869052  1.0000
  C   C39       1.0  0.2439904023145729  0.5315318425168912  0.8174665719539931  1.0000
  C   C40       1.0  0.756007433086758  0.03153334777391591  0.6825310270692739  1.0000
  C   C41       1.0  0.7295676758718346  0.4078489828188269  0.3495415409880067  1.0000
  C   C42       1.0  0.27042962912516094  0.9078559592842199  0.1504544876168339  1.0000
  C   C43       1.0  0.27043531402708965  0.5921516073265922  0.6504558422935175  1.0000
  C   C44       1.0  0.7295541269953035  0.09215255802972423  0.849547335331117  1.0000
  N   N1        1.0  0.9260648263464901  0.7651503377074108  0.9731116682625185  1.0000
  N   N2        1.0  0.07394321907441544  0.26515097538680993  0.5268867046212334  1.0000
  N   N3        1.0  0.07394344366632309  0.23484911999943855  0.026883439053136695  1.0000
  N   N4        1.0  0.9260539219015128  0.7348371575759388  0.47312603631796435  1.0000
  N   N5        1.0  0.8605789613322515  0.5722670214494912  0.8614909543484542  1.0000
  N   N6        1.0  0.1394268306182198  0.07227268082517213  0.6384991769349994  1.0000
  N   N7        1.0  0.13942695191771998  0.42773130376590984  0.13850324334061528  1.0000
  N   N8        1.0  0.8605859639898769  0.9277222470395973  0.36149911469176726  1.0000
  O   O1        1.0  0.22380062869618209  0.9576028301482257  0.9361683296357981  1.0000
  O   O2        1.0  0.7761919399151651  0.4575914881623788  0.5638318022806672  1.0000
  O   O3        1.0  0.7761944409980829  0.0423954950056569  0.06383246758698387  1.0000
  O   O4        1.0  0.22380331862250805  0.5424034395751749  0.4361676298647978  1.0000
  O   O5        1.0  0.8803348958810345  0.4425955162691367  0.37037861353673657  1.0000
  O   O6        1.0  0.11966366122699408  0.9426080542840227  0.1296217560101312  1.0000
  O   O7        1.0  0.1196776154377943  0.5574016765419858  0.6296217257006235  1.0000
  O   O8        1.0  0.8803143426082443  0.05740272794616171  0.870385755582987  1.0000
  O   O9        1.0  0.621121051346954  0.388984767365905  0.4064288509114888  1.0000
  O   O10       1.0  0.3788621666642483  0.8889749077160617  0.0935679045194107  1.0000
  O   O11       1.0  0.3788759995089279  0.611022617557204  0.593566599589593  1.0000
  O   O12       1.0  0.6211093333450322  0.11101435749201022  0.9064327829469079  1.0000
