data_image0
_chemical_formula_structural       Pr4Ag2H28C48N2O32
_chemical_formula_sum              "Pr4 Ag2 H28 C48 N2 O32"
_cell_length_a       8.626908729055565
_cell_length_b       11.768292240661575
_cell_length_c       13.489924362903192
_cell_angle_alpha    103.68133885287482
_cell_angle_beta     98.30420675437199
_cell_angle_gamma    99.13038898062568

_space_group_name_H-M_alt    "P 1"
_space_group_IT_number       1

loop_
  _space_group_symop_operation_xyz
  'x, y, z'

loop_
  _atom_site_type_symbol
  _atom_site_label
  _atom_site_symmetry_multiplicity
  _atom_site_fract_x
  _atom_site_fract_y
  _atom_site_fract_z
  _atom_site_occupancy
  Pr  Pr1       1.0  0.4519416209554663  0.11517937344732589  0.3995975662559985  1.0000
  Pr  Pr2       1.0  0.5480551507236769  0.884818683455606  0.6004016451716367  1.0000
  Pr  Pr3       1.0  0.1820833042726305  0.38379234415666713  0.38648509105384937  1.0000
  Pr  Pr4       1.0  0.8179148798336796  0.6162066030126424  0.6135151766964172  1.0000
  Ag  Ag1       1.0  0.9345589206822211  0.046512390870674394  0.3203844529250048  1.0000
  Ag  Ag2       1.0  0.06544487958564095  0.9534856821434943  0.6796146532559036  1.0000
  H   H1        1.0  0.7583571086277631  0.26787655813127736  0.520314496612535  1.0000
  H   H2        1.0  0.24164247519929918  0.7321232967996778  0.4796838647766961  1.0000
  H   H3        1.0  0.6562534104211865  0.32834478710840637  0.5991632131861166  1.0000
  H   H4        1.0  0.3437480522781087  0.6716532732456527  0.4008371625285605  1.0000
  H   H5        1.0  0.14834656678618066  0.9298506342591396  0.4105374916375483  1.0000
  H   H6        1.0  0.8516511540516732  0.07015099337962738  0.5894625587808167  1.0000
  H   H7        1.0  0.2624922688566896  0.8535630222708759  0.3653142933003224  1.0000
  H   H8        1.0  0.7375047337589251  0.14643593606364647  0.634683646533162  1.0000
  H   H9        1.0  0.08925725167981108  0.4462051557677141  0.8179237052009825  1.0000
  H   H10       1.0  0.910749386148801  0.5537946802839498  0.1820804763088404  1.0000
  H   H11       1.0  0.2696892886440736  0.3628563820489317  0.9329909973091759  1.0000
  H   H12       1.0  0.7303189861949732  0.6371452544483277  0.06701148758729397  1.0000
  H   H13       1.0  0.4170274763096203  0.21066755423542816  0.8512782018873966  1.0000
  H   H14       1.0  0.5829845421719568  0.7893349939359454  0.1487225884561099  1.0000
  H   H15       1.0  0.4384080163548204  0.47234786030676895  0.055012194465362485  1.0000
  H   H16       1.0  0.5615918351324468  0.5276573269026271  0.9449910228604923  1.0000
  H   H17       1.0  0.6193120824679783  0.3420516376302486  0.9779275118196652  1.0000
  H   H18       1.0  0.3806835349143896  0.6579508744061896  0.022073277209223405  1.0000
  H   H19       1.0  0.7808549343434096  0.2482291840902277  0.09422736236164299  1.0000
  H   H20       1.0  0.21913643126994484  0.7517661956835152  0.9057693148649905  1.0000
  H   H21       1.0  0.01294211992363608  0.21816183921286125  0.041625914686036894  1.0000
  H   H22       1.0  0.987056984751966  0.7818407180566208  0.9583685260167202  1.0000
  H   H23       1.0  0.9371190497498745  0.12275558052099457  0.8479954849695235  1.0000
  H   H24       1.0  0.06288051005986957  0.8772398260678497  0.15199971157259273  1.0000
  H   H25       1.0  0.3134561721000679  0.9435454198047493  0.8568033632732651  1.0000
  H   H26       1.0  0.6865495056445071  0.05645534196515461  0.14319499671289293  1.0000
  H   H27       1.0  0.3858237426048062  0.016138980617824893  0.0519662152638887  1.0000
  H   H28       1.0  0.614185467291037  0.9838707274431683  0.9480313854194551  1.0000
  C   C1        1.0  0.3920762541669304  0.09868546060607025  0.6576279147924851  1.0000
  C   C2        1.0  0.6079177021876845  0.901310802642655  0.3423714060026414  1.0000
  C   C3        1.0  0.1333370473694799  0.17751556401732668  0.518041307319983  1.0000
  C   C4        1.0  0.8666595029029976  0.8224815783325636  0.4819613977145423  1.0000
  C   C5        1.0  0.028366428204677184  0.39286582801345565  0.6128665736708642  1.0000
  C   C6        1.0  0.971639045797346  0.6071384762931514  0.3871369634274728  1.0000
  C   C7        1.0  0.3023612208245652  0.1942424682810113  0.6958562023573975  1.0000
  C   C8        1.0  0.6976383675746121  0.8057528989434886  0.30414566022295025  1.0000
  C   C9        1.0  0.1927830125163439  0.23626248515916606  0.6319590648665709  1.0000
  C   C10       1.0  0.8072132909366445  0.7637337776282178  0.3680412084075257  1.0000
  C   C11       1.0  0.12308671523518198  0.33143902503312717  0.6777764504792358  1.0000
  C   C12       1.0  0.8769147746580329  0.668563479289233  0.3222278307534694  1.0000
  C   C13       1.0  0.14873587638382446  0.3748523588415437  0.7857712158533162  1.0000
  C   C14       1.0  0.851267489205007  0.6251483552777373  0.21423433903392214  1.0000
  C   C15       1.0  0.2505416990858649  0.3294862441061425  0.8489394074903347  1.0000
  C   C16       1.0  0.7494644546335748  0.6705118196990513  0.15106213251138467  1.0000
  C   C17       1.0  0.33122345212759535  0.24381777827959178  0.8039594510161339  1.0000
  C   C18       1.0  0.6687817669206382  0.756181176253321  0.19604219282923208  1.0000
  C   C19       1.0  0.7718706856416446  0.25389683527142637  0.29284718134226756  1.0000
  C   C20       1.0  0.22812890453862877  0.746103010911895  0.7071526613887968  1.0000
  C   C21       1.0  0.5713666690388095  0.40656402204197667  0.3821766008473945  1.0000
  C   C22       1.0  0.42862893067944435  0.5934340329047173  0.6178225046762124  1.0000
  C   C23       1.0  0.3938549775623485  0.5360958156956668  0.24637716351112723  1.0000
  C   C24       1.0  0.6061429819606942  0.4639022212944255  0.7536258571751091  1.0000
  C   C25       1.0  0.6803976893400544  0.3170164053116692  0.227373315381584  1.0000
  C   C26       1.0  0.31959626701455324  0.682979857937056  0.7726260054135424  1.0000
  C   C27       1.0  0.5775446837400082  0.3893320421347467  0.26863233846669493  1.0000
  C   C28       1.0  0.42245185382606104  0.6106651177104111  0.7313674038841712  1.0000
  C   C29       1.0  0.4924976217502675  0.4466236900952366  0.2052950441878494  1.0000
  C   C30       1.0  0.5074993999249671  0.5533752419963847  0.7947073396711277  1.0000
  C   C31       1.0  0.5061329618178831  0.4257914653959317  0.10084557641638268  1.0000
  C   C32       1.0  0.49386476854978406  0.5742101491213917  0.8991566960147142  1.0000
  C   C33       1.0  0.606796701602839  0.3537741035227242  0.058942418818254794  1.0000
  C   C34       1.0  0.393199141758302  0.6462248353603002  0.9410583777948602  1.0000
  C   C35       1.0  0.6969247211041675  0.30180659544868144  0.12350778670397489  1.0000
  C   C36       1.0  0.30306618759394144  0.698191456046885  0.8764901545325899  1.0000
  C   C37       1.0  0.24518204496531837  0.17144417747024923  0.17722810249032514  1.0000
  C   C38       1.0  0.7548180088690016  0.8285619505350678  0.8227671772031543  1.0000
  C   C39       1.0  0.20453769409078154  0.1233527244598136  0.060670824565576716  1.0000
  C   C40       1.0  0.7954670475870814  0.876653411370448  0.9393248787440315  1.0000
  C   C41       1.0  0.0785334462769072  0.15488801399683888  0.002697986504564706  1.0000
  C   C42       1.0  0.9214689401682749  0.8451136520835759  0.9972973028335235  1.0000
  C   C43       1.0  0.03762691250256011  0.10365018189133932  0.8959241317782587  1.0000
  C   C44       1.0  0.9623738274023735  0.8963496968649236  0.10407063216043612  1.0000
  C   C45       1.0  0.24602091115378505  0.0008971219449875996  0.9011075026087455  1.0000
  C   C46       1.0  0.7539857093963037  0.9991072193083852  0.09889021502630876  1.0000
  C   C47       1.0  0.2889218424026225  0.04388125532905459  0.008399159222349802  1.0000
  C   C48       1.0  0.7110857177763704  0.9561266697815968  0.9915971753906806  1.0000
  N   N1        1.0  0.12078788186167343  0.028314791618683385  0.8456761922667867  1.0000
  N   N2        1.0  0.879215214671447  0.9716850735547949  0.1543217461636246  1.0000
  O   O1        1.0  0.39017277219804924  0.05822638562783308  0.5594238381431467  1.0000
  O   O2        1.0  0.6098143720168068  0.9417663014776847  0.4405733734701798  1.0000
  O   O3        1.0  0.46956883536860533  0.05664873416208849  0.7228181003924308  1.0000
  O   O4        1.0  0.5304337929383677  0.9433493368958423  0.2771808998844493  1.0000
  O   O5        1.0  0.2193450516447086  0.19871912983587947  0.45107056425047193  1.0000
  O   O6        1.0  0.7806508044228406  0.8012797915518773  0.5489331950462956  1.0000
  O   O7        1.0  0.9981627219766411  0.10843804516168379  0.49219079417540007  1.0000
  O   O8        1.0  0.0018364031540797601  0.891560002532273  0.507810851073046  1.0000
  O   O9        1.0  0.009185599756108269  0.3575533212301422  0.5138679968815723  1.0000
  O   O10       1.0  0.9908166020061415  0.6424518611440886  0.4861369135941801  1.0000
  O   O11       1.0  0.9717087840867222  0.47837851974430384  0.6601473414530262  1.0000
  O   O12       1.0  0.028303742521330746  0.5216302490156506  0.3398592552456989  1.0000
  O   O13       1.0  0.6969315529574586  0.19383809230597385  0.344951511968425  1.0000
  O   O14       1.0  0.3030649877852126  0.8061590631653672  0.6550489710533614  1.0000
  O   O15       1.0  0.9188079927763084  0.2578673495941429  0.28970109932882343  1.0000
  O   O16       1.0  0.0811897375913588  0.7421342649231732  0.7103011731022806  1.0000
  O   O17       1.0  0.45993180807155903  0.33745189653429  0.4064257041919959  1.0000
  O   O18       1.0  0.5400675511722426  0.6625470482174406  0.5935754101332122  1.0000
  O   O19       1.0  0.6826049404934978  0.48086346238256533  0.44648182402194453  1.0000
  O   O20       1.0  0.31739535024490806  0.5191345960152559  0.5535184457887042  1.0000
  O   O21       1.0  0.3641690385537828  0.5387554224465774  0.3395488724765983  1.0000
  O   O22       1.0  0.6358371278720724  0.4612426238633488  0.6604556302087802  1.0000
  O   O23       1.0  0.35079239616367625  0.6030844460274878  0.19399971325115933  1.0000
  O   O24       1.0  0.6491989980391041  0.396910894381918  0.8060036300137058  1.0000
  O   O25       1.0  0.3212005767101118  0.11202321406807407  0.2272897153784967  1.0000
  O   O26       1.0  0.6788027588937878  0.8879820227481755  0.7727064129503135  1.0000
  O   O27       1.0  0.19773779953087706  0.26564653875166033  0.21553870833769656  1.0000
  O   O28       1.0  0.8022577987918709  0.7343559995276718  0.7844576366657137  1.0000
  O   O29       1.0  0.6702561819034402  0.24786540967891568  0.5558888641326122  1.0000
  O   O30       1.0  0.32974199584966596  0.7521335462380276  0.4441099222758283  1.0000
  O   O31       1.0  0.22085738598734392  0.9262256581273577  0.36014084474208374  1.0000
  O   O32       1.0  0.7791377472858513  0.07377508166260328  0.639857302778701  1.0000
