data_image0
_chemical_formula_structural       Zr6H41C60Br5O32
_chemical_formula_sum              "Zr6 H41 C60 Br5 O32"
_cell_length_a       14.909910449937808
_cell_length_b       14.848574596295233
_cell_length_c       14.846972812074302
_cell_angle_alpha    59.16393395584795
_cell_angle_beta     59.75791323130742
_cell_angle_gamma    59.78976607604971

_space_group_name_H-M_alt    "P 1"
_space_group_IT_number       1

loop_
  _space_group_symop_operation_xyz
  'x, y, z'

loop_
  _atom_site_type_symbol
  _atom_site_label
  _atom_site_symmetry_multiplicity
  _atom_site_fract_x
  _atom_site_fract_y
  _atom_site_fract_z
  _atom_site_occupancy
  Zr  Zr1       1.0  0.884790277198718  0.37872240672850643  0.6260242980145492  1.0000
  Zr  Zr2       1.0  0.12000709202341384  0.6231755216324686  0.38093957899029357  1.0000
  Zr  Zr3       1.0  0.12318183771566986  0.3817284368344289  0.6235985116815642  1.0000
  Zr  Zr4       1.0  0.8841330604229825  0.6193135256137765  0.38451210716025497  1.0000
  Zr  Zr5       1.0  0.8843177128141732  0.617299996608338  0.6243295029455638  1.0000
  Zr  Zr6       1.0  0.12235447362340322  0.37919691864433963  0.38806557445273887  1.0000
  H   H1        1.0  0.910043784591785  0.4039320032619428  0.7877803963071912  1.0000
  H   H2        1.0  0.9076399501194528  0.7827397759362212  0.40689844692810345  1.0000
  H   H3        1.0  0.2841063611247777  0.40842768181327216  0.4082346450779325  1.0000
  H   H4        1.0  0.9100481321340651  0.4050503645204841  0.41301301783195743  1.0000
  H   H5        1.0  0.5732325986078024  0.3749726384737998  0.8948664264208901  1.0000
  H   H6        1.0  0.5198509270548186  0.772239006271434  0.8660453095312306  1.0000
  H   H7        1.0  0.6036828087167339  0.6853234044953351  0.9527631015745187  1.0000
  H   H8        1.0  0.4341363394870042  0.6735019894929265  0.12246859660625373  1.0000
  H   H9        1.0  0.3500852640874184  0.763009765040337  0.036229840608911046  1.0000
  H   H10       1.0  0.8496047002752362  0.09716843561123757  0.641499613514391  1.0000
  H   H11       1.0  0.24414501905499716  0.048572870393662954  0.31887878507192374  1.0000
  H   H12       1.0  0.15392574650712723  0.1360505979694224  0.2388791539575834  1.0000
  H   H13       1.0  0.14629226525983793  0.9657524370868558  0.24689875825276886  1.0000
  H   H14       1.0  0.2329028452115124  0.8793057910222116  0.330467438833793  1.0000
  H   H15       1.0  0.5801194246667905  0.8893374946288898  0.6646341316322902  1.0000
  H   H16       1.0  0.5346348645223741  0.8829443544339455  0.33267541638146986  1.0000
  H   H17       1.0  0.6202345399542537  0.9673997365121708  0.2549137537846775  1.0000
  H   H18       1.0  0.4509323280054928  0.13868322411715883  0.2639611300485569  1.0000
  H   H19       1.0  0.3661199429889733  0.054011496276260056  0.3413404600133276  1.0000
  H   H20       1.0  0.13714358410687305  0.34524564346563835  0.10651837927185429  1.0000
  H   H21       1.0  0.8419004933294472  0.7563207761609407  0.03443791300104948  1.0000
  H   H22       1.0  0.7534479408347537  0.6744398947256018  0.11968279306309176  1.0000
  H   H23       1.0  0.7611248028440795  0.669314988809603  0.9486311117447884  1.0000
  H   H24       1.0  0.8510495594755696  0.749116416942073  0.8631882094902963  1.0000
  H   H25       1.0  0.8807546194222694  0.019816637359781508  0.18021336990268114  1.0000
  H   H26       1.0  0.018330055246053474  0.9955193440624939  0.1575889716513998  1.0000
  H   H27       1.0  0.018706781751895083  0.15481410455240757  0.9981934380268953  1.0000
  H   H28       1.0  0.8813788888101328  0.17743617421196234  0.021385771010365182  1.0000
  H   H29       1.0  0.17713685828221046  0.03788021105763304  0.881309459116224  1.0000
  H   H30       1.0  0.1513299646107313  0.9783232729790895  0.8240763235282599  1.0000
  H   H31       1.0  0.17494538392182318  0.8800579345447516  0.04289051705664808  1.0000
  H   H32       1.0  0.1517650535312853  0.820024280201089  0.9836182398318059  1.0000
  H   H33       1.0  0.8425739199875791  0.9362567856484533  0.09653416896523483  1.0000
  H   H34       1.0  0.9515340339835986  0.8542018819240552  0.016398322740265207  1.0000
  H   H35       1.0  0.9535385077771749  0.01287912481981106  0.856059367462983  1.0000
  H   H36       1.0  0.8439397694284595  0.0945278905172841  0.9362670993204246  1.0000
  H   H37       1.0  0.5940177701141425  0.6480189191842171  0.3613064188033732  1.0000
  H   H38       1.0  0.5323690646919063  0.32857625043958194  0.7620713311428418  1.0000
  H   H39       1.0  0.6172354438325626  0.24620157815390797  0.6749395301486345  1.0000
  H   H40       1.0  0.4481475300891304  0.2588684195372719  0.6631095728015381  1.0000
  H   H41       1.0  0.3634397196020416  0.3410527134112867  0.7497870119277438  1.0000
  C   C1        1.0  0.693668674167668  0.5068341610223541  0.8003309218752791  1.0000
  C   C2        1.0  0.9939166243248607  0.8068170250354075  0.5050057523232566  1.0000
  C   C3        1.0  0.29411761953148374  0.5056789086046579  0.1906068686892936  1.0000
  C   C4        1.0  0.004589839859100611  0.19539729586774962  0.5061978502130344  1.0000
  C   C5        1.0  0.005536990214274281  0.1907723254511778  0.8072870874151405  1.0000
  C   C6        1.0  0.698889864568521  0.4999141120842553  0.5092914379497843  1.0000
  C   C7        1.0  0.003360961495865026  0.8046921792154791  0.19375549622004223  1.0000
  C   C8        1.0  0.30305147290889783  0.5125957144891656  0.4973394462538892  1.0000
  C   C9        1.0  0.0074806668015198665  0.49613034074684476  0.80752869744628  1.0000
  C   C10       1.0  0.30042047745371286  0.1908540371856517  0.517143950859662  1.0000
  C   C11       1.0  0.004256857196601565  0.501648924759813  0.20154957353834388  1.0000
  C   C12       1.0  0.6956907004690862  0.7951083731117735  0.5085969090275526  1.0000
  C   C13       1.0  0.5853582616438472  0.5151930392887535  0.8909070590088675  1.0000
  C   C14       1.0  0.3861612940390699  0.5105563754238175  0.08254323722411523  1.0000
  C   C15       1.0  0.5302952273886065  0.5957012976347115  0.9401184582559382  1.0000
  C   C16       1.0  0.4378600486859198  0.4347672776220933  0.025434580979585036  1.0000
  C   C17       1.0  0.43486579183663543  0.5917793533908765  0.032806717037615764  1.0000
  C   C18       1.0  0.5344617717211763  0.4365985897893124  0.9340961188232128  1.0000
  C   C19       1.0  0.5318179302998941  0.6974315667850063  0.9393402380519333  1.0000
  C   C20       1.0  0.4250942709323481  0.6916278072110843  0.04536961449809239  1.0000
  C   C21       1.0  0.9969710444839989  0.10304668975464881  0.49944475365446556  1.0000
  C   C22       1.0  0.9840422510378913  0.9132060184039544  0.5021636995174462  1.0000
  C   C23       1.0  0.07002052413400858  0.05611386351836248  0.41690600668717087  1.0000
  C   C24       1.0  0.9032281061171971  0.9692082384137065  0.5790623641369875  1.0000
  C   C25       1.0  0.06337678786532298  0.9639201325062885  0.42020246967849334  1.0000
  C   C26       1.0  0.9112986643986005  0.058955772784173605  0.5789007851296474  1.0000
  C   C27       1.0  0.16883612053240424  0.06115448986901126  0.31126047609790675  1.0000
  C   C28       1.0  0.16267759629488418  0.9553696022837243  0.31659143167171067  1.0000
  C   C29       1.0  0.5920282120459885  0.8913691255248397  0.5134460954873886  1.0000
  C   C30       1.0  0.3966939847678076  0.08632889501767234  0.5234188896366946  1.0000
  C   C31       1.0  0.5409703560587577  0.9479961411709681  0.43358080588768655  1.0000
  C   C32       1.0  0.4480018171449132  0.02560085078506781  0.6061709207431322  1.0000
  C   C33       1.0  0.4472155473399653  0.04202565942727421  0.4391395291324827  1.0000
  C   C34       1.0  0.5422345303168046  0.9320931803559557  0.6007093685416365  1.0000
  C   C35       1.0  0.5463120108600987  0.9536937945548588  0.3262461964041775  1.0000
  C   C36       1.0  0.440665087664989  0.060729597040065475  0.3318290330456009  1.0000
  C   C37       1.0  0.0021976503832235243  0.49862614207728484  0.10415486634065735  1.0000
  C   C38       1.0  0.006639545240993541  0.4894010802094044  0.9115908589392063  1.0000
  C   C39       1.0  0.9263914715845868  0.578645689123306  0.04935143191561053  1.0000
  C   C40       1.0  0.07934571242485318  0.4046992283536781  0.9725252845285441  1.0000
  C   C41       1.0  0.9300883170761264  0.5738860214978347  0.9560160345012817  1.0000
  C   C42       1.0  0.0782278388791013  0.41048285660386336  0.06396252725306789  1.0000
  C   C43       1.0  0.8278573440280821  0.684120089240693  0.04729049025527823  1.0000
  C   C44       1.0  0.8329132546867083  0.6799450202200176  0.9405282605123304  1.0000
  C   C45       1.0  0.9640522941777119  0.009999673880891343  0.11848041743778734  1.0000
  C   C46       1.0  0.9646005077149058  0.11572624897313938  0.012321154348306518  1.0000
  C   C47       1.0  0.004638900174370452  0.08521744292380613  0.9096651236794387  1.0000
  C   C48       1.0  0.12152357222464641  0.9995651510679479  0.8975701301557707  1.0000
  C   C49       1.0  0.12095069739077494  0.8945231266591449  0.0036111826659918573  1.0000
  C   C50       1.0  0.0033506499394420157  0.9072850471164102  0.08844240347963242  1.0000
  C   C51       1.0  0.9258662336196292  0.92788885822857  0.03536694457252307  1.0000
  C   C52       1.0  0.92680978237302  0.032963006082411525  0.9293642906398601  1.0000
  C   C53       1.0  0.5985637959944227  0.5020690034255252  0.508040159304585  1.0000
  C   C54       1.0  0.4037712481547472  0.5140358872288503  0.4955061000712888  1.0000
  C   C55       1.0  0.5447605132415275  0.42433069371416815  0.5848863850767643  1.0000
  C   C56       1.0  0.46083770969327986  0.5917335860152164  0.41689794256850365  1.0000
  C   C57       1.0  0.45112367909813866  0.4312815805659511  0.5780504479397095  1.0000
  C   C58       1.0  0.5536884364504219  0.5861689507139757  0.423510949621125  1.0000
  C   C59       1.0  0.5450716389917147  0.31983604227568907  0.686968680479545  1.0000
  C   C60       1.0  0.43922706160745406  0.32767884789077334  0.6794587703965007  1.0000
  Br  Br1       1.0  0.3817542320333517  0.32426057339916536  0.06373322379633345  1.0000
  Br  Br2       1.0  0.7722358360827567  0.9340932024798291  0.685863781832559  1.0000
  Br  Br3       1.0  0.39647728562138695  0.0628957903465093  0.7336135560462296  1.0000
  Br  Br4       1.0  0.18214320102006096  0.2709218276003327  0.9416582795806434  1.0000
  Br  Br5       1.0  0.42052146084289893  0.7116517016512419  0.2913646432210655  1.0000
  O   O1        1.0  0.7363720157922626  0.4269087018719872  0.7649407116140453  1.0000
  O   O2        1.0  0.07235223056575538  0.7707354058376978  0.4272127965178639  1.0000
  O   O3        1.0  0.2583752434851263  0.5830455665993952  0.22723142497132187  1.0000
  O   O4        1.0  0.9311896143090905  0.23151429950630129  0.5854720197763115  1.0000
  O   O5        1.0  0.080645339796213  0.2311649921144648  0.7693663144871651  1.0000
  O   O6        1.0  0.7390146137348169  0.5768482047798853  0.43164247278114937  1.0000
  O   O7        1.0  0.9278553543279742  0.763300658679036  0.2359366923194486  1.0000
  O   O8        1.0  0.26630389839344565  0.43406027959024823  0.5762554293505175  1.0000
  O   O9        1.0  0.9292866188789547  0.5737248150446346  0.770663040190982  1.0000
  O   O10       1.0  0.2634073387499782  0.22875016959034147  0.4389369701737138  1.0000
  O   O11       1.0  0.08039628086918056  0.4251483761179885  0.24175391963762397  1.0000
  O   O12       1.0  0.7370104420921421  0.7563695878670629  0.5835397710352268  1.0000
  O   O13       1.0  0.2633530361557844  0.23652173662377854  0.587589380774844  1.0000
  O   O14       1.0  0.92821537852636  0.5801900670675904  0.2379769777778193  1.0000
  O   O15       1.0  0.7360226175011914  0.7606917832394443  0.4283767576967745  1.0000
  O   O16       1.0  0.08589329441586799  0.42505235402736463  0.7621347305719794  1.0000
  O   O17       1.0  0.9281998386096217  0.23361139191855054  0.7676852294982127  1.0000
  O   O18       1.0  0.2613400452445661  0.5878389770900583  0.4207802156123819  1.0000
  O   O19       1.0  0.07819470456843892  0.7677301255604759  0.23464078879521819  1.0000
  O   O20       1.0  0.7378585700165772  0.42095223206366933  0.5863930572144228  1.0000
  O   O21       1.0  0.08385733888171394  0.23206058803753385  0.4309989353326174  1.0000
  O   O22       1.0  0.7365633481793309  0.5790764605684372  0.7669849349841158  1.0000
  O   O23       1.0  0.9246977957421476  0.7586041602861047  0.5853535118024027  1.0000
  O   O24       1.0  0.2606754849518607  0.42257486090498025  0.24085677670695554  1.0000
  O   O25       1.0  0.936791423572977  0.43149599064648914  0.4393823828703843  1.0000
  O   O26       1.0  0.20436853539793273  0.4348590636511601  0.4355849982433497  1.0000
  O   O27       1.0  0.9344959088520566  0.7022223927820619  0.43564890530700506  1.0000
  O   O28       1.0  0.9366394327661565  0.4318128478853894  0.7072229489231814  1.0000
  O   O29       1.0  0.05255491221027612  0.5508818779187407  0.551475704853047  1.0000
  O   O30       1.0  0.8549561123579321  0.5483712680196077  0.5545578513595687  1.0000
  O   O31       1.0  0.05212534255703349  0.5501640399950246  0.3550139650547807  1.0000
  O   O32       1.0  0.05313086914956947  0.35064428083538957  0.5564700255542121  1.0000
