data_image0
_chemical_formula_structural       Na2H14C8N16O6
_chemical_formula_sum              "Na2 H14 C8 N16 O6"
_cell_length_a       6.668877178809874
_cell_length_b       7.249788865547026
_cell_length_c       10.674805821347706
_cell_angle_alpha    108.84286028592722
_cell_angle_beta     98.63966834778968
_cell_angle_gamma    103.70150589761228

_space_group_name_H-M_alt    "P 1"
_space_group_IT_number       1

loop_
  _space_group_symop_operation_xyz
  'x, y, z'

loop_
  _atom_site_type_symbol
  _atom_site_label
  _atom_site_symmetry_multiplicity
  _atom_site_fract_x
  _atom_site_fract_y
  _atom_site_fract_z
  _atom_site_occupancy
  Na  Na1       1.0  0.9513749415792602  0.30210833356871797  0.058955380129582076  1.0000
  Na  Na2       1.0  0.0486220274110777  0.6978899698167422  0.9410430542387899  1.0000
  H   H1        1.0  0.2664880891620384  0.7448748678456028  0.540110611598891  1.0000
  H   H2        1.0  0.7335113545665379  0.2551264967811377  0.45988967102658757  1.0000
  H   H3        1.0  0.2934288931585129  0.5301275280601843  0.5827842185011747  1.0000
  H   H4        1.0  0.706571593363435  0.4698723146597458  0.41721489186433297  1.0000
  H   H5        1.0  0.17958035633598962  0.8034532765090034  0.3113896562472576  1.0000
  H   H6        1.0  0.8204206055154727  0.19654809260151035  0.6886107727393947  1.0000
  H   H7        1.0  0.2975830497910366  0.4306376299773902  0.9241382986828768  1.0000
  H   H8        1.0  0.7024179120604257  0.5693637391331309  0.07586213030377559  1.0000
  H   H9        1.0  0.366308581536785  0.5501697736821285  0.08411591261353381  1.0000
  H   H10       1.0  0.6336903809059463  0.44983006057769614  0.9158839867371639  1.0000
  H   H11       1.0  0.6506488156943887  0.053157133658793  0.1730391797479882  1.0000
  H   H12       1.0  0.3493496654625048  0.9468411702341227  0.8269603363279144  1.0000
  H   H13       1.0  0.5099048959383978  0.135809229562966  0.08727839065437586  1.0000
  H   H14       1.0  0.4900944496994839  0.8641967057754415  0.912726636819741  1.0000
  C   C1        1.0  0.2022046096323464  0.4804012546611176  0.3774950668487449  1.0000
  C   C2        1.0  0.7977978643856647  0.5196001149568517  0.6225064438454453  1.0000
  C   C3        1.0  0.1909234272389497  0.2605745597689264  0.33336574374916944  1.0000
  C   C4        1.0  0.80907560946914  0.739420687873931  0.6666331521383384  1.0000
  C   C5        1.0  0.21864018757792536  0.13180761793602613  0.4042477555149091  1.0000
  C   C6        1.0  0.7813607802298604  0.8681937551508198  0.5957517381253863  1.0000
  C   C7        1.0  0.2744663878597038  0.1629279689439116  0.5473212720446198  1.0000
  C   C8        1.0  0.7255325805393581  0.837071869292238  0.4526776919597139  1.0000
  N   N1        1.0  0.26172077086342677  0.5926090566861929  0.5102917212217759  1.0000
  N   N2        1.0  0.738279715658521  0.40739078603373696  0.48970738914373146  1.0000
  N   N3        1.0  0.1397595429738061  0.14456714487800323  0.19700562993546097  1.0000
  N   N4        1.0  0.860239425425256  0.8554326933581534  0.8029933340688727  1.0000
  N   N5        1.0  0.1337422216443115  0.955780977814605  0.17998995480021307  1.0000
  N   N6        1.0  0.8662582589213058  0.044218860929  0.8200100909116514  1.0000
  N   N7        1.0  0.18053933013371895  0.9459904643809338  0.30418608741823755  1.0000
  N   N8        1.0  0.819461144475561  0.054009370386346185  0.6958148936399908  1.0000
  N   N9        1.0  0.32247310114237127  0.3431968230367132  0.6523085634720258  1.0000
  N   N10       1.0  0.677526342586205  0.6568045415900273  0.3476917191534596  1.0000
  N   N11       1.0  0.364680495184551  0.30146823202878176  0.7647199270257301  1.0000
  N   N12       1.0  0.6353184672581805  0.69853160223105  0.23527997232496733  1.0000
  N   N13       1.0  0.3426407655096  0.10304246780119539  0.7293530904767492  1.0000
  N   N14       1.0  0.6573597210123481  0.8969573749187276  0.27064601988875836  1.0000
  N   N15       1.0  0.28658504716233313  0.012385660643062102  0.593803634354728  1.0000
  N   N16       1.0  0.7134159206454526  0.9876157124437839  0.4061958592855675  1.0000
  O   O1        1.0  0.15514312341395708  0.5521985079188099  0.2872893340498806  1.0000
  O   O2        1.0  0.8448578503501593  0.4478028691443611  0.7127092242440509  1.0000
  O   O3        1.0  0.2438412050801658  0.491965360598769  0.004484694409704587  1.0000
  O   O4        1.0  0.7561577573625655  0.5080344736610556  0.9955152049409931  1.0000
  O   O5        1.0  0.6577253276122548  0.15252071612783877  0.12627205305901157  1.0000
  O   O6        1.0  0.3422741963380104  0.8474760658582595  0.8737262907569203  1.0000
