data_image0
_chemical_formula_structural       Tm2H14C16S2O18
_chemical_formula_sum              "Tm2 H14 C16 S2 O18"
_cell_length_a       6.335536240694631
_cell_length_b       8.515194985642532
_cell_length_c       10.549586832761607
_cell_angle_alpha    90.31622134016159
_cell_angle_beta     99.79578754703593
_cell_angle_gamma    107.49162844960377

_space_group_name_H-M_alt    "P 1"
_space_group_IT_number       1

loop_
  _space_group_symop_operation_xyz
  'x, y, z'

loop_
  _atom_site_type_symbol
  _atom_site_label
  _atom_site_symmetry_multiplicity
  _atom_site_fract_x
  _atom_site_fract_y
  _atom_site_fract_z
  _atom_site_occupancy
  Tm  Tm1       1.0  0.15640636557669302  0.25126565679440926  0.6178693889588516  1.0000
  Tm  Tm2       1.0  0.8435969127051592  0.7487347281398157  0.38213269016426926  1.0000
  H   H1        1.0  0.6174599700812706  0.41253670064880765  0.14574037617503421  1.0000
  H   H2        1.0  0.38254062186950233  0.5874649236972118  0.8542595404738762  1.0000
  H   H3        1.0  0.6587325885557649  0.3684809527624751  0.919572957652406  1.0000
  H   H4        1.0  0.3412632529151978  0.6315169726705889  0.0804264530674246  1.0000
  H   H5        1.0  0.18322687481541783  0.15292165304343544  0.0556433099901668  1.0000
  H   H6        1.0  0.8167742867257887  0.8470775033443803  0.9443566503352159  1.0000
  H   H7        1.0  0.5207390054589638  0.0810996377282152  0.6772536443992507  1.0000
  H   H8        1.0  0.4792594689271682  0.9189007518665805  0.3227469970491654  1.0000
  H   H9        1.0  0.29173542685996506  0.9564704778355446  0.6047810846623847  1.0000
  H   H10       1.0  0.708262531900985  0.04352868028047399  0.3952185491236904  1.0000
  H   H11       1.0  0.6543039210907294  0.35834350624020317  0.7082745655539925  1.0000
  H   H12       1.0  0.34569832621543367  0.6416544178047302  0.29172455037871  1.0000
  H   H13       1.0  0.581195966049023  0.5096843483194958  0.646925947434994  1.0000
  H   H14       1.0  0.41880943034681206  0.4903172755024912  0.3530735111571275  1.0000
  C   C1        1.0  0.0223631604145211  0.222756789778721  0.2012786811678708  1.0000
  C   C2        1.0  0.9776347977970943  0.7772423642007597  0.7987228483496978  1.0000
  C   C3        1.0  0.8681843910221261  0.3024386057098241  0.22860220058783653  1.0000
  C   C4        1.0  0.13181568502879773  0.6975617850891423  0.7713976562644831  1.0000
  C   C5        1.0  0.7372830123388566  0.3516616928660738  0.12482168655709806  1.0000
  C   C6        1.0  0.26271494614742597  0.6483374631816685  0.8751788950947201  1.0000
  C   C7        1.0  0.7614887989812472  0.32762324326947123  0.9980710705551985  1.0000
  C   C8        1.0  0.23850972964480377  0.6723734489566054  0.001927659041598393  1.0000
  C   C9        1.0  0.9256978147774221  0.2582081890612429  0.9732533205600048  1.0000
  C   C10       1.0  0.07429962808367924  0.7417897355077159  0.0267462534294793  1.0000
  C   C11       1.0  0.05367090767954611  0.2045117925228865  0.07524722448765431  1.0000
  C   C12       1.0  0.9463281362970121  0.7954861291137046  0.9247534606372341  1.0000
  C   C13       1.0  0.8465984825113321  0.3453230615708732  0.3635585122924994  1.0000
  C   C14       1.0  0.15340417248949484  0.6546834928268267  0.6364435392742749  1.0000
  C   C15       1.0  0.9865721791393653  0.25160838657013324  0.8433979154152811  1.0000
  C   C16       1.0  0.013426349212018398  0.7483883035876744  0.15660176204726642  1.0000
  S   S1        1.0  0.209441829546634  0.15868976230292728  0.3215898685615954  1.0000
  S   S2        1.0  0.7905572144299313  0.8413081593336642  0.6784108165632929  1.0000
  O   O1        1.0  0.08000622682664021  0.015072122858775598  0.38326519112933255  1.0000
  O   O2        1.0  0.919989045328556  0.9849282726007614  0.6167332280482825  1.0000
  O   O3        1.0  0.30497945615312017  0.2993702963387933  0.4205929320324273  1.0000
  O   O4        1.0  0.6950297123387443  0.7006288557285244  0.5794078446412244  1.0000
  O   O5        1.0  0.3747290632219489  0.12333764805105564  0.25633788447645867  1.0000
  O   O6        1.0  0.6252726133951042  0.8766627356790051  0.7436649792427588  1.0000
  O   O7        1.0  0.8606909883331324  0.24321310811784252  0.45072449027042444  1.0000
  O   O8        1.0  0.1393111499438433  0.7567922065279973  0.549280345096996  1.0000
  O   O9        1.0  0.8177219279739631  0.4824865530872841  0.3842258689803728  1.0000
  O   O10       1.0  0.18227763245178602  0.5175126062328984  0.6157729802096057  1.0000
  O   O11       1.0  0.17442424638654327  0.22852621456834038  0.8362205159129914  1.0000
  O   O12       1.0  0.8255758293897203  0.7714741741623569  0.1637802888050715  1.0000
  O   O13       1.0  0.8599892976126284  0.27207675515516877  0.7401439929736215  1.0000
  O   O14       1.0  0.14000814524846564  0.7279211694137899  0.2598555810158559  1.0000
  O   O15       1.0  0.36890125317057  0.0742059437804841  0.6338316785225191  1.0000
  O   O16       1.0  0.6311025432084634  0.9257956912469537  0.3661628774712185  1.0000
  O   O17       1.0  0.5280476238811929  0.40741069250922374  0.6916612638546553  1.0000
  O   O18       1.0  0.4719545691850443  0.5925909289044283  0.3083397639296593  1.0000
