data_image0
_chemical_formula_structural       Mg2H8C4O12
_chemical_formula_sum              "Mg2 H8 C4 O12"
_cell_length_a       5.48990790181222
_cell_length_b       6.874405449494122
_cell_length_c       8.061678197507586
_cell_angle_alpha    82.19612113904066
_cell_angle_beta     70.11590524693936
_cell_angle_gamma    66.47983702957565

_space_group_name_H-M_alt    "P 1"
_space_group_IT_number       1

loop_
  _space_group_symop_operation_xyz
  'x, y, z'

loop_
  _atom_site_type_symbol
  _atom_site_label
  _atom_site_symmetry_multiplicity
  _atom_site_fract_x
  _atom_site_fract_y
  _atom_site_fract_z
  _atom_site_occupancy
  Mg  Mg1       1.0  0.12495495363283732  0.2499950002776217  0.24995471539655512  1.0000
  Mg  Mg2       1.0  0.8750495056881745  0.7500032911006257  0.7500484573420394  1.0000
  H   H1        1.0  0.29983233205430787  0.8365163354595919  0.35654784722031246  1.0000
  H   H2        1.0  0.9929448994102328  0.6635083783058989  0.14348726307337495  1.0000
  H   H3        1.0  0.3637020493668359  0.8364189888286546  0.14344858178770187  1.0000
  H   H4        1.0  0.8435344465851597  0.6635164852918293  0.35655647476176705  1.0000
  H   H5        1.0  0.7001671931553871  0.1634803687775062  0.6434552614181328  1.0000
  H   H6        1.0  0.007053556004720202  0.3364899123374983  0.8565141643809328  1.0000
  H   H7        1.0  0.6362940270291868  0.1635840612432488  0.8565528455491674  1.0000
  H   H8        1.0  0.1564611986290956  0.33648497819007167  0.6434461974381733  1.0000
  C   C1        1.0  0.5734805912688115  0.25008577147824707  0.3528844444496997  1.0000
  C   C2        1.0  0.6763532994376718  0.2501311362286812  0.1469508737781524  1.0000
  C   C3        1.0  0.4265249004879407  0.7499093468079038  0.6471153660771877  1.0000
  C   C4        1.0  0.32364834968264183  0.749870327988063  0.853053543706075  1.0000
  O   O1        1.0  0.33150052347674824  0.24692595322155594  0.42798053225396165  1.0000
  O   O2        1.0  0.5061985529741831  0.2533399859076225  0.07184722640111833  1.0000
  O   O3        1.0  0.9215749019203868  0.24684669088181724  0.0718656605920174  1.0000
  O   O4        1.0  0.7405119849868027  0.25315460953464713  0.42798096844463623  1.0000
  O   O5        1.0  0.6685210424791206  0.7530691667800083  0.5720127461108149  1.0000
  O   O6        1.0  0.4938056832367362  0.7466709978491579  0.9281497219046884  1.0000
  O   O7        1.0  0.07842801906510737  0.7531500136269145  0.9281320324296588  1.0000
  O   O8        1.0  0.259491643968893  0.7468436816339689  0.5720171608589623  1.0000
  O   O9        1.0  0.28722176432402313  0.9253793271316653  0.2499806084807261  1.0000
  O   O10       1.0  0.9625576381694502  0.5746070862539908  0.2500182946660061  1.0000
  O   O11       1.0  0.712770517112659  0.074625309048983  0.7500199461748525  1.0000
  O   O12       1.0  0.0374216880554666  0.42539754841299526  0.7499816953899129  1.0000
