data_image0
_chemical_formula_structural       Cd4H64C82N8O28
_chemical_formula_sum              "Cd4 H64 C82 N8 O28"
_cell_length_a       9.116680658001897
_cell_length_b       15.332288984008478
_cell_length_c       17.505933470013513
_cell_angle_alpha    90.00012025720362
_cell_angle_beta     89.99992843203135
_cell_angle_gamma    89.99997672255924

_space_group_name_H-M_alt    "P 1"
_space_group_IT_number       1

loop_
  _space_group_symop_operation_xyz
  'x, y, z'

loop_
  _atom_site_type_symbol
  _atom_site_label
  _atom_site_symmetry_multiplicity
  _atom_site_fract_x
  _atom_site_fract_y
  _atom_site_fract_z
  _atom_site_occupancy
  Cd  Cd1       1.0  0.8079444048040186  0.17330892124958555  0.7474721787557854  1.0000
  Cd  Cd2       1.0  0.8079425932866613  0.8266902112438359  0.25252744029366164  1.0000
  Cd  Cd3       1.0  0.1920523030046013  0.6733106655643725  0.7525299695093679  1.0000
  Cd  Cd4       1.0  0.1920530388809354  0.3266905725324492  0.24746947107708187  1.0000
  H   H1        1.0  0.5337533163279174  0.9096269639447244  0.774582025861953  1.0000
  H   H2        1.0  0.5337542674178124  0.0903748437322989  0.22541719681310465  1.0000
  H   H3        1.0  0.4662531022126403  0.40962916184395237  0.7254188358410403  1.0000
  H   H4        1.0  0.46625468871413733  0.5903687488516315  0.2745838572863235  1.0000
  H   H5        1.0  0.5127849700444572  0.7459575840045363  0.9742741778756  1.0000
  H   H6        1.0  0.5127873946962892  0.2540435765243246  0.0257244869355802  1.0000
  H   H7        1.0  0.48721388196442916  0.2459579858366467  0.5257275304653246  1.0000
  H   H8        1.0  0.4872181590665576  0.7540438330952242  0.4742717218881154  1.0000
  H   H9        1.0  0.8347167811423118  0.9510554105091272  0.9605057859995725  1.0000
  H   H10       1.0  0.834717118320377  0.0489430632874956  0.0394909598006876  1.0000
  H   H11       1.0  0.1652852215600973  0.4510591848372698  0.5394962930580149  1.0000
  H   H12       1.0  0.16528418785731697  0.5489446686100268  0.46050602077589536  1.0000
  H   H13       1.0  0.1324946179939133  0.0957661399168188  0.7697270641764362  1.0000
  H   H14       1.0  0.1324971955443175  0.9042338081460458  0.23027184315488822  1.0000
  H   H15       1.0  0.8675054334118073  0.5957650577771005  0.7302726589868412  1.0000
  H   H16       1.0  0.8675082557118684  0.4042347125303537  0.2697274933129492  1.0000
  H   H17       1.0  0.35581942428473207  0.0577677826666729  0.6958348692821872  1.0000
  H   H18       1.0  0.3558217951899607  0.9422321113859057  0.3041633243940892  1.0000
  H   H19       1.0  0.6441795561645519  0.5577669345783106  0.8041642139646683  1.0000
  H   H20       1.0  0.6441814363503724  0.44223354195885617  0.19583722322669664  1.0000
  H   H21       1.0  0.9258394838171072  0.1996296259570443  0.5798729903606983  1.0000
  H   H22       1.0  0.9258416679398848  0.8003720868964024  0.42012598227009323  1.0000
  H   H23       1.0  0.07415830292379161  0.6996278938346377  0.9201257780663356  1.0000
  H   H24       1.0  0.0741572728599849  0.3003668505902226  0.07987316646406127  1.0000
  H   H25       1.0  0.14355816538402172  0.1671556675482009  0.4960821916815021  1.0000
  H   H26       1.0  0.1435612193157496  0.8328429734008935  0.5039155661231901  1.0000
  H   H27       1.0  0.856437575661154  0.6671579498657324  0.003916145036704699  1.0000
  H   H28       1.0  0.8564342827259566  0.33284051868386655  0.9960851567919062  1.0000
  H   H29       1.0  0.4315068740586483  0.9684607626784257  0.5933435615499574  1.0000
  H   H30       1.0  0.43150632517184556  0.0315404175059726  0.4066540126256228  1.0000
  H   H31       1.0  0.5684951167716648  0.4684588119168467  0.9066545503184287  1.0000
  H   H32       1.0  0.5684927991018894  0.5315403784837613  0.09334350772975597  1.0000
  H   H33       1.0  0.5521662081258897  0.05872185277400631  0.6124590765308469  1.0000
  H   H34       1.0  0.5521650851071059  0.9412799504460525  0.3875367069931314  1.0000
  H   H35       1.0  0.44783606234699386  0.5587192986623607  0.887537723498333  1.0000
  H   H36       1.0  0.4478326626338572  0.44128057313869107  0.11246155396808177  1.0000
  H   H37       1.0  0.6023414299556863  0.13262386783276275  0.45958181834517825  1.0000
  H   H38       1.0  0.6023443710504138  0.8673792276931067  0.5404173605899415  1.0000
  H   H39       1.0  0.39765543154777566  0.632621132293366  0.0404175984216337  1.0000
  H   H40       1.0  0.3976598825464279  0.36737483833327633  0.9595822822751713  1.0000
  H   H41       1.0  0.7380738734113592  0.1004813102561855  0.5275832611619364  1.0000
  H   H42       1.0  0.7380769588791977  0.8995171869132433  0.4724141175041154  1.0000
  H   H43       1.0  0.2619217872156412  0.6004809645676944  0.9724153280563073  1.0000
  H   H44       1.0  0.2619263018159613  0.3995176477585575  0.0275846392038233  1.0000
  H   H45       1.0  0.7897023580938266  0.22715571372389584  0.4556608877431073  1.0000
  H   H46       1.0  0.7897053541164  0.7728466842716417  0.5443381717063076  1.0000
  H   H47       1.0  0.2102977295627824  0.7271530330511239  0.044339842358958485  1.0000
  H   H48       1.0  0.2102945764335686  0.27284298289112746  0.9556630139977641  1.0000
  H   H49       1.0  0.9672023130766546  0.326237362595947  0.3915569412065167  1.0000
  H   H50       1.0  0.9672008323812306  0.6737636880404524  0.6084454324560085  1.0000
  H   H51       1.0  0.032799900737451496  0.8262368376988153  0.10844453922193507  1.0000
  H   H52       1.0  0.0327947782247691  0.17376248226270977  0.8915590015683816  1.0000
  H   H53       1.0  0.1305965182658042  0.1279890129133889  0.2556288302816441  1.0000
  H   H54       1.0  0.13058908538425842  0.8720122400533584  0.7443757906134322  1.0000
  H   H55       1.0  0.8694025401800474  0.6279873124485748  0.24437172057768208  1.0000
  H   H56       1.0  0.8693998085730712  0.3720098485322722  0.7556324291559235  1.0000
  H   H57       1.0  0.9524844398654649  0.0194846345236215  0.311214194937655  1.0000
  H   H58       1.0  0.9524847471102547  0.9805190285425381  0.6887859031730769  1.0000
  H   H59       1.0  0.0475103050741836  0.5194810407325505  0.1887844460948358  1.0000
  H   H60       1.0  0.04751284792396859  0.4805143623576384  0.8112168003687187  1.0000
  H   H61       1.0  0.7802858022957578  0.8668718639434658  0.07370468769548918  1.0000
  H   H62       1.0  0.7802850101225545  0.13312923189248954  0.9262938065242565  1.0000
  H   H63       1.0  0.21971638378443709  0.36687330647926325  0.426297437416558  1.0000
  H   H64       1.0  0.21971830645759377  0.6331298815834357  0.5737031279989395  1.0000
  C   C1        1.0  0.7467367765010807  0.019504201338477904  0.8263704512005816  1.0000
  C   C2        1.0  0.7467383436413257  0.98049494595719  0.17362920688154299  1.0000
  C   C3        1.0  0.2532655207308849  0.5195083474807376  0.6736297053580316  1.0000
  C   C4        1.0  0.2532626680063359  0.48049418024987034  0.3263702674283167  1.0000
  C   C5        1.0  0.6877555189057816  0.9398195462862732  0.8646914519453901  1.0000
  C   C6        1.0  0.6877556140855816  0.0601796152737961  0.1353082437511333  1.0000
  C   C7        1.0  0.31224978213671056  0.43982221409294203  0.6353106068013048  1.0000
  C   C8        1.0  0.3122467813112522  0.5601783427205121  0.3646916133070377  1.0000
  C   C9        1.0  0.5741967014285834  0.8920125671093402  0.830924608064606  1.0000
  C   C10       1.0  0.57419448761852  0.10798923078709778  0.16907458881962606  1.0000
  C   C11       1.0  0.4258086322424716  0.39201463750836035  0.6690767930354652  1.0000
  C   C12       1.0  0.4258045844795859  0.6079858918403785  0.330924212183902  1.0000
  C   C13       1.0  0.5125042673321403  0.821532604879444  0.8703877552591023  1.0000
  C   C14       1.0  0.5125064894926085  0.17847051237441755  0.12961262343759467  1.0000
  C   C15       1.0  0.4874978237683223  0.32153325976935326  0.6296146609178733  1.0000
  C   C16       1.0  0.48750021273721694  0.6784659502221188  0.3703857337225216  1.0000
  C   C17       1.0  0.5627231212332903  0.7998646901542729  0.9433498386041137  1.0000
  C   C18       1.0  0.5627244101570383  0.2001358060784852  0.05664822312505179  1.0000
  C   C19       1.0  0.43727898465625975  0.29986648384817727  0.5566513959393191  1.0000
  C   C20       1.0  0.4372778897251449  0.700135999379796  0.4433484594961428  1.0000
  C   C21       1.0  0.6786885175623993  0.8460952566713046  0.976581433199847  1.0000
  C   C22       1.0  0.678686628639312  0.15390325486137615  0.0234165545743181  1.0000
  C   C23       1.0  0.3213146536661  0.34609830187583407  0.5234193136712972  1.0000
  C   C24       1.0  0.3213157027939033  0.6539055138344452  0.476581186953119  1.0000
  C   C25       1.0  0.742601059245267  0.915336002917094  0.9363973857448825  1.0000
  C   C26       1.0  0.7426024099723207  0.0846618409421183  0.0636022749735901  1.0000
  C   C27       1.0  0.2574020647249355  0.4153398137097143  0.5636051999843942  1.0000
  C   C28       1.0  0.2573999687159231  0.5846640174591684  0.4363964838695792  1.0000
  C   C29       1.0  0.3926745311315756  0.7685587505677703  0.834782674828638  1.0000
  C   C30       1.0  0.3926777269532025  0.2314463523189261  0.1652160665834899  1.0000
  C   C31       1.0  0.6073221116694043  0.2685588110151614  0.665220788069  1.0000
  C   C32       1.0  0.6073234546773847  0.7314397177752242  0.33477610274662334  1.0000
  C   C33       1.0  0.13831478855078666  0.10991659386753129  0.7086969105748152  1.0000
  C   C34       1.0  0.13831722650238024  0.8900833527870803  0.29130142180998314  1.0000
  C   C35       1.0  0.8616841563080939  0.6099163140559513  0.791301695696724  1.0000
  C   C36       1.0  0.8616849437402224  0.3900834576588892  0.2086978890812077  1.0000
  C   C37       1.0  0.262761456532516  0.08792242156577862  0.6672080608727526  1.0000
  C   C38       1.0  0.26276268111728734  0.9120781472100178  0.33278962091514325  1.0000
  C   C39       1.0  0.7372396971189019  0.5879216207213106  0.8327899344082184  1.0000
  C   C40       1.0  0.737237280333474  0.41207752887164156  0.16720972973171647  1.0000
  C   C41       1.0  0.0237194622315045  0.1678399885705986  0.6023776190550334  1.0000
  C   C42       1.0  0.023720582805935895  0.8321612902356533  0.39762135764676987  1.0000
  C   C43       1.0  0.9762805399850336  0.6678379834444145  0.8976222343810106  1.0000
  C   C44       1.0  0.9762772394066629  0.3321571950295876  0.1023784197826885  1.0000
  C   C45       1.0  0.14269484510870714  0.1492321289058154  0.5562737674724474  1.0000
  C   C46       1.0  0.14269584023220014  0.8507671644713498  0.4437245621189447  1.0000
  C   C47       1.0  0.8573029760267801  0.6492335259781258  0.943724909863853  1.0000
  C   C48       1.0  0.8573008723901056  0.350765594579677  0.0562758201781861  1.0000
  C   C49       1.0  0.2637213254692909  0.10632923160009264  0.5886438576841186  1.0000
  C   C50       1.0  0.2637212735858583  0.8936713369451184  0.41135496596184135  1.0000
  C   C51       1.0  0.7362798156184667  0.606327970197036  0.911355313336564  1.0000
  C   C52       1.0  0.7362776035348375  0.39367052741178554  0.0886460651195335  1.0000
  C   C53       1.0  0.48490604682334754  0.026311121880290503  0.5687230404813519  1.0000
  C   C54       1.0  0.48490479472237524  0.9736893931702326  0.4312733571699852  1.0000
  C   C55       1.0  0.5150962457689802  0.5263099625042287  0.9312737009666421  1.0000
  C   C56       1.0  0.5150940277905249  0.4736905452472016  0.068724391136584  1.0000
  C   C57       1.0  0.5793151601036115  0.999999953134541  0.49999976306673233  1.0000
  C   C58       1.0  0.4206836444496602  0.4999996561550049  8.889693602999997e-07  1.0000
  C   C59       1.0  0.6733354664906487  0.07856476529478582  0.47828169224811745  1.0000
  C   C60       1.0  0.673334028862186  0.9214357041895342  0.5217180126461258  1.0000
  C   C61       1.0  0.32666581946745765  0.5785633057988591  0.0217187692763119  1.0000
  C   C62       1.0  0.32666470338790526  0.42143398643487723  0.9782822991652083  1.0000
  C   C63       1.0  0.8582877491661591  0.11433619944685348  0.3877357942427295  1.0000
  C   C64       1.0  0.8582926958502879  0.8856668341819474  0.6122649351725897  1.0000
  C   C65       1.0  0.1417113185980625  0.6143330486458679  0.1122647319378061  1.0000
  C   C66       1.0  0.1417093514827528  0.3856616794446453  0.8877364544520815  1.0000
  C   C67       1.0  0.8615487459197694  0.2019206712437978  0.41119249069223673  1.0000
  C   C68       1.0  0.8615527128569482  0.7980804049400733  0.5888070941722177  1.0000
  C   C69       1.0  0.13844916517826536  0.7019187685148796  0.0888081937988545  1.0000
  C   C70       1.0  0.13844829735996464  0.29807791702221925  0.9111952796123788  1.0000
  C   C71       1.0  0.9608129690979226  0.25753788224806584  0.375625140042807  1.0000
  C   C72       1.0  0.9608114025547463  0.7424638221498084  0.6243755239903166  1.0000
  C   C73       1.0  0.039190388495704595  0.7575360901854185  0.1243745025050487  1.0000
  C   C74       1.0  0.0391863549486615  0.2424606193543539  0.8756267492676171  1.0000
  C   C75       1.0  0.0511431983524062  0.14687992751132842  0.2992329456342873  1.0000
  C   C76       1.0  0.05113807878734631  0.8531193880126013  0.7007694409882319  1.0000
  C   C77       1.0  0.948855847200704  0.6468800582417559  0.20076706813716066  1.0000
  C   C78       1.0  0.9488530218459913  0.35312034461553315  0.7992370309299162  1.0000
  C   C79       1.0  0.9550072416372187  0.08691620666471783  0.3302403755936894  1.0000
  C   C80       1.0  0.9550109321074628  0.9130874557888193  0.6697580072024323  1.0000
  C   C81       1.0  0.044990747950293994  0.5869132193455683  0.16976010102565908  1.0000
  C   C82       1.0  0.044987805839348  0.41308414101241203  0.8302434319877605  1.0000
  N   N1        1.0  0.0192034793976603  0.14747521524748217  0.6774321544369215  1.0000
  N   N2        1.0  0.019204769627904697  0.852526716869946  0.3225673963802719  1.0000
  N   N3        1.0  0.9807943429351127  0.6474736783744175  0.8225688046606692  1.0000
  N   N4        1.0  0.9807963293557053  0.3525241078820541  0.17743298909491045  1.0000
  N   N5        1.0  0.054346063025079196  0.23135527246552107  0.3210113511822925  1.0000
  N   N6        1.0  0.054343248156214906  0.7686453467195165  0.6789904621632272  1.0000
  N   N7        1.0  0.9456551186558215  0.7313546986877951  0.1789888152771439  1.0000
  N   N8        1.0  0.9456522976960003  0.2686430960674429  0.8210130008891952  1.0000
  O   O1        1.0  0.847305122081643  0.0645301222875005  0.8594672381828656  1.0000
  O   O2        1.0  0.8473024133320733  0.9354690006868938  0.1405323557654867  1.0000
  O   O3        1.0  0.15269933819858036  0.5645329076758969  0.6405358559327041  1.0000
  O   O4        1.0  0.1526964352622215  0.4354702965991849  0.3594681796322448  1.0000
  O   O5        1.0  0.6921248651909978  0.042507218166839805  0.7621414094786729  1.0000
  O   O6        1.0  0.6921219033897117  0.9574919423355086  0.23785714096258906  1.0000
  O   O7        1.0  0.3078785132308965  0.5425088987280163  0.7378605023600286  1.0000
  O   O8        1.0  0.3078747363987162  0.45749165913991163  0.2621394355966729  1.0000
  O   O9        1.0  0.3607858124067391  0.7836529579299311  0.7646579034021102  1.0000
  O   O10       1.0  0.36078665325292286  0.21634758713938143  0.2353397158731525  1.0000
  O   O11       1.0  0.639208626311259  0.2836564426195736  0.7353450155472386  1.0000
  O   O12       1.0  0.6392024728870142  0.716344035115185  0.26465185493766086  1.0000
  O   O13       1.0  0.32758502359217795  0.7099491621068522  0.8739607876235168  1.0000
  O   O14       1.0  0.32758937211675476  0.2900566087415868  0.126039709002832  1.0000
  O   O15       1.0  0.6724105623158678  0.20994715470158812  0.6260454255101279  1.0000
  O   O16       1.0  0.6724161570748278  0.7900480972574827  0.37395313749721026  1.0000
  O   O17       1.0  0.7250267040249412  0.819775151716925  0.04669553462912999  1.0000
  O   O18       1.0  0.7250280074333446  0.1802240008305986  0.9533052797679532  1.0000
  O   O19       1.0  0.27497332041635764  0.319779255571568  0.45330650535863976  1.0000
  O   O20       1.0  0.2749763738926774  0.6802252235641432  0.5466940248188408  1.0000
  O   O21       1.0  0.373770216713865  0.0852488112617351  0.5408628610729025  1.0000
  O   O22       1.0  0.3737689366968482  0.9147504262344485  0.4591376060958082  1.0000
  O   O23       1.0  0.6262309387589013  0.5852496495506686  0.9591374143165651  1.0000
  O   O24       1.0  0.6262277322551313  0.41475017911022855  0.0408646055570401  1.0000
  O   O25       1.0  0.7687266288233304  0.0528653198695892  0.4168687466941563  1.0000
  O   O26       1.0  0.7687294110252979  0.9471357787614423  0.5831297548960492  1.0000
  O   O27       1.0  0.2312724808945035  0.5528627286423031  0.0831310971432728  1.0000
  O   O28       1.0  0.2312714974685264  0.44713197778692404  0.9168688896609609  1.0000
