data_image0
_chemical_formula_structural       Ag2H16C10S6N2
_chemical_formula_sum              "Ag2 H16 C10 S6 N2"
_cell_length_a       5.0919426034831625
_cell_length_b       6.4476577093431295
_cell_length_c       12.942313284433363
_cell_angle_alpha    90.00092531894043
_cell_angle_beta     89.99952960723418
_cell_angle_gamma    108.5688570856583

_space_group_name_H-M_alt    "P 1"
_space_group_IT_number       1

loop_
  _space_group_symop_operation_xyz
  'x, y, z'

loop_
  _atom_site_type_symbol
  _atom_site_label
  _atom_site_symmetry_multiplicity
  _atom_site_fract_x
  _atom_site_fract_y
  _atom_site_fract_z
  _atom_site_occupancy
  Ag  Ag1       1.0  0.8846278532480978  0.008179574707213495  0.7499974167288244  1.0000
  Ag  Ag2       1.0  0.11538943964907132  0.9918142228766982  0.25000085663288024  1.0000
  H   H1        1.0  0.15785442828420326  0.7544380123644032  0.4549284163053926  1.0000
  H   H2        1.0  0.15788598150419378  0.7544486622254992  0.04506505697264631  1.0000
  H   H3        1.0  0.8421313381546367  0.24555027517595823  0.5450760383612732  1.0000
  H   H4        1.0  0.8421278462636365  0.24557265952655172  0.954930898527806  1.0000
  H   H5        1.0  0.988091223868558  0.6195303032527733  0.5691688287725398  1.0000
  H   H6        1.0  0.988133459031303  0.6195528847821379  0.9308259682319361  1.0000
  H   H7        1.0  0.011890292106834012  0.3804676371581692  0.43083253530254956  1.0000
  H   H8        1.0  0.01189361403670832  0.38046708288904096  0.0691723052193751  1.0000
  H   H9        1.0  0.3852091809137406  0.21042924702787505  0.45381321310598827  1.0000
  H   H10       1.0  0.3852521647454807  0.2104547722108379  0.04620138330233911  1.0000
  H   H11       1.0  0.6147488723874728  0.789558477471651  0.5461904689447438  1.0000
  H   H12       1.0  0.6147875423525022  0.7895622057840231  0.9538015260724251  1.0000
  H   H13       1.0  0.35428645199989717  0.3626800664135814  0.5666932362837898  1.0000
  H   H14       1.0  0.35427947043380204  0.3626919841698068  0.9333162577368768  1.0000
  H   H15       1.0  0.6456913964018937  0.6373080602496302  0.43331044573589145  1.0000
  H   H16       1.0  0.6457378508055882  0.637322915767875  0.066683561028853  1.0000
  C   C1        1.0  0.02411897013802645  0.7650225873275359  0.5201140899992468  1.0000
  C   C2        1.0  0.02414953581407538  0.7650480446277473  0.9798781113225916  1.0000
  C   C3        1.0  0.9758690672891672  0.2349560069975354  0.4798849560087035  1.0000
  C   C4        1.0  0.9758589646524667  0.23497479222233153  0.0201255707867602  1.0000
  C   C5        1.0  0.24982316386193298  0.21931486869706873  0.5186952275149963  1.0000
  C   C6        1.0  0.24986623448862838  0.21936334826223464  0.9813072714544051  1.0000
  C   C7        1.0  0.7501458070475876  0.7806389902993518  0.4813177262936464  1.0000
  C   C8        1.0  0.7501678538933518  0.780664878028958  0.018693319996899  1.0000
  C   C9        1.0  0.647909490638952  0.44256439015704524  0.7499949268937628  1.0000
  C   C10       1.0  0.35209365425719596  0.55743885916894  0.24999716525429966  1.0000
  S   S1        1.0  0.2169600054937818  0.9879941077994163  0.6028131808405703  1.0000
  S   S2        1.0  0.21698441048687306  0.9880250446568226  0.8971817313072492  1.0000
  S   S3        1.0  0.7830112648067312  0.011971160113802204  0.39718122918480964  1.0000
  S   S4        1.0  0.7830387035546663  0.011994842604956105  0.10281808746907471  1.0000
  S   S5        1.0  0.49458781808287716  0.6305940191024817  0.7499967124747472  1.0000
  S   S6        1.0  0.5054116592205985  0.36939941654578234  0.2500023335742938  1.0000
  N   N1        1.0  0.74946029045266  0.300759013472053  0.7499934135636226  1.0000
  N   N2        1.0  0.2505401179701678  0.6992474265887622  0.24999249732665874  1.0000
