data_image0
_chemical_formula_structural       Zn4H32C56N8O20
_chemical_formula_sum              "Zn4 H32 C56 N8 O20"
_cell_length_a       13.801592736043485
_cell_length_b       13.928883310654292
_cell_length_c       14.048217984756578
_cell_angle_alpha    110.46754929768629
_cell_angle_beta     90.00004424308467
_cell_angle_gamma    89.99971798580357

_space_group_name_H-M_alt    "P 1"
_space_group_IT_number       1

loop_
  _space_group_symop_operation_xyz
  'x, y, z'

loop_
  _atom_site_type_symbol
  _atom_site_label
  _atom_site_symmetry_multiplicity
  _atom_site_fract_x
  _atom_site_fract_y
  _atom_site_fract_z
  _atom_site_occupancy
  Zn  Zn1       1.0  0.05575980106866752  0.9081938292897931  0.9590976658219574  1.0000
  Zn  Zn2       1.0  0.5557604797401227  0.09180555255571218  0.5409034458055118  1.0000
  Zn  Zn3       1.0  0.9442408076968294  0.0918082886347449  0.040903456179108795  1.0000
  Zn  Zn4       1.0  0.4442394044826871  0.9081919658237894  0.45909750045279896  1.0000
  H   H1        1.0  0.8933556226831599  0.5930324348622308  0.15101424738925576  1.0000
  H   H2        1.0  0.9252327293633729  0.7373419948735245  0.1136675079852195  1.0000
  H   H3        1.0  0.7673897656244011  0.0131440634002047  0.2687419435084593  1.0000
  H   H4        1.0  0.6933682750952457  0.7341713896055283  0.3196126365754921  1.0000
  H   H5        1.0  0.029848035399325602  0.29802989928993634  0.12026458157803431  1.0000
  H   H6        1.0  0.9761673744108705  0.4800239553729284  0.18639255091139256  1.0000
  H   H7        1.0  0.680571316744185  0.37068541658823756  0.15807844631718374  1.0000
  H   H8        1.0  0.7481132187257986  0.1900548588876418  0.0893463106605452  1.0000
  H   H9        1.0  0.393352277652106  0.4069634921463035  0.3489823184528404  1.0000
  H   H10       1.0  0.42523230514001403  0.2626598961750942  0.3863304441303583  1.0000
  H   H11       1.0  0.2673914138834235  0.9868578845141371  0.23126017948039385  1.0000
  H   H12       1.0  0.19336332499511144  0.26582634719670045  0.1803893895072477  1.0000
  H   H13       1.0  0.5298466721885903  0.7019663991651158  0.3797346846210985  1.0000
  H   H14       1.0  0.4761692358644539  0.5199723050807279  0.3136027701230049  1.0000
  H   H15       1.0  0.18057048317616156  0.629316222284359  0.3419220795845134  1.0000
  H   H16       1.0  0.24811226578701454  0.8099464230290605  0.4106562779289432  1.0000
  H   H17       1.0  0.1066493334171881  0.40696508604340653  0.8489845642459244  1.0000
  H   H18       1.0  0.074767879397001  0.26266242113150884  0.886335124967701  1.0000
  H   H19       1.0  0.23260939403260047  0.986858816604709  0.7312630026646544  1.0000
  H   H20       1.0  0.3066352318927271  0.26582842684496905  0.6803898206327403  1.0000
  H   H21       1.0  0.9701525733745984  0.7019683887825894  0.8797337849898882  1.0000
  H   H22       1.0  0.023831785252575302  0.5199751007053592  0.8136046590475985  1.0000
  H   H23       1.0  0.31943146568708153  0.6293151687126012  0.8419221427415733  1.0000
  H   H24       1.0  0.2518866654841291  0.8099480245013098  0.9106557893516154  1.0000
  H   H25       1.0  0.6066418101345477  0.5930363200964948  0.6510236964611167  1.0000
  H   H26       1.0  0.5747661299656812  0.7373414537531815  0.6136718344815719  1.0000
  H   H27       1.0  0.7326128176703506  0.013136570310941002  0.7687382778130356  1.0000
  H   H28       1.0  0.8066300382482867  0.7341688671940289  0.8196150265836691  1.0000
  H   H29       1.0  0.47015321203517163  0.29803035544483686  0.620263860546217  1.0000
  H   H30       1.0  0.5238313729175275  0.4800229152163666  0.6863966651830609  1.0000
  H   H31       1.0  0.8194279519316157  0.37068436048843983  0.6580806440969909  1.0000
  H   H32       1.0  0.7518868938732981  0.1900549252043504  0.589347423762888  1.0000
  C   C1        1.0  0.8124849484208385  0.7232107092987333  0.21643560819811103  1.0000
  C   C2        1.0  0.8683218319547239  0.7758494590142532  0.16741381735920402  1.0000
  C   C3        1.0  0.8511721114028534  0.8793984479032346  0.18481025064074427  1.0000
  C   C4        1.0  0.7798171998351224  0.9320638691095836  0.2541316281774755  1.0000
  C   C5        1.0  0.7238767056444787  0.8790756613599198  0.3024054866961591  1.0000
  C   C6        1.0  0.7387969747919811  0.7746587587107354  0.2831590106961385  1.0000
  C   C7        1.0  0.7788668056270468  0.5455486510285467  0.21419740143070234  1.0000
  C   C8        1.0  0.9531131690016894  0.3178723399749757  0.1280118775422636  1.0000
  C   C9        1.0  0.9218114713622542  0.4192899835272285  0.16423265015228583  1.0000
  C   C10       1.0  0.8221366971285066  0.43958965810163164  0.17460790651826133  1.0000
  C   C11       1.0  0.7581703634431353  0.3564413799114518  0.14899102606250375  1.0000
  C   C12       1.0  0.7949627255972092  0.2573811198738625  0.11210653140769722  1.0000
  C   C13       1.0  0.9083740541118746  0.9305926562287395  0.12501366273657766  1.0000
  C   C14       1.0  0.6450770021833707  0.9319153070994873  0.3754412913871192  1.0000
  C   C15       1.0  0.31248219902363433  0.27679177253784093  0.2835631755361873  1.0000
  C   C16       1.0  0.3683230058465625  0.22415273150869547  0.33258348382597086  1.0000
  C   C17       1.0  0.3511730619224523  0.12060689276816558  0.31519240393227926  1.0000
  C   C18       1.0  0.27981763291101214  0.0679387756732908  0.2458743057479751  1.0000
  C   C19       1.0  0.22387538795184267  0.12092421681045096  0.19759517168419188  1.0000
  C   C20       1.0  0.23879587761243934  0.22534104116701306  0.2168416317938835  1.0000
  C   C21       1.0  0.2788610008416299  0.4544532417600776  0.2858004400981216  1.0000
  C   C22       1.0  0.45311354568542594  0.6821240423028101  0.3719827565057087  1.0000
  C   C23       1.0  0.42181015009032313  0.5807073276223491  0.3357637067840215  1.0000
  C   C24       1.0  0.3221354686006208  0.5604089415397693  0.3253895345831808  1.0000
  C   C25       1.0  0.2581701907782873  0.6435598551551037  0.35100657103463817  1.0000
  C   C26       1.0  0.29496064037025604  0.7426176215149525  0.3878916501748577  1.0000
  C   C27       1.0  0.4083803783476584  0.0694192785108072  0.3749934637685897  1.0000
  C   C28       1.0  0.14507516496670547  0.0680857500252756  0.1245604289265714  1.0000
  C   C29       1.0  0.18751855855311564  0.27679447554714187  0.7835651566034015  1.0000
  C   C30       1.0  0.1316809504627088  0.2241572550655846  0.8325903265444053  1.0000
  C   C31       1.0  0.1488270482427794  0.12060903164861968  0.8151948712755086  1.0000
  C   C32       1.0  0.22018195982064986  0.0679397755113627  0.7458750075464877  1.0000
  C   C33       1.0  0.2761260767884863  0.12092491886202339  0.6975993716034522  1.0000
  C   C34       1.0  0.2612058076389019  0.2253425886666918  0.7168454025338987  1.0000
  C   C35       1.0  0.2211417732295686  0.4544542382629685  0.7857997177958395  1.0000
  C   C36       1.0  0.04688671521846292  0.6821259472529704  0.8719872005661955  1.0000
  C   C37       1.0  0.07819058652007271  0.5807083036950118  0.835766427955015  1.0000
  C   C38       1.0  0.17786680985388165  0.5604116968922382  0.8253901028501218  1.0000
  C   C39       1.0  0.24183024532056416  0.6435615043220722  0.851010362409127  1.0000
  C   C40       1.0  0.2050386077274595  0.7426186999682683  0.8878930796411312  1.0000
  C   C41       1.0  0.0916178599674282  0.0694255533610217  0.8749937666912402  1.0000
  C   C42       1.0  0.35492288203488453  0.06808450766754959  0.6245625889033235  1.0000
  C   C43       1.0  0.687516960644551  0.7232057475365251  0.7164363476422223  1.0000
  C   C44       1.0  0.6316776029276455  0.7758455557173393  0.6674155942820973  1.0000
  C   C45       1.0  0.6488297205111736  0.8793929245307127  0.6848093417361979  1.0000
  C   C46       1.0  0.7201837004210392  0.9320587393164741  0.7541294866701234  1.0000
  C   C47       1.0  0.7761215980615578  0.879070998417255  0.8024085328646535  1.0000
  C   C48       1.0  0.7612011083956605  0.7746557117575747  0.7831583364552585  1.0000
  C   C49       1.0  0.7211323623877564  0.5455473410260296  0.7142022835860828  1.0000
  C   C50       1.0  0.5468863385344491  0.3178742457716197  0.6280156100626044  1.0000
  C   C51       1.0  0.5781890095793756  0.4192894269895006  0.6642348383836775  1.0000
  C   C52       1.0  0.677862241959737  0.43958857769191434  0.6746107001361423  1.0000
  C   C53       1.0  0.7418289688835458  0.3564407276157909  0.6489961526464825  1.0000
  C   C54       1.0  0.7050356210771513  0.25738219495455883  0.612110807037233  1.0000
  C   C55       1.0  0.5916245777430263  0.930582836862868  0.6250097928505766  1.0000
  C   C56       1.0  0.8549225455921318  0.9319125346689245  0.8754407838034622  1.0000
  N   N1        1.0  0.8335798666343522  0.6186456844561264  0.19473518622971397  1.0000
  N   N2        1.0  0.8907720000778172  0.2386498611615195  0.10182464789770759  1.0000
  N   N3        1.0  0.333576614402233  0.38135515661056735  0.30526090747702034  1.0000
  N   N4        1.0  0.39076982983310427  0.7613476103261618  0.3981738767167684  1.0000
  N   N5        1.0  0.16642364034292007  0.3813579686182393  0.8052643340905233  1.0000
  N   N6        1.0  0.10922860869460041  0.7613491923735154  0.8981746966809324  1.0000
  N   N7        1.0  0.6664167488292353  0.6186446590200562  0.6947422612767512  1.0000
  N   N8        1.0  0.6092278807272463  0.23864990890552212  0.6018263580025547  1.0000
  O   O1        1.0  0.6997744634123679  0.561215777751414  0.25853570669533343  1.0000
  O   O2        1.0  0.9761511240033017  0.8776772383146964  0.06994169850362657  1.0000
  O   O3        1.0  0.8836168574326068  0.021021261031101798  0.1324171593748531  1.0000
  O   O4        1.0  0.6590124547115012  0.0246844511125204  0.43170964801606  1.0000
  O   O5        1.0  0.5706415247245787  0.8778241757431997  0.3752137443580635  1.0000
  O   O6        1.0  0.19977159970532915  0.43878576628603827  0.2414598179749419  1.0000
  O   O7        1.0  0.4761536058808461  0.122325147615669  0.4300600235531604  1.0000
  O   O8        1.0  0.38362082628558625  0.9789823759186048  0.3675856392416321  1.0000
  O   O9        1.0  0.15901330700005897  0.9753096360998725  0.06828965921969397  1.0000
  O   O10       1.0  0.0706437660298818  0.1221734412622126  0.1247860113348764  1.0000
  O   O11       1.0  0.3002304926865662  0.43878174738664205  0.7414595472391383  1.0000
  O   O12       1.0  0.0238458619847108  0.12232794485532138  0.9300604893816455  1.0000
  O   O13       1.0  0.11638012855332393  0.9789846892943999  0.867584583440852  1.0000
  O   O14       1.0  0.34098742951726985  0.9753107666470269  0.5682919219108199  1.0000
  O   O15       1.0  0.4293569103903963  0.12217334179361931  0.6247879134411535  1.0000
  O   O16       1.0  0.8002232126328369  0.5612140535732024  0.7585397930773539  1.0000
  O   O17       1.0  0.5238499011068358  0.877674669681312  0.5699417221149261  1.0000
  O   O18       1.0  0.6163812315927545  0.021018205998203098  0.6324177959780783  1.0000
  O   O19       1.0  0.8409938227796163  0.024680224249564692  0.9317043530882003  1.0000
  O   O20       1.0  0.9293597409831096  0.8778148864787383  0.875207468033807  1.0000
