data_image0
_chemical_formula_structural       Al2H16C20O12
_chemical_formula_sum              "Al2 H16 C20 O12"
_cell_length_a       6.683521738256121
_cell_length_b       8.845821396428335
_cell_length_c       15.197610470016883
_cell_angle_alpha    67.60616353363025
_cell_angle_beta     79.36973425841393
_cell_angle_gamma    75.08356180448993

_space_group_name_H-M_alt    "P 1"
_space_group_IT_number       1

loop_
  _space_group_symop_operation_xyz
  'x, y, z'

loop_
  _atom_site_type_symbol
  _atom_site_label
  _atom_site_symmetry_multiplicity
  _atom_site_fract_x
  _atom_site_fract_y
  _atom_site_fract_z
  _atom_site_occupancy
  Al  Al1       1.0  0.5003085632459018  0.4997220201609594  0.5000117455637821  1.0000
  Al  Al2       1.0  0.00029165245607741226  0.4997791237317131  0.5000290071750939  1.0000
  H   H1        1.0  0.2667206646610367  0.3217170941960462  0.6069128779333326  1.0000
  H   H2        1.0  0.7330371639687598  0.6790079756502649  0.39369034499350164  1.0000
  H   H3        1.0  0.19564206454594313  0.4016821099491352  0.07735532046836369  1.0000
  H   H4        1.0  0.8020844535886269  0.6007607924365033  0.9220594122840496  1.0000
  H   H5        1.0  0.37374240588646757  0.3730130335964575  0.791585374111655  1.0000
  H   H6        1.0  0.2742314458429291  0.3810575508211402  0.9530988401504742  1.0000
  H   H7        1.0  0.6277934422000512  0.6246975219447961  0.20880375233951298  1.0000
  H   H8        1.0  0.7275984507436136  0.616024895941862  0.04747565479343761  1.0000
  H   H9        1.0  0.2144936088258191  0.13729608414895725  0.4914671892902405  1.0000
  H   H10       1.0  0.7860603118553442  0.8624107602411755  0.5085767710795892  1.0000
  H   H11       1.0  0.9716503359461797  0.34920350730956773  0.2066118464339652  1.0000
  H   H12       1.0  0.08564017259926969  0.2815033710737325  0.3156835557955304  1.0000
  H   H13       1.0  0.924924676068578  0.4804222045235634  0.27584953072391005  1.0000
  H   H14       1.0  0.07436806424490068  0.5221121726401635  0.7237587821565086  1.0000
  H   H15       1.0  0.9116382177723704  0.7202432497992248  0.6839712951507195  1.0000
  H   H16       1.0  0.025804713742822095  0.6536507475007127  0.7929029709145611  1.0000
  C   C1        1.0  0.6871235547949153  0.470667931002538  0.6672362545267205  1.0000
  C   C2        1.0  0.8433845250626106  0.20842722387138224  0.5122839212274002  1.0000
  C   C3        1.0  0.3133930650606019  0.5288132805757186  0.3328413822253893  1.0000
  C   C4        1.0  0.1572371885958574  0.7911879793332658  0.4877168298446435  1.0000
  C   C5        1.0  0.10273402196202136  0.9607560713507793  0.49247273532581204  1.0000
  C   C6        1.0  0.8979089321537971  0.038910052862505  0.5075092444674993  1.0000
  C   C7        1.0  0.3554445820791372  0.5223617606599333  0.2344645500094273  1.0000
  C   C8        1.0  0.6448332847757853  0.47718718980956265  0.7655948150830267  1.0000
  C   C9        1.0  0.23038815752476438  0.4590443908364606  0.19661701808484366  1.0000
  C   C10       1.0  0.29208372866126103  0.45304190400933214  0.10467155000444  1.0000
  C   C11       1.0  0.7689178348725464  0.5417080502100475  0.803191428079721  1.0000
  C   C12       1.0  0.706897702509849  0.5478742450938016  0.895077421481858  1.0000
  C   C13       1.0  0.4684472806694799  0.42121016749091206  0.8216549446643172  1.0000
  C   C14       1.0  0.4120751716906029  0.42732952951926256  0.9128994941274726  1.0000
  C   C15       1.0  0.5325163363022654  0.5772751526324953  0.1785802453832162  1.0000
  C   C16       1.0  0.5888723976945655  0.5709598739609235  0.08739283845009281  1.0000
  C   C17       1.0  0.4700223362250141  0.5063361866608459  0.04811405064970131  1.0000
  C   C18       1.0  0.529843775913811  0.49330843870212254  0.9518868224104153  1.0000
  C   C19       1.0  0.04265325816903949  0.3897193461742249  0.2511659286433598  1.0000
  C   C20       1.0  0.9556839462008783  0.612312032951607  0.7484486148497496  1.0000
  O   O1        1.0  0.5315343645601944  0.4747503742810579  0.6280332539871836  1.0000
  O   O2        1.0  0.9961529650350299  0.27650535136527316  0.5084972004453121  1.0000
  O   O3        1.0  0.12639558020723737  0.5393551424015756  0.3718430314268275  1.0000
  O   O4        1.0  0.3479130225233006  0.7234855743382552  0.4806368790432529  1.0000
  O   O5        1.0  0.46910985752654005  0.5244401203538016  0.3720605760994715  1.0000
  O   O6        1.0  0.004420739558511835  0.7231456342394227  0.4915190978234775  1.0000
  O   O7        1.0  0.8741824765733599  0.4603159141274985  0.6282870124768748  1.0000
  O   O8        1.0  0.6526913990357811  0.2760389261812648  0.5193842932059738  1.0000
  O   O9        1.0  0.2588715752688771  0.4147109286374615  0.546808843187641  1.0000
  O   O10       1.0  0.7416504897897553  0.5848962941669099  0.45328876116748523  1.0000
  O   O11       1.0  0.2695685685429225  0.027590133169987024  0.48268706078755486  1.0000
  O   O12       1.0  0.7309899758664071  0.9721470062861925  0.5173043435609728  1.0000
