data_image0
_chemical_formula_structural       Hf6H34C90O32
_chemical_formula_sum              "Hf6 H34 C90 O32"
_cell_length_a       17.402392681975982
_cell_length_b       17.407771556440736
_cell_length_c       17.41324988367671
_cell_angle_alpha    93.60212357363322
_cell_angle_beta     93.54543564195676
_cell_angle_gamma    93.62568695337194

_space_group_name_H-M_alt    "P 1"
_space_group_IT_number       1

loop_
  _space_group_symop_operation_xyz
  'x, y, z'

loop_
  _atom_site_type_symbol
  _atom_site_label
  _atom_site_symmetry_multiplicity
  _atom_site_fract_x
  _atom_site_fract_y
  _atom_site_fract_z
  _atom_site_occupancy
  Hf  Hf1       1.0  0.0178471933387669  0.1953352635724031  0.14377545372854428  1.0000
  Hf  Hf2       1.0  0.1314390404630572  0.2358496863166266  0.9898761882551526  1.0000
  Hf  Hf3       1.0  0.9809486935469206  0.004695854156309999  0.0663520896402972  1.0000
  Hf  Hf4       1.0  0.1717360009463391  0.08177384812810123  0.10295525662773028  1.0000
  Hf  Hf5       1.0  0.9406314742122746  0.15886014489535688  0.9531923029188576  1.0000
  Hf  Hf6       1.0  0.09429796697587989  0.04527487097898591  0.9124088372433263  1.0000
  H   H1        1.0  0.7112289885940157  0.0793945669379141  0.3887919867161499  1.0000
  H   H2        1.0  0.7406408891626484  0.08570597507632272  0.6368844575453492  1.0000
  H   H3        1.0  0.933429361087839  0.04291984856791233  0.49971511621394177  1.0000
  H   H4        1.0  0.17884303825567827  0.1871942543390048  0.5604346325464036  1.0000
  H   H5        1.0  0.3662084950004568  0.13983655261824174  0.4173491128785684  1.0000
  H   H6        1.0  0.4041021935663166  0.15227111920487604  0.6650708056256818  1.0000
  H   H7        1.0  0.4167395244528008  0.7748817064350746  0.9867473470141802  1.0000
  H   H8        1.0  0.6649708634394286  0.8051660909948666  0.9930025950094858  1.0000
  H   H9        1.0  0.5272864954908768  0.9974270155997187  0.9503590380410145  1.0000
  H   H10       1.0  0.5889446194085153  0.24345598041525554  0.09553640584203289  1.0000
  H   H11       1.0  0.44567780729266804  0.43024991226104703  0.0473316811965887  1.0000
  H   H12       1.0  0.6935601446266944  0.4687251160233217  0.06005455162139838  1.0000
  H   H13       1.0  0.0194783910483523  0.4817513232221557  0.6827928616305385  1.0000
  H   H14       1.0  0.0301105941172395  0.729957166277977  0.7149856319160008  1.0000
  H   H15       1.0  0.9798564346075764  0.5914094407776461  0.9047756561745571  1.0000
  H   H16       1.0  0.09777222112631277  0.7585281863404916  0.3773932547694655  1.0000
  H   H17       1.0  0.0812851814294646  0.5105785569998318  0.3403785263405226  1.0000
  H   H18       1.0  0.12482544309375496  0.6520677870188933  0.15097598041797508  1.0000
  H   H19       1.0  0.17681102712970187  0.2403838604539317  0.14852133641277726  1.0000
  H   H20       1.0  0.8757803355714272  0.11797007404044992  0.0917787546349089  1.0000
  H   H21       1.0  0.1194594527344037  0.9399181650908871  0.025323410449573196  1.0000
  H   H22       1.0  0.05374250162410019  0.1840029060366675  0.8479080787209199  1.0000
  H   H23       1.0  0.9737320223109764  0.7110627256474515  0.5924479378381093  1.0000
  H   H24       1.0  0.11558753822227168  0.5170758710688615  0.6016543820600191  1.0000
  H   H25       1.0  0.1422529686521514  0.5288580107330887  0.4652981467564317  1.0000
  H   H26       1.0  0.0005918175166356957  0.7229676393411422  0.45630846248462825  1.0000
  H   H27       1.0  0.6596871606637577  0.5840703962088583  0.1129480403365335  1.0000
  H   H28       1.0  0.4604186609018726  0.5192541233768609  0.9573496443398001  1.0000
  H   H29       1.0  0.44864177260984656  0.6556966655680513  0.9315858638275074  1.0000
  H   H30       1.0  0.6480779958185822  0.7203728690194212  0.0869166960484264  1.0000
  H   H31       1.0  0.5918097285710857  0.024247455211011005  0.4203697605927559  1.0000
  H   H32       1.0  0.6559642069653863  0.1795706038475515  0.619963321133511  1.0000
  H   H33       1.0  0.5195733762346818  0.20545640585734756  0.6314406916022577  1.0000
  H   H34       1.0  0.4552784704989179  0.04988735139085071  0.4320240880246046  1.0000
  C   C1        1.0  0.8252414469955411  0.059133211602208705  0.43606692056116697  1.0000
  C   C2        1.0  0.7469869392415305  0.07357060534518922  0.4414916590948437  1.0000
  C   C3        1.0  0.7157143080153076  0.0836004719750534  0.5134479596603254  1.0000
  C   C4        1.0  0.7637279024972513  0.07883938538038389  0.5802599101180232  1.0000
  C   C5        1.0  0.8419646059957555  0.06382170540610589  0.5758874515873343  1.0000
  C   C6        1.0  0.8727604605277434  0.05360338856342391  0.5035383157998509  1.0000
  C   C7        1.0  0.28891827338657083  0.17194994469718955  0.6210882367395102  1.0000
  C   C8        1.0  0.23915031451649327  0.17590004792268132  0.5548749250210037  1.0000
  C   C9        1.0  0.2673360934044169  0.163648559598478  0.4815122584402757  1.0000
  C   C10       1.0  0.3452186136157777  0.14813392248124296  0.47479032956845657  1.0000
  C   C11       1.0  0.39546623740732656  0.1450413632104315  0.5403096118551787  1.0000
  C   C12       1.0  0.3666427023704201  0.15686774907762674  0.6132580279045357  1.0000
  C   C13       1.0  0.46378972560569304  0.8890510844872992  0.9665710421160653  1.0000
  C   C14       1.0  0.4694073659247308  0.8108333320407156  0.9809470210380057  1.0000
  C   C15       1.0  0.5414922016417306  0.7798191082551539  0.9909565990589826  1.0000
  C   C16       1.0  0.608248843368834  0.8280491810244898  0.9861804568938694  1.0000
  C   C17       1.0  0.6036813422744061  0.9062428997574159  0.9711830439938395  1.0000
  C   C18       1.0  0.5312222456436827  0.9367934948831972  0.9610533549040667  1.0000
  C   C19       1.0  0.6495802410232726  0.3535359351488196  0.079934280470944  1.0000
  C   C20       1.0  0.5833398087862065  0.3036680318391731  0.08398072635262817  1.0000
  C   C21       1.0  0.5099086117220963  0.3316141039757455  0.0715367771386468  1.0000
  C   C22       1.0  0.5031581330706771  0.40939940903837174  0.05576036477381759  1.0000
  C   C23       1.0  0.5687018299248763  0.45977187584513507  0.052654409916279094  1.0000
  C   C24       1.0  0.6417255224660962  0.4311745808028605  0.06465815934058129  1.0000
  C   C25       1.0  0.9995439369636187  0.5284278607764038  0.7971454468520632  1.0000
  C   C26       1.0  0.015622387725578293  0.534351992902714  0.7193857279378973  1.0000
  C   C27       1.0  0.025788602488589208  0.6065403256870212  0.6886138375918022  1.0000
  C   C28       1.0  0.01991775354394319  0.673097553140863  0.7367727974976075  1.0000
  C   C29       1.0  0.0028116533384689953  0.6681821939240464  0.8143743848615728  1.0000
  C   C30       1.0  0.9923067934226707  0.5956117028330397  0.8446111202694482  1.0000
  C   C31       1.0  0.11175936377097877  0.7136255652822356  0.2610868380878343  1.0000
  C   C32       1.0  0.0991297092183601  0.7064566120012826  0.33943966674222986  1.0000
  C   C33       1.0  0.088763748396147  0.6337414406962409  0.3690177322112973  1.0000
  C   C34       1.0  0.09155354852295258  0.5677441145530793  0.31928169533917833  1.0000
  C   C35       1.0  0.1050716151122728  0.5738320910808312  0.2408555908274508  1.0000
  C   C36       1.0  0.1153796107784686  0.6470006483367926  0.2117412367542713  1.0000
  C   C37       1.0  0.9200369533754084  0.0686855164501878  0.22923311391772216  1.0000
  C   C38       1.0  0.09579759727649421  0.36353912667412663  0.12501384683440617  1.0000
  C   C39       1.0  0.152400943550667  0.15871495089060522  0.2713466496920346  1.0000
  C   C40       1.0  0.8588479689067582  0.2634136301587873  0.07738224226324769  1.0000
  C   C41       1.0  0.19897956270656175  0.16929582313519378  0.8304933860881646  1.0000
  C   C42       1.0  0.008518563327321283  0.8793559079478898  0.9273075186123446  1.0000
  C   C43       1.0  0.299733026933417  0.2162918546649024  0.0666387464953715  1.0000
  C   C44       1.0  0.005503764087649192  0.321643039453626  0.8921302579192413  1.0000
  C   C45       1.0  0.8150548886580607  0.0197379667184379  0.9805644193363249  1.0000
  C   C46       1.0  0.10535795590040208  0.9225596842857868  0.17043755132645086  1.0000
  C   C47       1.0  0.2570772833406777  0.9839986406407278  0.9762906660541049  1.0000
  C   C48       1.0  0.9551103678130772  0.07307960294978243  0.7872126510605  1.0000
  C   C49       1.0  0.11750412222639277  0.7879901410575273  0.2320415976866457  1.0000
  C   C50       1.0  0.11781837003238849  0.8519248870139507  0.2072904533999278  1.0000
  C   C51       1.0  0.10330815254665988  0.4417338122914032  0.1581068349367172  1.0000
  C   C52       1.0  0.1055837376797513  0.5047232079111552  0.19320771242365  1.0000
  C   C53       1.0  0.9991372330396899  0.8015392862267916  0.8935794632381402  1.0000
  C   C54       1.0  0.9990373197696769  0.7379395283476882  0.8601131396940288  1.0000
  C   C55       1.0  0.9926950617478099  0.3923523650801499  0.8556684015410667  1.0000
  C   C56       1.0  0.9934941492172482  0.4549750098648602  0.8281018508323823  1.0000
  C   C57       1.0  0.011755065645296294  0.6716695863237732  0.565115634671926  1.0000
  C   C58       1.0  0.04251315531642769  0.6131178562438181  0.6071004644563729  1.0000
  C   C59       1.0  0.0892001051484215  0.5616237128842059  0.5696322559165452  1.0000
  C   C60       1.0  0.10438365010285372  0.5683506170298998  0.492763581913252  1.0000
  C   C61       1.0  0.07348697719501018  0.6268488772705041  0.4508254233399924  1.0000
  C   C62       1.0  0.026974103286498494  0.6784441471078752  0.48834846884349753  1.0000
  C   C63       1.0  0.724220489292783  0.32525371091605854  0.08724038589761558  1.0000
  C   C64       1.0  0.7882751762666658  0.30068624178586134  0.08921510151974839  1.0000
  C   C65       1.0  0.44106469353629046  0.2838625127604785  0.07371360905707289  1.0000
  C   C66       1.0  0.37810606306393874  0.24884540536321967  0.07279807139033069  1.0000
  C   C67       1.0  0.6736578221756985  0.9520643634542623  0.9686404497623116  1.0000
  C   C68       1.0  0.7373344495926515  0.9856975635745114  0.9702097821684817  1.0000
  C   C69       1.0  0.32778576037632223  0.9478064996809082  0.9625879500202004  1.0000
  C   C70       1.0  0.3904313627723752  0.9203779159424527  0.9620666210714361  1.0000
  C   C71       1.0  0.6140228319012664  0.599373324748143  0.07204728679368338  1.0000
  C   C72       1.0  0.5611696157307763  0.5414291999163012  0.036904565553491885  1.0000
  C   C73       1.0  0.5011436045092523  0.5632816050530636  0.986845181288885  1.0000
  C   C74       1.0  0.4944498829784081  0.6402998686469701  0.9722836436916681  1.0000
  C   C75       1.0  0.5476040621052648  0.6981095221568976  0.0071009506987991  1.0000
  C   C76       1.0  0.6074035906158173  0.6763151065056904  0.057428082915819786  1.0000
  C   C77       1.0  0.2605310237419118  0.1791676381974412  0.6957006283996279  1.0000
  C   C78       1.0  0.23606752785363475  0.18110978073857345  0.7597985515837349  1.0000
  C   C79       1.0  0.18489484031644568  0.1648367558280412  0.3496954657108517  1.0000
  C   C80       1.0  0.21974378949786907  0.1657810722086879  0.41265734689991257  1.0000
  C   C81       1.0  0.9210116977083159  0.06274460767924239  0.7095829223613279  1.0000
  C   C82       1.0  0.8875752903757999  0.06126896183572233  0.6459009691013264  1.0000
  C   C83       1.0  0.8567029031175294  0.05455989909074079  0.36276294506918555  1.0000
  C   C84       1.0  0.8840353281667958  0.05502411013639371  0.30006619184539557  1.0000
  C   C85       1.0  0.5762838958797688  0.0649489812345294  0.4661631276093699  1.0000
  C   C86       1.0  0.6339698701650462  0.09976051463424081  0.5194207542130937  1.0000
  C   C87       1.0  0.6120057474534377  0.15004968109046501  0.5792177298228508  1.0000
  C   C88       1.0  0.5350164861666257  0.16461173862904843  0.5857470413844794  1.0000
  C   C89       1.0  0.47719146860057277  0.1294335280882848  0.5328278119208889  1.0000
  C   C90       1.0  0.49921037696039855  0.07945073302158082  0.47277717911138945  1.0000
  O   O1        1.0  0.9219667251243137  0.013265494963960095  0.1782401755489573  1.0000
  O   O2        1.0  0.1295727079139652  0.3466877240739664  0.06392205303314569  1.0000
  O   O3        1.0  0.09156008214944221  0.1928586208986971  0.2545613101750916  1.0000
  O   O4        1.0  0.9084623546104993  0.2598142073159694  0.13362519134747688  1.0000
  O   O5        1.0  0.86290354002454  0.23480109537440091  0.0082782350849584  1.0000
  O   O6        1.0  0.19054806913017328  0.11865652244753022  0.22442705046777428  1.0000
  O   O7        1.0  0.0550910271889791  0.3168142573167004  0.16281135925235188  1.0000
  O   O8        1.0  0.9467992224237918  0.13840164864569723  0.22501272435455627  1.0000
  O   O9        1.0  0.023443327284908798  0.2157632775533571  0.02934475111659649  1.0000
  O   O10       1.0  0.057162939471297095  0.0873550415028106  0.12341373931137409  1.0000
  O   O11       1.0  0.14231258271252048  0.2061475012300278  0.1141360461243721  1.0000
  O   O12       1.0  0.927091215609842  0.11901554411310401  0.07300563540160707  1.0000
  O   O13       1.0  0.19573357209547027  0.2255673590258738  0.8801974058845018  1.0000
  O   O14       1.0  0.9766458860884198  0.8960021634546181  0.9896222860863017  1.0000
  O   O15       1.0  0.2827685936364687  0.155450372503033  0.10074290805616928  1.0000
  O   O16       1.0  0.9498133068830298  0.2709469178275938  0.8941431467049695  1.0000
  O   O17       1.0  0.8318144775356515  0.08222361608222431  0.9490318597405859  1.0000
  O   O18       1.0  0.1615175559091426  0.9724532296481598  0.16704362706020956  1.0000
  O   O19       1.0  0.20606503670187235  0.9860264619583888  0.9209663189977844  1.0000
  O   O20       1.0  0.017487043140022297  0.04132353916973131  0.803799697409552  1.0000
  O   O21       1.0  0.2529434045092316  0.010814969729466405  0.045974744434651896  1.0000
  O   O22       1.0  0.9185627824850895  0.11594844408985241  0.8330524712688002  1.0000
  O   O23       1.0  0.2528890134634024  0.25444914695637516  0.0265582908468502  1.0000
  O   O24       1.0  0.036160446212164694  0.9264846061404556  0.14204507344722123  1.0000
  O   O25       1.0  0.8607811932670798  0.9829706827194262  0.023262779663056697  1.0000
  O   O26       1.0  0.0750962323888444  0.3172955631154721  0.9192137176608596  1.0000
  O   O27       1.0  0.17019364042038626  0.10022457385412048  0.834494951926871  1.0000
  O   O28       1.0  0.05092975950441309  0.9253458861342383  0.8904276574779644  1.0000
  O   O29       1.0  0.992836641481489  0.057271342696438424  0.96497670108981  1.0000
  O   O30       1.0  0.15155827729960686  0.12128926208269059  0.9951319800255615  1.0000
  O   O31       1.0  0.1007528972935674  0.9912214771265796  0.0265190239947799  1.0000
  O   O32       1.0  0.054836263011523584  0.16524216308427242  0.8991745621807823  1.0000
