data_image0
_chemical_formula_structural       Zn6H138C192N30O36
_chemical_formula_sum              "Zn6 H138 C192 N30 O36"
_cell_length_a       16.547482023220027
_cell_length_b       16.54750672362103
_cell_length_c       25.5939018570076
_cell_angle_alpha    89.9999246638086
_cell_angle_beta     90.00007843715822
_cell_angle_gamma    119.99989510205974

_space_group_name_H-M_alt    "P 1"
_space_group_IT_number       1

loop_
  _space_group_symop_operation_xyz
  'x, y, z'

loop_
  _atom_site_type_symbol
  _atom_site_label
  _atom_site_symmetry_multiplicity
  _atom_site_fract_x
  _atom_site_fract_y
  _atom_site_fract_z
  _atom_site_occupancy
  Zn  Zn1       1.0  0.28592960135509327  0.571880657448844  1.5121574492099998e-05  1.0000
  Zn  Zn2       1.0  0.42811973400854014  0.7140485578475266  0.33334843348744403  1.0000
  Zn  Zn3       1.0  0.2859522029311421  0.7140713437672089  0.6666820699474126  1.0000
  Zn  Zn4       1.0  0.7140711147923398  0.42811976131964263  1.4983096846799996e-05  1.0000
  Zn  Zn5       1.0  0.5718798146472822  0.2859518695664817  0.33334789876106186  1.0000
  Zn  Zn6       1.0  0.7140499911388717  0.28593011395195583  0.6666824434698952  1.0000
  H   H1        1.0  0.32922820384062856  0.6738871319270885  0.16658485386390956  1.0000
  H   H2        1.0  0.3261150718434607  0.6553414779789719  0.4999177788160906  1.0000
  H   H3        1.0  0.3446616717197133  0.6707697860223973  0.8332526525257862  1.0000
  H   H4        1.0  0.6707724050330628  0.32611341899824003  0.16658398235512095  1.0000
  H   H5        1.0  0.6738884378589276  0.3446610564762266  0.4999188478533795  1.0000
  H   H6        1.0  0.6553383467021446  0.32922903766810657  0.8332529367479109  1.0000
  H   H7        1.0  0.17345485661057594  0.7776909705986699  0.08373180070633877  1.0000
  H   H8        1.0  0.22230725853424368  0.3957645645588599  0.4170621688037599  1.0000
  H   H9        1.0  0.604238209691573  0.8265462561202027  0.7504021067234206  1.0000
  H   H10       1.0  0.8265439126032845  0.22230657304989185  0.08373154739744139  1.0000
  H   H11       1.0  0.7776924115595848  0.6042357539232696  0.41706115538777766  1.0000
  H   H12       1.0  0.3957620374491243  0.17345232647522124  0.7504015108974186  1.0000
  H   H13       1.0  0.7829806979583867  0.1787159579801526  0.250300912338794  1.0000
  H   H14       1.0  0.3957345975662322  0.21701614538167047  0.9169720302312925  1.0000
  H   H15       1.0  0.8212922379276507  0.6042703365375672  0.583630149871176  1.0000
  H   H16       1.0  0.21701856830216568  0.8212823221451017  0.2503011673126991  1.0000
  H   H17       1.0  0.6042655423021374  0.7829825693693309  0.9169722725276086  1.0000
  H   H18       1.0  0.1787106019088612  0.3957340889255719  0.5836311244316832  1.0000
  H   H19       1.0  0.36843455030222577  0.4686369974516822  0.9413452948067798  1.0000
  H   H20       1.0  0.5313599175599251  0.8997977644420772  0.2746785652534598  1.0000
  H   H21       1.0  0.10020118248858272  0.6315608688970897  0.6080133594241345  1.0000
  H   H22       1.0  0.6315618120175871  0.5313606639236496  0.9413442132333996  1.0000
  H   H23       1.0  0.46863884817616264  0.10020343712480441  0.2746784876308935  1.0000
  H   H24       1.0  0.8997988580983078  0.3684378989804743  0.608013828220244  1.0000
  H   H25       1.0  0.46854561292748553  0.3685672863730147  0.39207704163003126  1.0000
  H   H26       1.0  0.9000203828018631  0.5314550469285779  0.0587454182812195  1.0000
  H   H27       1.0  0.6314379123208698  0.09998006314936703  0.7254121008532621  1.0000
  H   H28       1.0  0.5314540209229152  0.6314330646200617  0.3920773482760467  1.0000
  H   H29       1.0  0.09997895448674399  0.4685431335528064  0.058745869792538485  1.0000
  H   H30       1.0  0.36856817984840273  0.9000223398095174  0.7254108609409611  1.0000
  H   H31       1.0  0.42569327445879424  0.35911208356110086  0.9644961942861909  1.0000
  H   H32       1.0  0.6408855444160866  0.0665820472144319  0.2978290152920024  1.0000
  H   H33       1.0  0.9334179151724767  0.5743021982081586  0.6311645826298076  1.0000
  H   H34       1.0  0.5743037257655033  0.6408861520086335  0.9644957496475967  1.0000
  H   H35       1.0  0.35911516135538335  0.9334196350582361  0.2978293013323565  1.0000
  H   H36       1.0  0.06658241441324728  0.4256974927684213  0.6311650409078737  1.0000
  H   H37       1.0  0.3591138422698563  0.4257154452676987  0.3688663613613343  1.0000
  H   H38       1.0  0.06660066413284221  0.6408869489646063  0.03553478358368519  1.0000
  H   H39       1.0  0.5742864113691866  0.9333987933115324  0.7022022849361207  1.0000
  H   H40       1.0  0.6408855024958486  0.5742839827033848  0.36886720507548887  1.0000
  H   H41       1.0  0.9333982905796318  0.35911161062436053  0.0355348995840785  1.0000
  H   H42       1.0  0.42571678745272823  0.06660287360337237  0.7022010255418181  1.0000
  H   H43       1.0  0.36190273239191134  0.38342823980040214  0.1256502413144247  1.0000
  H   H44       1.0  0.6165733362554918  0.9784723657844836  0.4589841916485965  1.0000
  H   H45       1.0  0.021527929949449822  0.6380963126980532  0.7923173806363051  1.0000
  H   H46       1.0  0.6380979105919738  0.6165710622612863  0.1256502650308349  1.0000
  H   H47       1.0  0.3834293478212985  0.021527362263285037  0.4589833237112301  1.0000
  H   H48       1.0  0.9784750506925306  0.36190558585835925  0.7923179251727176  1.0000
  H   H49       1.0  0.38346428817666134  0.3619005963918553  0.20772215410191555  1.0000
  H   H50       1.0  0.9784362113794459  0.6165344577472212  0.8743897105343095  1.0000
  H   H51       1.0  0.6380930852527842  0.021561986605384227  0.5410565034020677  1.0000
  H   H52       1.0  0.6165380998440215  0.6381030160912432  0.20772292165857204  1.0000
  H   H53       1.0  0.021563935150013067  0.3834678698968261  0.8743893832534084  1.0000
  H   H54       1.0  0.36190632231581105  0.9784398215629438  0.5410559720897722  1.0000
  H   H55       1.0  0.3117101691296398  0.4933008018762948  0.0965092460690116  1.0000
  H   H56       1.0  0.5067011712679206  0.8184068826179712  0.4298421127774858  1.0000
  H   H57       1.0  0.18159303718583436  0.6882876396347868  0.76317689532528  1.0000
  H   H58       1.0  0.6882898272605757  0.5066979337853325  0.09650901756329228  1.0000
  H   H59       1.0  0.49330016840331586  0.18159297683947528  0.4298423784326316  1.0000
  H   H60       1.0  0.8184099011840547  0.31171429684038543  0.7631777306430931  1.0000
  H   H61       1.0  0.4935525695355949  0.3119641657034434  0.23692097676557464  1.0000
  H   H62       1.0  0.8184099898793917  0.5064464245061161  0.9035880476861491  1.0000
  H   H63       1.0  0.6880345529273202  0.18158776410876945  0.5702548189678608  1.0000
  H   H64       1.0  0.506446839239132  0.6880363871861873  0.23692082210302345  1.0000
  H   H65       1.0  0.18158959468645736  0.49355526082332096  0.903588550645871  1.0000
  H   H66       1.0  0.31196619912901014  0.8184139125761618  0.5702539889147004  1.0000
  H   H67       1.0  0.5244659015193137  0.21612406051558244  0.03583172395623539  1.0000
  H   H68       1.0  0.7838748161927144  0.3083390947598942  0.3691623744208882  1.0000
  H   H69       1.0  0.6916610036693032  0.47553296223390645  0.7024986968767379  1.0000
  H   H70       1.0  0.4755345176795913  0.7838766605511296  0.0358318506813831  1.0000
  H   H71       1.0  0.2161248779079871  0.691659983921447  0.3691631298960019  1.0000
  H   H72       1.0  0.30834324230090004  0.5244676575802529  0.7024992865083773  1.0000
  H   H73       1.0  0.21634341704756127  0.5247992010921366  0.29730897548993335  1.0000
  H   H74       1.0  0.3084549285363709  0.7836548732859258  0.9639774780369378  1.0000
  H   H75       1.0  0.47520142233015866  0.6915434871253082  0.630643891817499  1.0000
  H   H76       1.0  0.7836554750087503  0.47520066889720175  0.2973100310616771  1.0000
  H   H77       1.0  0.6915458838407462  0.21634438461888555  0.9639782815699788  1.0000
  H   H78       1.0  0.5247995108210405  0.30845680884833376  0.6306448587751914  1.0000
  H   H79       1.0  0.5613273302762495  0.09015707914279164  0.04372976924102549  1.0000
  H   H80       1.0  0.9098415777740174  0.471169622624956  0.37705955481828096  1.0000
  H   H81       1.0  0.5288315283829803  0.4386694938169882  0.7103946615168653  1.0000
  H   H82       1.0  0.4386728449646925  0.9098426784225069  0.043729364911761985  1.0000
  H   H83       1.0  0.09015838319687217  0.5288303990051517  0.3770595554228392  1.0000
  H   H84       1.0  0.47117196279656787  0.5613282560496489  0.7103945834852182  1.0000
  H   H85       1.0  0.09025112856510738  0.5615207574826401  0.28944453023632377  1.0000
  H   H86       1.0  0.4712691220594255  0.9097480641355135  0.9561123420570607  1.0000
  H   H87       1.0  0.43847880236230463  0.5287294530477241  0.6227756643467685  1.0000
  H   H88       1.0  0.909747241252987  0.43847721629153824  0.28944533887330687  1.0000
  H   H89       1.0  0.5287305387000886  0.09025355284695985  0.9561127172334948  1.0000
  H   H90       1.0  0.5615210726567669  0.47127189987934054  0.622774962286776  1.0000
  H   H91       1.0  0.41736136935902124  0.006173404071581984  0.19098044226551986  1.0000
  H   H92       1.0  0.9938284011499122  0.41118541253763435  0.5243103192560808  1.0000
  H   H93       1.0  0.58881159065632  0.5826376958809546  0.8576457189722078  1.0000
  H   H94       1.0  0.5826387640754974  0.9938252086590679  0.19098126684148295  1.0000
  H   H95       1.0  0.006169356146443741  0.5888120002039301  0.5243098030666289  1.0000
  H   H96       1.0  0.4111892544530208  0.4173590961300633  0.8576457102647764  1.0000
  H   H97       1.0  0.005812755732129976  0.4167381623795379  0.14246344840981345  1.0000
  H   H98       1.0  0.4109232917409716  0.994185494131074  0.8091311732009528  1.0000
  H   H99       1.0  0.5832614519906799  0.5890785560149181  0.4757949879557656  1.0000
  H   H100      1.0  0.994184796548524  0.5832593983339225  0.1424634274039391  1.0000
  H   H101      1.0  0.5890726918025282  0.005814943545260748  0.8091305020746943  1.0000
  H   H102      1.0  0.4167378609071621  0.410923337074621  0.4757945989719658  1.0000
  H   H103      1.0  0.3800424292423943  0.1353596343969628  0.18353054903265326  1.0000
  H   H104      1.0  0.864639733729021  0.2446814984026843  0.5168620740540745  1.0000
  H   H105      1.0  0.7553170885511097  0.6199574876577572  0.8501967372515578  1.0000
  H   H106      1.0  0.6199570890649614  0.864638383707643  0.18353190781765244  1.0000
  H   H107      1.0  0.13535731495157693  0.7553166218398744  0.5168619217559182  1.0000
  H   H108      1.0  0.24468416309135685  0.3800425226240094  0.8501970025998487  1.0000
  H   H109      1.0  0.13468790168121095  0.37927272991394995  0.1499149062190881  1.0000
  H   H110      1.0  0.24458242479916253  0.865312290555984  0.8165833197914267  1.0000
  H   H111      1.0  0.6207281424265221  0.7554174329238988  0.4832498345341348  1.0000
  H   H112      1.0  0.8653102657294343  0.6207254254230108  0.14991512903208098  1.0000
  H   H113      1.0  0.7554153140835781  0.13468639289967402  0.8165834685135209  1.0000
  H   H114      1.0  0.3792698791544992  0.24458454395385595  0.4832503354737554  1.0000
  H   H115      1.0  0.4615489135876204  0.2858321997569462  0.029442644245413898  1.0000
  H   H116      1.0  0.7141692773095657  0.17571350907886815  0.3627745501419211  1.0000
  H   H117      1.0  0.8242844698094205  0.538450676558064  0.6961104886951757  1.0000
  H   H118      1.0  0.5384533093044511  0.7141703425829747  0.029442886550882  1.0000
  H   H119      1.0  0.28583040752438676  0.8242855779148927  0.36277486392397407  1.0000
  H   H120      1.0  0.17571751153534637  0.4615497896434349  0.6961102322837931  1.0000
  H   H121      1.0  0.2853742369516824  0.46110230937153324  0.3039227182546539  1.0000
  H   H122      1.0  0.17572647349644657  0.7146261198658692  0.9705915238242111  1.0000
  H   H123      1.0  0.5388972338384833  0.8242721660085409  0.6372579391365464  1.0000
  H   H124      1.0  0.7146249201134796  0.538898505236226  0.30392365792133796  1.0000
  H   H125      1.0  0.8242739060779343  0.2853747804668389  0.9705912146884117  1.0000
  H   H126      1.0  0.46110240677361275  0.1757282148497198  0.6372562274898355  1.0000
  H   H127      1.0  0.1425109975366966  0.8907484355036956  0.19836373252282155  1.0000
  H   H128      1.0  0.10925952576145197  0.2517696143723854  0.5316945643709374  1.0000
  H   H129      1.0  0.7482422559298387  0.8574894423113123  0.8650333701432655  1.0000
  H   H130      1.0  0.8574881933815137  0.10924991220486652  0.19836360325977148  1.0000
  H   H131      1.0  0.8907411703577424  0.7482321124890702  0.5316935289355696  1.0000
  H   H132      1.0  0.25175901723480376  0.14251054866471694  0.865033063002187  1.0000
  H   H133      1.0  0.8740019790523095  0.12604987336120407  0.1330617198552204  1.0000
  H   H134      1.0  0.2520457096487406  0.1259954633671683  0.7997315772900464  1.0000
  H   H135      1.0  0.8739446185003247  0.7479493389743652  0.46639437299015185  1.0000
  H   H136      1.0  0.12599711713648531  0.8739485593211995  0.1330618487222637  1.0000
  H   H137      1.0  0.7479539112405078  0.8740037528471234  0.7997318700861129  1.0000
  H   H138      1.0  0.12605658721442842  0.2520530771767043  0.4663962046004143  1.0000
  C   C1        1.0  0.2596708227393806  0.680857371764759  0.0697015851928526  1.0000
  C   C2        1.0  0.3191393244514701  0.5788123647729365  0.4030334015140155  1.0000
  C   C3        1.0  0.4211886830611038  0.7403299202606988  0.7363709851723925  1.0000
  C   C4        1.0  0.7403280880457931  0.3191424454939451  0.06970156310099898  1.0000
  C   C5        1.0  0.6808597209721511  0.42118736764342657  0.4030336300491938  1.0000
  C   C6        1.0  0.5788111013296131  0.2596703316257917  0.7363712604842831  1.0000
  C   C7        1.0  0.680231597674805  0.25894177445434263  0.26360165692245363  1.0000
  C   C8        1.0  0.5787131753705455  0.31976871180452093  0.9302693761571416  1.0000
  C   C9        1.0  0.741064508820543  0.4212950427666159  0.5969360961002792  1.0000
  C   C10       1.0  0.31976768788043614  0.7410564883632561  0.2636020719736294  1.0000
  C   C11       1.0  0.4212894010700199  0.6802324029220018  0.9302707150753161  1.0000
  C   C12       1.0  0.25893990786372  0.5787102251181011  0.5969358139631638  1.0000
  C   C13       1.0  0.2508403932934017  0.7209419610785731  0.12048006628870667  1.0000
  C   C14       1.0  0.27906039269903726  0.5298991294366004  0.4538122973551494  1.0000
  C   C15       1.0  0.47010343171144364  0.749161650695264  0.7871491146310986  1.0000
  C   C16       1.0  0.7491592889640444  0.2790570922958155  0.12047969555081288  1.0000
  C   C17       1.0  0.7209414925735302  0.47010260527892483  0.4538121291896146  1.0000
  C   C18       1.0  0.5298967752456107  0.25083818621178017  0.7871493538528752  1.0000
  C   C19       1.0  0.7214990021670007  0.25127947365854925  0.21299782743986376  1.0000
  C   C20       1.0  0.5297798135078295  0.27849881681615335  0.8796666929410648  1.0000
  C   C21       1.0  0.7487243128745291  0.47022129412473396  0.5463306646212089  1.0000
  C   C22       1.0  0.2784996056599099  0.7487182506872827  0.21299819914984391  1.0000
  C   C23       1.0  0.4702200168291527  0.7214989932538671  0.8796668681394875  1.0000
  C   C24       1.0  0.251278821758696  0.5297828309704045  0.5463304173912675  1.0000
  C   C25       1.0  0.2902654759193981  0.7107624248834912  0.1666629643748436  1.0000
  C   C26       1.0  0.289237201191284  0.5795028226009292  0.49999554761642867  1.0000
  C   C27       1.0  0.4204995727084938  0.7097346373995991  0.8333308133380722  1.0000
  C   C28       1.0  0.7097320179748509  0.28923640646976867  0.16666254979058687  1.0000
  C   C29       1.0  0.7107655423792424  0.42049685207997806  0.499996194128684  1.0000
  C   C30       1.0  0.5795026076939891  0.2902656502438746  0.8333314538830194  1.0000
  C   C31       1.0  0.2012842480853578  0.7690729735908589  0.12065623751084327  1.0000
  C   C32       1.0  0.2309273392858913  0.43221464119311287  0.4539877499728959  1.0000
  C   C33       1.0  0.5677925372243494  0.7987164282123514  0.7873249601884281  1.0000
  C   C34       1.0  0.7987142257865403  0.2309248709148052  0.12065556131192777  1.0000
  C   C35       1.0  0.7690729886946315  0.5677862335590619  0.4539875414006004  1.0000
  C   C36       1.0  0.4322080188934124  0.20128305956129117  0.7873251545610529  1.0000
  C   C37       1.0  0.7730608987926005  0.20518561145997452  0.21322448657589627  1.0000
  C   C38       1.0  0.43212154236749006  0.22693587249651873  0.8798944600229034  1.0000
  C   C39       1.0  0.7948135729026051  0.5678779633282077  0.5465553064101342  1.0000
  C   C40       1.0  0.2269379647775553  0.7948130658156815  0.21322438225949006  1.0000
  C   C41       1.0  0.5678788926200867  0.7730625415971845  0.8798942876120605  1.0000
  C   C42       1.0  0.20518765560461116  0.4321256506438758  0.5465554921030956  1.0000
  C   C43       1.0  0.1877419786811032  0.8060011519693261  0.1670594568766504  1.0000
  C   C44       1.0  0.19400538232540054  0.3817446775093672  0.5003925590647711  1.0000
  C   C45       1.0  0.6182618176753466  0.812256795760277  0.8337301716650386  1.0000
  C   C46       1.0  0.8122571668258447  0.1939972364738836  0.1670592149767813  1.0000
  C   C47       1.0  0.8059955238004267  0.6182580433083943  0.5003911682110739  1.0000
  C   C48       1.0  0.38173975898538265  0.18774288704426573  0.8337299418599855  1.0000
  C   C49       1.0  0.36854920423337506  0.4478207870114731  0.9818104116281815  1.0000
  C   C50       1.0  0.5521781163297278  0.9207296298352857  0.3151428920634629  1.0000
  C   C51       1.0  0.07926937106294932  0.6314453903777206  0.6484776765943819  1.0000
  C   C52       1.0  0.6314491232391504  0.5521773325389885  0.981809702913125  1.0000
  C   C53       1.0  0.44782105701111163  0.07927117017293026  0.3151428137313275  1.0000
  C   C54       1.0  0.9207301239026011  0.3685527205259477  0.6484781639601207  1.0000
  C   C55       1.0  0.44789554308967894  0.36873086931429105  0.35158379275944174  1.0000
  C   C56       1.0  0.9208344187716125  0.5521058303812085  0.0182513977256704  1.0000
  C   C57       1.0  0.6312719516243136  0.07916526496328674  0.6849184793472671  1.0000
  C   C58       1.0  0.5521038700957633  0.6312672790169388  0.35158411796267325  1.0000
  C   C59       1.0  0.0791635576422109  0.44789249628301764  0.018250676136105395  1.0000
  C   C60       1.0  0.36873157103098453  0.9208360755372381  0.68491761254338  1.0000
  C   C61       1.0  0.3998754428890266  0.386926511077327  0.9946666390274925  1.0000
  C   C62       1.0  0.613070780651647  0.012949000351355334  0.3279991031659222  1.0000
  C   C63       1.0  0.9870511120434461  0.6001178055037005  0.66133506365302  1.0000
  C   C64       1.0  0.6001225543280884  0.6130719406481691  0.9946666318613565  1.0000
  C   C65       1.0  0.38692936456553884  0.9870520383425115  0.3279997589770288  1.0000
  C   C66       1.0  0.012949610214079137  0.39988149730931616  0.6613351054035659  1.0000
  C   C67       1.0  0.38696853733934233  0.39999649529143966  0.3386713013959408  1.0000
  C   C68       1.0  0.013024843211425727  0.6130317987828703  0.0053396882174468  1.0000
  C   C69       1.0  0.6000039140280082  0.9869728839701821  0.6720067994774154  1.0000
  C   C70       1.0  0.6130300658126234  0.6000036697803638  0.3386717076084053  1.0000
  C   C71       1.0  0.9869736253018079  0.3869684511315301  0.0053390467994632  1.0000
  C   C72       1.0  0.3999969856336279  0.013028660310375561  0.6720059535677122  1.0000
  C   C73       1.0  0.39871101593799824  0.36137632749186815  0.047442574880832894  1.0000
  C   C74       1.0  0.6386226414905992  0.03733332714710269  0.3807757385131509  1.0000
  C   C75       1.0  0.9626665316740033  0.6012855804697069  0.7141112959171422  1.0000
  C   C76       1.0  0.6012879560482676  0.6386222166022294  0.0474425469568871  1.0000
  C   C77       1.0  0.36137827809741924  0.9626669450623951  0.38077600162047526  1.0000
  C   C78       1.0  0.037335731198446416  0.3987158155325544  0.7141113604111665  1.0000
  C   C79       1.0  0.36137962742147794  0.3987849752351949  0.285894656147903  1.0000
  C   C80       1.0  0.037403994669318825  0.6386203228688814  0.9525629812636678  1.0000
  C   C81       1.0  0.6012130743259408  0.9625941236912398  0.6192293946251155  1.0000
  C   C82       1.0  0.638620805622587  0.6012157693427228  0.285894693430869  1.0000
  C   C83       1.0  0.962595150110758  0.3613793922841922  0.9525619492149315  1.0000
  C   C84       1.0  0.39878714445431745  0.03740688494589517  0.6192285268395706  1.0000
  C   C85       1.0  0.3662641178352217  0.40096014173116856  0.08467524080537457  1.0000
  C   C86       1.0  0.599042558049142  0.9653036712201197  0.41800841303634667  1.0000
  C   C87       1.0  0.03469825521122534  0.633736998207823  0.7513423933930168  1.0000
  C   C88       1.0  0.6337361168031137  0.5990395625536992  0.08467527558806859  1.0000
  C   C89       1.0  0.4009597176815234  0.03469645905133234  0.4180083309355211  1.0000
  C   C90       1.0  0.9653046659905731  0.366264953667404  0.7513425317464166  1.0000
  C   C91       1.0  0.4010392172209906  0.3663217345602092  0.24869481072052216  1.0000
  C   C92       1.0  0.9652808514389194  0.5989577308613222  0.9153635349868025  1.0000
  C   C93       1.0  0.6336742096252977  0.03471809966848858  0.5820295372052512  1.0000
  C   C94       1.0  0.5989619281049985  0.633681918096258  0.24869634781013863  1.0000
  C   C95       1.0  0.03472005234033306  0.40104384565621143  0.9153635951626808  1.0000
  C   C96       1.0  0.36632490847441823  0.9652840040886873  0.5820286303390104  1.0000
  C   C97       1.0  0.3367468401594778  0.46159856226173457  0.06820487215171059  1.0000
  C   C98       1.0  0.5384032153085133  0.8751470518289893  0.40153848554376737  1.0000
  C   C99       1.0  0.12485381813027635  0.6632514163179977  0.7348724820985735  1.0000
  C   C100      1.0  0.663252510850562  0.5383996059113019  0.06820420355386149  1.0000
  C   C101      1.0  0.4615996408503876  0.12485370419400971  0.4015379898941872  1.0000
  C   C102      1.0  0.8751481259540699  0.3367503015729413  0.7348733466608337  1.0000
  C   C103      1.0  0.46175266120707203  0.3369255046951594  0.26520503320250544  1.0000
  C   C104      1.0  0.8751726438987649  0.5382469266274371  0.9318725314163314  1.0000
  C   C105      1.0  0.6630747284602877  0.12482663403407206  0.5985393040315116  1.0000
  C   C106      1.0  0.5382495547856222  0.6630770797641503  0.26520570963169376  1.0000
  C   C107      1.0  0.12482621545269275  0.46175186222407666  0.9318722294456803  1.0000
  C   C108      1.0  0.3369254603061338  0.8751744015259534  0.5985384478162955  1.0000
  C   C109      1.0  0.41601759928809673  0.2528997824682336  0.10678801545667227  1.0000
  C   C110      1.0  0.7470954679680732  0.16311793035401942  0.44011955694677596  1.0000
  C   C111      1.0  0.8368832510916493  0.5839789890507208  0.7734558523610104  1.0000
  C   C112      1.0  0.5839792034284489  0.7470985224775649  0.10678709812011528  1.0000
  C   C113      1.0  0.25290328234965664  0.8368821027076906  0.4401213934897682  1.0000
  C   C114      1.0  0.16312014458532076  0.4160212830157519  0.773456014272071  1.0000
  C   C115      1.0  0.2532020383144913  0.41643038029686613  0.22640425738913447  1.0000
  C   C116      1.0  0.1632253967648084  0.7467989533768531  0.8930726482345932  1.0000
  C   C117      1.0  0.5835690383978189  0.8367715063683007  0.5597387067154358  1.0000
  C   C118      1.0  0.7467945890162258  0.5835681179034183  0.2264032340488455  1.0000
  C   C119      1.0  0.8367724530762645  0.25319963054737116  0.8930727684122957  1.0000
  C   C120      1.0  0.4164275365949879  0.16322951124294596  0.5597400916340831  1.0000
  C   C121      1.0  0.4474017675541831  0.1826374341069013  0.10915502950479088  1.0000
  C   C122      1.0  0.8173593983783294  0.26476369535006955  0.4424869057236051  1.0000
  C   C123      1.0  0.7352374129235812  0.5525957297218296  0.7758223997856816  1.0000
  C   C124      1.0  0.5525972939552446  0.8173610296834609  0.10915597782909  1.0000
  C   C125      1.0  0.18263900646679349  0.7352366835367476  0.44248720344228326  1.0000
  C   C126      1.0  0.2647659861864399  0.4474045392651362  0.7758226255770422  1.0000
  C   C127      1.0  0.18275244343614366  0.4475422080968984  0.2240477920082  1.0000
  C   C128      1.0  0.2647864260805902  0.8172480295406856  0.8907158520605091  1.0000
  C   C129      1.0  0.5524582031522273  0.7352112113247172  0.5573811433133641  1.0000
  C   C130      1.0  0.817245482608577  0.5524561996797743  0.22404763947666584  1.0000
  C   C131      1.0  0.7352110714362257  0.18275090635468427  0.890716332478135  1.0000
  C   C132      1.0  0.4475396705511871  0.2647897158659732  0.5573809064661717  1.0000
  C   C133      1.0  0.4993883950063492  0.1705239423506839  0.06986796495122148  1.0000
  C   C134      1.0  0.8294747880865077  0.32886387274339773  0.4031982280094012  1.0000
  C   C135      1.0  0.6711370297446707  0.5006122358583696  0.7365341283180483  1.0000
  C   C136      1.0  0.5006118181517466  0.8294757812022979  0.0698676844229027  1.0000
  C   C137      1.0  0.17052425757658113  0.6711358594581612  0.40319896032502806  1.0000
  C   C138      1.0  0.32886552107011374  0.49939008419060843  0.7365343669294757  1.0000
  C   C139      1.0  0.1706415813577992  0.4995767832029969  0.26332508936339843  1.0000
  C   C140      1.0  0.328934389964985  0.8293580963077715  0.9299935911692927  1.0000
  C   C141      1.0  0.5004228378493709  0.6710660503933285  0.596658081703211  1.0000
  C   C142      1.0  0.8293570059851236  0.5004221777835342  0.26332577345956304  1.0000
  C   C143      1.0  0.6710650709820668  0.17064129930782454  0.9299944154261367  1.0000
  C   C144      1.0  0.4995783014146157  0.3289352430294699  0.5966578365433789  1.0000
  C   C145      1.0  0.520416270714165  0.09937389199635056  0.0740944020666205  1.0000
  C   C146      1.0  0.9006252003019812  0.4210406168778392  0.40742422709114823  1.0000
  C   C147      1.0  0.5789616106941441  0.479586300076349  0.7407581492643728  1.0000
  C   C148      1.0  0.47958671476233405  0.9006278944318069  0.07409404208721068  1.0000
  C   C149      1.0  0.09937350258501013  0.5789594587300186  0.40742380243196397  1.0000
  C   C150      1.0  0.4210416440600825  0.5204153166663517  0.7407592335823947  1.0000
  C   C151      1.0  0.09944507933475687  0.5205275535038538  0.25911818719245616  1.0000
  C   C152      1.0  0.42107891003257  0.9005528810194721  0.9257863496869375  1.0000
  C   C153      1.0  0.4794725552916078  0.5789203416674411  0.5924496873070453  1.0000
  C   C154      1.0  0.9005512465474013  0.4794712510312565  0.25911856193938826  1.0000
  C   C155      1.0  0.5789198469996891  0.09944721788027518  0.9257867617815518  1.0000
  C   C156      1.0  0.5205289267731319  0.42108060832693184  0.5924493822231511  1.0000
  C   C157      1.0  0.4908763784412927  0.03923151550986154  0.11735628240131749  1.0000
  C   C158      1.0  0.9607685313955089  0.45164204559127086  0.45068493655727326  1.0000
  C   C159      1.0  0.5483577551784864  0.509125256960246  0.7840192094351791  1.0000
  C   C160      1.0  0.50912460141641  0.9607674484399668  0.1173558974603708  1.0000
  C   C161      1.0  0.0392304212294051  0.5483553694651135  0.450685265802349  1.0000
  C   C162      1.0  0.4516434939552597  0.49087353730566724  0.7840195648110111  1.0000
  C   C163      1.0  0.03924219076736782  0.490890952309165  0.21587974821836298  1.0000
  C   C164      1.0  0.4516486912400598  0.960757980832959  0.8825479128690855  1.0000
  C   C165      1.0  0.5091091260561385  0.5483519958808641  0.5492112887921862  1.0000
  C   C166      1.0  0.9607561658256928  0.5091058150618508  0.21588054209447444  1.0000
  C   C167      1.0  0.5483483520314751  0.03924261672462145  0.8825483490595757  1.0000
  C   C168      1.0  0.4908935019261735  0.4516502190170399  0.549210931199127  1.0000
  C   C169      1.0  0.441952772284644  0.053722076984847426  0.15764358557230193  1.0000
  C   C170      1.0  0.9462792108722983  0.38822853268352037  0.4909730697493087  1.0000
  C   C171      1.0  0.6117698162974677  0.5580478743406446  0.8243081108850204  1.0000
  C   C172      1.0  0.5580482660159733  0.9462768345407326  0.15764403806202407  1.0000
  C   C173      1.0  0.05371910238450545  0.6117695277575949  0.4909729671004185  1.0000
  C   C174      1.0  0.3882306315450848  0.441949309955703  0.8243076700063767  1.0000
  C   C175      1.0  0.05362091762864921  0.4417759954742949  0.17567293233474854  1.0000
  C   C176      1.0  0.38815336281251  0.9463781222026385  0.8423410474432201  1.0000
  C   C177      1.0  0.5582258955491  0.611847843048764  0.5090048310834732  1.0000
  C   C178      1.0  0.9463770317328797  0.5582211731205933  0.17567328076906105  1.0000
  C   C179      1.0  0.6118429243212803  0.053623225483939066  0.8423403558399654  1.0000
  C   C180      1.0  0.4417750230707825  0.38815486656163506  0.5090044838524149  1.0000
  C   C181      1.0  0.4202866629700211  0.12455070008722662  0.15340581748530008  1.0000
  C   C182      1.0  0.8754479538328114  0.2957338429635925  0.4867369122756102  1.0000
  C   C183      1.0  0.7042640583393693  0.5797122297577674  0.8200715868302381  1.0000
  C   C184      1.0  0.5797137648627457  0.8754476126328399  0.1534063497214575  1.0000
  C   C185      1.0  0.1245500043731909  0.7042645718944273  0.4867367938908345  1.0000
  C   C186      1.0  0.2957368941870585  0.42028686650029107  0.8200710819414566  1.0000
  C   C187      1.0  0.12444382228056146  0.42010621224493877  0.17989311906026015  1.0000
  C   C188      1.0  0.2956613693574114  0.8755573998886845  0.8465619637436104  1.0000
  C   C189      1.0  0.5798942022352308  0.7043403402911609  0.5132272915025026  1.0000
  C   C190      1.0  0.8755553418443259  0.5798921594976748  0.17989416728075713  1.0000
  C   C191      1.0  0.7043365749376705  0.12444349991066166  0.8465624663680483  1.0000
  C   C192      1.0  0.4201044671523917  0.29566220189864356  0.5132273945684247  1.0000
  N   N1        1.0  0.3370076237725428  0.4852325583919779  0.017713147120638  1.0000
  N   N2        1.0  0.5147669465523137  0.8517732525982851  0.35104676990739136  1.0000
  N   N3        1.0  0.14822582289743014  0.6629886452773517  0.6843803868484243  1.0000
  N   N4        1.0  0.66299070076618  0.5147654200679881  0.0177124984518429  1.0000
  N   N5        1.0  0.4852333255887303  0.14822645397657655  0.35104627539713806  1.0000
  N   N6        1.0  0.8517748393002481  0.33701192967656374  0.6843812303420335  1.0000
  N   N7        1.0  0.4854098956877452  0.33723322837952446  0.3157073080749554  1.0000
  N   N8        1.0  0.8518216662396869  0.5145902619719183  0.9823751862665727  1.0000
  N   N9        1.0  0.6627700455854255  0.14817763829528732  0.6490415583896549  1.0000
  N   N10       1.0  0.5145892784723929  0.6627675708937701  0.3157079636672861  1.0000
  N   N11       1.0  0.14817882392024737  0.48540932089751  0.982376057094818  1.0000
  N   N12       1.0  0.3372327272144417  0.8518244466988987  0.6490411130855518  1.0000
  N   N13       1.0  0.4288380326389998  0.29907907123551064  0.059618562179679195  1.0000
  N   N14       1.0  0.7009196149559146  0.1297567695837073  0.3929508927256505  1.0000
  N   N15       1.0  0.8702435212275645  0.5711596259393373  0.726287214845115  1.0000
  N   N16       1.0  0.5711622591421986  0.7009193635250384  0.05961884496016268  1.0000
  N   N17       1.0  0.29908132229387274  0.8702434867829041  0.3929511791191089  1.0000
  N   N18       1.0  0.1297594571188014  0.42884105641004305  0.7262869453491658  1.0000
  N   N19       1.0  0.2990093257707258  0.42877687355691296  0.27371046317114883  1.0000
  N   N20       1.0  0.12976651797192337  0.7009915984278053  0.9403792341931376  1.0000
  N   N21       1.0  0.571222034803057  0.8702321822319022  0.607045268276785  1.0000
  N   N22       1.0  0.7009908341843174  0.571222933650617  0.27371136310158306  1.0000
  N   N23       1.0  0.8702310515879506  0.29900727284376677  0.9403789544149532  1.0000
  N   N24       1.0  0.42877686417092786  0.12976893574894893  0.6070447391628802  1.0000
  N   N25       1.0  0.13365405171568778  0.8485536718574309  0.16759547980215925  1.0000
  N   N26       1.0  0.15146351764992272  0.2851044424982164  0.5009286465112197  1.0000
  N   N27       1.0  0.7149015167060074  0.8663418554740121  0.8342646940125389  1.0000
  N   N28       1.0  0.8663450945688923  0.15144471588822503  0.1675953224420681  1.0000
  N   N29       1.0  0.8485366914425189  0.7148989754309627  0.5009276018728883  1.0000
  N   N30       1.0  0.28509850318355495  0.13365696689993467  0.834264424158377  1.0000
  O   O1        1.0  0.2936131243367799  0.6254799681499322  0.07082806415255757  1.0000
  O   O2        1.0  0.37451379769279214  0.6681338383947305  0.4041594375919573  1.0000
  O   O3        1.0  0.3318686085966718  0.7063867328448552  0.7374950557150014  1.0000
  O   O4        1.0  0.7063849283463738  0.37451829009946647  0.070826792393099  1.0000
  O   O5        1.0  0.6254851558737331  0.33186719468518067  0.4041600836583185  1.0000
  O   O6        1.0  0.6681317817448686  0.2936141218990046  0.7374949910124825  1.0000
  O   O7        1.0  0.6244413076717664  0.2923853809663868  0.2623435055855338  1.0000
  O   O8        1.0  0.6679444455119994  0.37556223908828923  0.9290093263655305  1.0000
  O   O9        1.0  0.7076246410931265  0.3320604221964987  0.5956780070580264  1.0000
  O   O10       1.0  0.3755582314726241  0.7076138367132857  0.2623432174875475  1.0000
  O   O11       1.0  0.33205631613849124  0.6244370643191388  0.9290094611453765  1.0000
  O   O12       1.0  0.2923798672566491  0.6679435451965147  0.5956772879013741  1.0000
  O   O13       1.0  0.23281684705863634  0.7007748879306916  0.028013899982319398  1.0000
  O   O14       1.0  0.29922110559363096  0.5320438929577165  0.36134535712294286  1.0000
  O   O15       1.0  0.46796059990567346  0.7671835615385234  0.6946813762446523  1.0000
  O   O16       1.0  0.7671833053842861  0.29922489008480124  0.02801352811427189  1.0000
  O   O17       1.0  0.7007782282613564  0.4679555448004607  0.3613455635246081  1.0000
  O   O18       1.0  0.5320384261971826  0.23281744240564706  0.6946816327508782  1.0000
  O   O19       1.0  0.6999756644164705  0.23206438546903754  0.305353810413159  1.0000
  O   O20       1.0  0.5320917069386938  0.3000212879975593  0.9720203248582064  1.0000
  O   O21       1.0  0.76793958407756  0.46791735678684193  0.6386862678294561  1.0000
  O   O22       1.0  0.30002272847991657  0.7679335676035207  0.30535418492632965  1.0000
  O   O23       1.0  0.46790893012435925  0.6999805636992988  0.9720216885082988  1.0000
  O   O24       1.0  0.23206403343559864  0.5320862992265633  0.6386856107791912  1.0000
  O   O25       1.0  0.37758871619321616  0.26561477003212275  0.1448068149362669  1.0000
  O   O26       1.0  0.7343771573115563  0.11197537455010585  0.478141130156139  1.0000
  O   O27       1.0  0.888029387365386  0.6224088319233375  0.8114758529701049  1.0000
  O   O28       1.0  0.6224074689230934  0.7343793236378673  0.14480828702966156  1.0000
  O   O29       1.0  0.2656232991985452  0.8880241666427013  0.47814215297742624  1.0000
  O   O30       1.0  0.11197396997369684  0.3775926927990767  0.8114756113319714  1.0000
  O   O31       1.0  0.2666265587223506  0.37871105504670066  0.1882998901670874  1.0000
  O   O32       1.0  0.1120838715415714  0.7333748555138725  0.8549690232939253  1.0000
  O   O33       1.0  0.6212893308080966  0.8879176765503233  0.5216343124222149  1.0000
  O   O34       1.0  0.7333686427695769  0.6212840287420535  0.18830116698523364  1.0000
  O   O35       1.0  0.8879146208365327  0.26662308018303793  0.8549695683489772  1.0000
  O   O36       1.0  0.3787043292301675  0.11208262439895113  0.521634925895249  1.0000
