data_image0
_chemical_formula_structural       Cu4H20C16S8I4N4
_chemical_formula_sum              "Cu4 H20 C16 S8 I4 N4"
_cell_length_a       7.4285604718871285
_cell_length_b       7.438842959735067
_cell_length_c       14.121460716175857
_cell_angle_alpha    89.99955801968368
_cell_angle_beta     89.99966621930865
_cell_angle_gamma    91.6420089170978

_space_group_name_H-M_alt    "P 1"
_space_group_IT_number       1

loop_
  _space_group_symop_operation_xyz
  'x, y, z'

loop_
  _atom_site_type_symbol
  _atom_site_label
  _atom_site_symmetry_multiplicity
  _atom_site_fract_x
  _atom_site_fract_y
  _atom_site_fract_z
  _atom_site_occupancy
  Cu  Cu1       1.0  0.29567314046922627  0.6631905188429099  0.2795443140648217  1.0000
  Cu  Cu2       1.0  0.20432611322852517  0.3368104722850375  0.7795430006799506  1.0000
  Cu  Cu3       1.0  0.7043255201834808  0.3368101409283852  0.7204578338010209  1.0000
  Cu  Cu4       1.0  0.7956708500270295  0.6631821393620783  0.2204584390637763  1.0000
  H   H1        1.0  0.21563087148191332  0.6136811369615033  0.49049862146755885  1.0000
  H   H2        1.0  0.2843842630736829  0.3863449345600927  0.9904968880990738  1.0000
  H   H3        1.0  0.7843813608003601  0.3863220116317833  0.5095035263757453  1.0000
  H   H4        1.0  0.7155998911425812  0.6136626693209521  0.009506676053703702  1.0000
  H   H5        1.0  0.4379810960095156  0.6750806674379817  0.6375354035013175  1.0000
  H   H6        1.0  0.06205119147885801  0.3249258469783173  0.1375366750424476  1.0000
  H   H7        1.0  0.5620414304508686  0.32491156314386427  0.3624624955009637  1.0000
  H   H8        1.0  0.9379265875749355  0.6750899253953121  0.8624640565321116  1.0000
  H   H9        1.0  0.9863601036271347  0.043841875057033505  0.3231401650652402  1.0000
  H   H10       1.0  0.5136648348819077  0.9561566218165112  0.8231365912241702  1.0000
  H   H11       1.0  0.013654702202053707  0.9561585440358229  0.676860566496785  1.0000
  H   H12       1.0  0.4863308416526522  0.04383735463432  0.17685776709775783  1.0000
  H   H13       1.0  0.9768209515527317  0.8644394410957618  0.40811257467802875  1.0000
  H   H14       1.0  0.5231935416137716  0.13556071841563985  0.9081147305240833  1.0000
  H   H15       1.0  0.023184260295813906  0.13555708432478042  0.591885324336495  1.0000
  H   H16       1.0  0.4767941209992088  0.8644347230769965  0.09187962780466562  1.0000
  H   H17       1.0  0.8625948446865266  0.07464021765039772  0.4297680318564616  1.0000
  H   H18       1.0  0.6374382514254079  0.9253607082748944  0.9297756137687898  1.0000
  H   H19       1.0  0.1374129407041593  0.9253535782648541  0.5702291590188225  1.0000
  H   H20       1.0  0.3625549102050485  0.07463734235464871  0.07022299339952551  1.0000
  C   C1        1.0  0.34913635729792236  0.6777894355285528  0.4876537055458954  1.0000
  C   C2        1.0  0.15088495605245808  0.3222231277420917  0.9876610885975197  1.0000
  C   C3        1.0  0.6508782725408224  0.32220694946624917  0.5123477341673137  1.0000
  C   C4        1.0  0.8490978527332302  0.6777844961962955  0.0123424755569062  1.0000
  C   C5        1.0  0.460333409662681  0.7086375444320651  0.5633234317248892  1.0000
  C   C6        1.0  0.03967589436373939  0.2913757291037554  0.0633284485153851  1.0000
  C   C7        1.0  0.5396812788522637  0.29136018527506025  0.43667588355915404  1.0000
  C   C8        1.0  0.9603066797886939  0.7086265160582953  0.9366729912251088  1.0000
  C   C9        1.0  0.583911580198489  0.802636063484556  0.4107800674681243  1.0000
  C   C10       1.0  0.9161052197174584  0.19738689919111613  0.9107823798104421  1.0000
  C   C11       1.0  0.41609269684794725  0.197369894872601  0.5892185396687495  1.0000
  C   C12       1.0  0.08388677245856258  0.8026152055792364  0.0892176436344556  1.0000
  C   C13       1.0  0.9030542945846489  0.975722882952944  0.3768868979347815  1.0000
  C   C14       1.0  0.5969590977673037  0.024273691394405696  0.876892193332253  1.0000
  C   C15       1.0  0.09695495356039877  0.0242735823004239  0.623110292932765  1.0000
  C   C16       1.0  0.40303002758096085  0.9757244194168991  0.123104997556915  1.0000
  S   S1        1.0  0.6609268953783171  0.8049963851386793  0.5263735314835927  1.0000
  S   S2        1.0  0.8390939094043901  0.1950049635015745  0.026377514641907907  1.0000
  S   S3        1.0  0.33909177078078295  0.1949999397132629  0.4736236593724428  1.0000
  S   S4        1.0  0.160891296952073  0.8049958968529224  0.9736232169563055  1.0000
  S   S5        1.0  0.706864875650055  0.8896640181369689  0.31515788473159745  1.0000
  S   S6        1.0  0.7931502281611529  0.11035357455725152  0.815160890655271  1.0000
  S   S7        1.0  0.29314320304531793  0.1103365012620756  0.6848400142704919  1.0000
  S   S8        1.0  0.2068443962141302  0.8896471454006799  0.184839132789385  1.0000
  I   I1        1.0  0.008737143614652604  0.4695300595920457  0.3248605279135505  1.0000
  I   I2        1.0  0.49126682274021494  0.5304688842034011  0.8248555132582567  1.0000
  I   I3        1.0  0.9912629211162169  0.5304719248050489  0.6751437443737203  1.0000
  I   I4        1.0  0.5087302578248157  0.4695264168245927  0.1751480509055057  1.0000
  N   N1        1.0  0.41926615584407756  0.7301341771088515  0.40102648600450413  1.0000
  N   N2        1.0  0.0807488971293964  0.2698944880514063  0.9010307358808376  1.0000
  N   N3        1.0  0.580738003869037  0.2698690918431126  0.5989735374225448  1.0000
  N   N4        1.0  0.9192429777132957  0.7301049273137606  0.0989707038542349  1.0000
