data_image0
_chemical_formula_structural       Na2Gd2H32C36O24
_chemical_formula_sum              "Na2 Gd2 H32 C36 O24"
_cell_length_a       6.812464171491342
_cell_length_b       7.502995771202335
_cell_length_c       19.891265073895926
_cell_angle_alpha    90.00070587675306
_cell_angle_beta     99.90306006116985
_cell_angle_gamma    90.00032449113598

_space_group_name_H-M_alt    "P 1"
_space_group_IT_number       1

loop_
  _space_group_symop_operation_xyz
  'x, y, z'

loop_
  _atom_site_type_symbol
  _atom_site_label
  _atom_site_symmetry_multiplicity
  _atom_site_fract_x
  _atom_site_fract_y
  _atom_site_fract_z
  _atom_site_occupancy
  Na  Na1       1.0  0.8377890835309998  0.7502467657438813  0.6740748659738784  1.0000
  Na  Na2       1.0  0.1622173725481133  0.25024175063004606  0.3259264636982238  1.0000
  Gd  Gd1       1.0  0.7066563779069809  0.2501512936236026  0.413756877550135  1.0000
  Gd  Gd2       1.0  0.2933500558932494  0.7501532962823204  0.5862484722384522  1.0000
  H   H1        1.0  0.221732195600417  0.6475237832585419  0.0319218849631042  1.0000
  H   H2        1.0  0.7782659190904866  0.14753212358579046  0.9680764569783095  1.0000
  H   H3        1.0  0.8126974529200479  0.8517104347316219  0.032360674869636286  1.0000
  H   H4        1.0  0.18730394150123433  0.35171435486054037  0.9676393199567811  1.0000
  H   H5        1.0  0.11043306326902778  0.8485851657123574  0.8121452203074071  1.0000
  H   H6        1.0  0.8895518723273738  0.3485754594101138  0.1878613214345748  1.0000
  H   H7        1.0  0.7046898320396123  0.6508483621220762  0.8121907456466602  1.0000
  H   H8        1.0  0.29529935774843347  0.15083822952966844  0.1878095943599547  1.0000
  H   H9        1.0  0.17515806952886237  0.851675487711809  0.9388756993379203  1.0000
  H   H10       1.0  0.8248403121916609  0.3516813291182004  0.0611301488556606  1.0000
  H   H11       1.0  0.766901260157283  0.6474625990555224  0.9390048979000057  1.0000
  H   H12       1.0  0.23309087747252724  0.1474640261228329  0.060996104455128396  1.0000
  H   H13       1.0  0.942163335562384  0.7314013937758759  0.4373734714215303  1.0000
  H   H14       1.0  0.057829571080951284  0.23140217519647166  0.5626219364713663  1.0000
  H   H15       1.0  0.4954384888784347  0.7690571887882454  0.4372574043796362  1.0000
  H   H16       1.0  0.5045577634189939  0.269064295396106  0.562731843199046  1.0000
  H   H17       1.0  0.7551567926937537  0.09149601180848069  0.7356807557353093  1.0000
  H   H18       1.0  0.24484679319429148  0.5914886603436074  0.2643171469763246  1.0000
  H   H19       1.0  0.9813214740262667  0.4088138505909384  0.7356001695504375  1.0000
  H   H20       1.0  0.018674474631730203  0.9088079911830816  0.2643972545862638  1.0000
  H   H21       1.0  0.981173238264816  0.1028212747392274  0.7273789746873334  1.0000
  H   H22       1.0  0.0188304416871148  0.6028183482244033  0.2726199920690391  1.0000
  H   H23       1.0  0.7469403874061127  0.3982053446094583  0.727351883646115  1.0000
  H   H24       1.0  0.25305545742526186  0.8982063026474166  0.27264749564776025  1.0000
  H   H25       1.0  0.7819552272741745  0.8802946746110365  0.3451181425174639  1.0000
  H   H26       1.0  0.21804939832575337  0.38031527317634317  0.6548821783212944  1.0000
  H   H27       1.0  0.5632251900579348  0.6201286905414491  0.3450274514574261  1.0000
  H   H28       1.0  0.4367816086364087  0.12013576873130209  0.6549742955328597  1.0000
  H   H29       1.0  0.28480609293708165  0.6457480387083192  0.1582861397162034  1.0000
  H   H30       1.0  0.7151964657563354  0.14576395041978424  0.8417144693315208  1.0000
  H   H31       1.0  0.874479095195781  0.854288947417899  0.1587154055106268  1.0000
  H   H32       1.0  0.1255089029576695  0.3542991130875067  0.8412853123953782  1.0000
  C   C1        1.0  0.6214738300983312  0.7500992722869951  0.2429601355117654  1.0000
  C   C2        1.0  0.3785341229309651  0.2501160198700987  0.7570397744010862  1.0000
  C   C3        1.0  0.36443562534405055  0.6944272041115481  0.059753792675337494  1.0000
  C   C4        1.0  0.6355613948533971  0.19443390026262358  0.9402477199033967  1.0000
  C   C5        1.0  0.6975251886083527  0.8048866199224208  0.06001244655796258  1.0000
  C   C6        1.0  0.30247877772700343  0.30490223790840787  0.9399869796168615  1.0000
  C   C7        1.0  0.36555643318372694  0.749886569305083  0.7288490375408117  1.0000
  C   C8        1.0  0.6344440565456891  0.24985557851559292  0.2711524380691372  1.0000
  C   C9        1.0  0.4037790153066396  0.749763944451061  0.8045127368870268  1.0000
  C   C10       1.0  0.5962155264347687  0.24974629593985037  0.1954858705522255  1.0000
  C   C11       1.0  0.8127194716830458  0.8129765817542705  0.4440819764822521  1.0000
  C   C12       1.0  0.18727710972942185  0.31297382056229134  0.5559180534862023  1.0000
  C   C13       1.0  0.6315866631238405  0.6874715738040037  0.4439983384922074  1.0000
  C   C14       1.0  0.3684088246762372  0.18747109003518864  0.555999531208407  1.0000
  C   C15       1.0  0.2535501013379218  0.8036466116145033  0.8403247846088249  1.0000
  C   C16       1.0  0.7464419171399256  0.3036419116131767  0.1596769411195424  1.0000
  C   C17       1.0  0.589895269337525  0.6957665783741619  0.8403664343232079  1.0000
  C   C18       1.0  0.4100972976287522  0.19575879509591226  0.1596338140110447  1.0000
  C   C19       1.0  0.475514708229433  0.7494372527561949  0.9478876556890085  1.0000
  C   C20       1.0  0.524476842486571  0.249439907190343  0.05211228047932789  1.0000
  C   C21       1.0  0.2900272681584681  0.8039770575257988  0.9112358355499097  1.0000
  C   C22       1.0  0.7099617784405226  0.30398319736111284  0.08876470942801967  1.0000
  C   C23       1.0  0.624397373816727  0.6951560618255498  0.9112871410214397  1.0000
  C   C24       1.0  0.375595198562209  0.19515646273423928  0.0887110938624573  1.0000
  C   C25       1.0  0.5128167422602061  0.7495076613284367  0.023098550447563985  1.0000
  C   C26       1.0  0.4871792820815201  0.24951743953296557  0.9769011495531643  1.0000
  C   C27       1.0  0.863053987908387  0.9139454712251974  0.5112601112885714  1.0000
  C   C28       1.0  0.13695839955382638  0.41394027082704804  0.4887378123712978  1.0000
  C   C29       1.0  0.648400406091902  0.5865303593703854  0.5111619894565393  1.0000
  C   C30       1.0  0.35160164882636014  0.08653027678627721  0.4888352962072132  1.0000
  C   C31       1.0  0.5838460584616172  0.7500086457865648  0.1670035468416486  1.0000
  C   C32       1.0  0.4161514577101073  0.2500227198165135  0.8329967470234436  1.0000
  C   C33       1.0  0.39951324271859073  0.6931529537074823  0.13064540146169182  1.0000
  C   C34       1.0  0.600482276208595  0.19316250081910613  0.8693560158250762  1.0000
  C   C35       1.0  0.7323688309659103  0.8066271645964279  0.1308981825469928  1.0000
  C   C36       1.0  0.2676277055408177  0.3066456349128757  0.8690998041661828  1.0000
  O   O1        1.0  0.7957399101399432  0.7902335474520185  0.2750090042981839  1.0000
  O   O2        1.0  0.20426988795228598  0.2902470171897988  0.724990700380026  1.0000
  O   O3        1.0  0.47899567418402  0.7100247588701976  0.27482673854294853  1.0000
  O   O4        1.0  0.5210193721863731  0.2100398817251374  0.7251744115211024  1.0000
  O   O5        1.0  0.18702191627810552  0.7631789279514719  0.6959022814611231  1.0000
  O   O6        1.0  0.8129831604494909  0.26315393192869857  0.3040995292988171  1.0000
  O   O7        1.0  0.5106122910994486  0.7366636913187179  0.6957275479732914  1.0000
  O   O8        1.0  0.4893970257956539  0.23662502298148516  0.3042738883355653  1.0000
  O   O9        1.0  0.8024688711698501  0.07256008305498797  0.5126806342012813  1.0000
  O   O10       1.0  0.19754645319505218  0.5725570481838815  0.4873208949043928  1.0000
  O   O11       1.0  0.7104025334717221  0.4278992410005954  0.5126432879884604  1.0000
  O   O12       1.0  0.28960993883007546  0.9278780269505302  0.4873617442216229  1.0000
  O   O13       1.0  0.7714677208240984  0.9412203781828125  0.3903560987639096  1.0000
  O   O14       1.0  0.2285180736250041  0.4412289024937193  0.6096423809094063  1.0000
  O   O15       1.0  0.6191390731593953  0.5593138611720079  0.3902716415516139  1.0000
  O   O16       1.0  0.3808731574450448  0.059316516479782394  0.6097291387740427  1.0000
  O   O17       1.0  0.8758477877825682  0.019955550850788498  0.734606876373995  1.0000
  O   O18       1.0  0.12415366930991918  0.5199516049841008  0.2653925760022844  1.0000
  O   O19       1.0  0.8598230132120505  0.4807061359582292  0.7346412043262092  1.0000
  O   O20       1.0  0.14017059169312768  0.9807022722464678  0.2653554111157135  1.0000
  O   O21       1.0  0.9623349387134893  0.833514688080875  0.5625548517352996  1.0000
  O   O22       1.0  0.03768122376331459  0.33350997434045127  0.4374409094588003  1.0000
  O   O23       1.0  0.6003975327191637  0.6670095856476762  0.5624037857109698  1.0000
  O   O24       1.0  0.39959925744384606  0.1669934309934362  0.43759557395586773  1.0000
