data_image0
_chemical_formula_structural       Cu2H16C16O12
_chemical_formula_sum              "Cu2 H16 C16 O12"
_cell_length_a       6.446293560258314
_cell_length_b       6.830906120057424
_cell_length_c       10.205358628403802
_cell_angle_alpha    94.457916854592
_cell_angle_beta     90.00012229390857
_cell_angle_gamma    89.99899330875813

_space_group_name_H-M_alt    "P 1"
_space_group_IT_number       1

loop_
  _space_group_symop_operation_xyz
  'x, y, z'

loop_
  _atom_site_type_symbol
  _atom_site_label
  _atom_site_symmetry_multiplicity
  _atom_site_fract_x
  _atom_site_fract_y
  _atom_site_fract_z
  _atom_site_occupancy
  Cu  Cu1       1.0  0.24352973755717494  0.1950145718969551  0.48023495920119086  1.0000
  Cu  Cu2       1.0  0.7435247363792924  0.804975545563167  0.5197755339516166  1.0000
  H   H1        1.0  0.7836980182802548  0.9176576733709043  0.13024978133982051  1.0000
  H   H2        1.0  0.28370185038261303  0.08232294205960498  0.8697641715649811  1.0000
  H   H3        1.0  0.7496198155075859  0.021138502612359406  0.9015064824889196  1.0000
  H   H4        1.0  0.24963546806640838  0.978841237234299  0.09850248086128495  1.0000
  H   H5        1.0  0.6386195189927975  0.3622752693871121  0.8672314657772447  1.0000
  H   H6        1.0  0.1386244663223195  0.6377372740549349  0.13275364294801054  1.0000
  H   H7        1.0  0.5696289375805819  0.5999974042592343  0.05854208729558511  1.0000
  H   H8        1.0  0.0696365344680956  0.4000412524357557  0.9414472769891662  1.0000
  H   H9        1.0  0.28833056796853646  0.8607742978927817  0.3544702725150445  1.0000
  H   H10       1.0  0.7883071673695452  0.1391931258949199  0.6455165206064848  1.0000
  H   H11       1.0  0.0636517255851174  0.9555363455915753  0.3380723908204217  1.0000
  H   H12       1.0  0.5636704495869793  0.0444671030940711  0.6619327118645517  1.0000
  H   H13       1.0  0.0052755479615669  0.45316479704909796  0.37481776159250313  1.0000
  H   H14       1.0  0.5052942651545962  0.546829412847373  0.6251720725916459  1.0000
  H   H15       1.0  0.24474308772043676  0.4792228158224959  0.34041133965568093  1.0000
  H   H16       1.0  0.7447034582018829  0.520793783625173  0.6595819602838519  1.0000
  C   C1        1.0  0.6381867611452847  0.39342282131369904  0.2017858133230065  1.0000
  C   C2        1.0  0.1381823028823277  0.6065852341437081  0.7982225708218496  1.0000
  C   C3        1.0  0.6976196202529579  0.1995156383645948  0.22180725369526041  1.0000
  C   C4        1.0  0.1976270585408741  0.8004531704215694  0.7782167345789547  1.0000
  C   C5        1.0  0.73845494855896  0.06720145001408183  0.11336696931762451  1.0000
  C   C6        1.0  0.23843244263991883  0.9327858614591379  0.8866316080581529  1.0000
  C   C7        1.0  0.7181683929415071  0.12466799892045802  0.985852000428679  1.0000
  C   C8        1.0  0.2181375386340036  0.875349051895867  0.014140310272352992  1.0000
  C   C9        1.0  0.6549581959618536  0.3157955141066467  0.9664650971897404  1.0000
  C   C10       1.0  0.1549448666842537  0.6842225638146291  0.0335369875569924  1.0000
  C   C11       1.0  0.6161299235098951  0.45016980752682667  0.07393578071987152  1.0000
  C   C12       1.0  0.11615179022540899  0.5498753624245866  0.9260657509545357  1.0000
  C   C13       1.0  0.6107031061713784  0.5467512281113828  0.3139147494689354  1.0000
  C   C14       1.0  0.1107010393184211  0.45326461338201807  0.6860989176940677  1.0000
  C   C15       1.0  0.6950655258186202  0.13232744867450213  0.3574673343854684  1.0000
  C   C16       1.0  0.19505882964180898  0.8676341704344211  0.6425278477758456  1.0000
  O   O1        1.0  0.7750189681181325  0.5895600778429254  0.3820758929758128  1.0000
  O   O2        1.0  0.2750748310275029  0.4104956041749048  0.6179332637469346  1.0000
  O   O3        1.0  0.43965830949449713  0.6348090420030276  0.33215308599954346  1.0000
  O   O4        1.0  0.9396432713078795  0.36519691299641016  0.6678447879537546  1.0000
  O   O5        1.0  0.5860502753389696  0.2227695079567411  0.44391593019441455  1.0000
  O   O6        1.0  0.08602785122820931  0.7772101149102967  0.5560761619561917  1.0000
  O   O7        1.0  0.8047162064401263  0.9769866459201425  0.37654815917289153  1.0000
  O   O8        1.0  0.30475590073233855  0.0229950120654578  0.62348449409577  1.0000
  O   O9        1.0  0.2158986470767275  0.982930543962013  0.3349361310317819  1.0000
  O   O10       1.0  0.7159008194538642  0.0170249333429027  0.665037190087972  1.0000
  O   O11       1.0  0.1342790039117361  0.3780401777243442  0.35130296906054786  1.0000
  O   O12       1.0  0.6342561009533725  0.6219681016355809  0.6486642671760238  1.0000
