data_image0
_chemical_formula_structural       Zn4H64C82N20O4
_chemical_formula_sum              "Zn4 H64 C82 N20 O4"
_cell_length_a       19.734127784191962
_cell_length_b       19.70555954410693
_cell_length_c       20.809279958535594
_cell_angle_alpha    108.60489086417829
_cell_angle_beta     105.70099703655491
_cell_angle_gamma    111.91531471781484

_space_group_name_H-M_alt    "P 1"
_space_group_IT_number       1

loop_
  _space_group_symop_operation_xyz
  'x, y, z'

loop_
  _atom_site_type_symbol
  _atom_site_label
  _atom_site_symmetry_multiplicity
  _atom_site_fract_x
  _atom_site_fract_y
  _atom_site_fract_z
  _atom_site_occupancy
  Zn  Zn1       1.0  0.5998801856464695  0.6005106089791215  0.493313490700011  1.0000
  Zn  Zn2       1.0  0.3908818404615246  0.3915001581846412  0.4914424108645933  1.0000
  Zn  Zn3       1.0  0.5043140120328999  0.5947853266224428  0.6007750150605276  1.0000
  Zn  Zn4       1.0  0.5022998705586019  0.3986940341962537  0.3967600577415737  1.0000
  H   H1        1.0  0.7639773949109028  0.6241391555017304  0.6089193164514981  1.0000
  H   H2        1.0  0.7753464818655403  0.16161938108530194  0.7147008668164503  1.0000
  H   H3        1.0  0.4957461403877161  0.07581398493613992  0.5507407651454272  1.0000
  H   H4        1.0  0.5452602705355716  0.06420170248337342  0.6861391459972026  1.0000
  H   H5        1.0  0.6797095252165378  0.227597665400225  0.7578864885902661  1.0000
  H   H6        1.0  0.35821286253523255  0.5807727876074084  0.7974005474650241  1.0000
  H   H7        1.0  0.46950899137677754  0.6092226539200497  0.7519244481025069  1.0000
  H   H8        1.0  0.339580701733368  0.5870457432757376  0.9127253367818112  1.0000
  H   H9        1.0  0.4472402498306424  0.6634170332483793  0.14981461418480546  1.0000
  H   H10       1.0  0.478550666027644  0.655116816762785  0.2704627173660512  1.0000
  H   H11       1.0  0.25884412240887406  0.40754127950526714  0.027901120497688173  1.0000
  H   H12       1.0  0.2472222616399691  0.38436816088604797  0.3670017667883343  1.0000
  H   H13       1.0  0.34143423022909763  0.35980589622593573  0.8676544885388822  1.0000
  H   H14       1.0  0.2826358176294193  0.4010630567796555  0.14876461709434352  1.0000
  H   H15       1.0  0.2461592105591208  0.11062323072006561  0.13071609941465573  1.0000
  H   H16       1.0  0.13483201732116615  0.973179926743349  0.023188221670565685  1.0000
  H   H17       1.0  0.005556309195455398  0.7699712085417048  0.838755329026867  1.0000
  H   H18       1.0  0.8801874915294192  0.6695110589974149  0.7173626339328008  1.0000
  H   H19       1.0  0.14487660112590112  0.05629258912609461  0.2795094909539344  1.0000
  H   H20       1.0  0.8618863524661292  0.7544643176997499  0.9616046878347576  1.0000
  H   H21       1.0  0.030808344650992563  0.9208129028973036  0.1700093384617176  1.0000
  H   H22       1.0  0.7361686313709299  0.6550200755925957  0.8413915625478906  1.0000
  H   H23       1.0  0.3771271541104185  0.20119709780227174  0.2504531952738134  1.0000
  H   H24       1.0  0.31372160169684093  0.3448799743289896  0.6067765051517  1.0000
  H   H25       1.0  0.7657285372837562  0.6442496164096311  0.4612904477963439  1.0000
  H   H26       1.0  0.6466570948167886  0.38826032102493  0.5032926660286279  1.0000
  H   H27       1.0  0.6186056578683932  0.5811092669203646  0.7305497844866551  1.0000
  H   H28       1.0  0.4850146513185009  0.6421048186897521  0.3869913780038913  1.0000
  H   H29       1.0  0.6004684147105337  0.8572970620841646  0.7536075834761604  1.0000
  H   H30       1.0  0.502604743614242  0.8187801026036041  0.6826898968534464  1.0000
  H   H31       1.0  0.5248471924352174  0.7511064183483497  0.7126751613396393  1.0000
  H   H32       1.0  0.10077923492487172  0.14834295671388287  0.2607095024754358  1.0000
  H   H33       1.0  0.15345224529288973  0.2576844297819818  0.2922295321947034  1.0000
  H   H34       1.0  0.3859832930288862  0.6494229899435952  0.5159229697667982  1.0000
  H   H35       1.0  0.10114273033321552  0.2181485745834451  0.3417046355096218  1.0000
  H   H36       1.0  0.7092705018741655  0.9133024926069808  0.5385688527950236  1.0000
  H   H37       1.0  0.6034968594787955  0.8518958889904271  0.4736654630402626  1.0000
  H   H38       1.0  0.6777229518326068  0.8427832275506617  0.4422847234854216  1.0000
  H   H39       1.0  0.31659621349079703  0.3169659999502485  0.20668033409586428  1.0000
  H   H40       1.0  0.3801470497472508  0.36451138977729153  0.1695992758436659  1.0000
  H   H41       1.0  0.41567438496099396  0.3302686016150106  0.2338527318038501  1.0000
  H   H42       1.0  0.9268669358880646  0.3448471322486882  0.4173823764308936  1.0000
  H   H43       1.0  0.9888704600647743  0.4336446616144374  0.5094236038569305  1.0000
  H   H44       1.0  0.012173315911041972  0.3519826282830962  0.4844492579636608  1.0000
  H   H45       1.0  0.026136287513239084  0.5763486663051509  0.5110590199652165  1.0000
  H   H46       1.0  0.4591959375338917  0.24494835042535357  0.5958618089886727  1.0000
  H   H47       1.0  0.4768538117709014  0.34274307885100097  0.6565187487001509  1.0000
  H   H48       1.0  0.3910179586417684  0.2799525071399388  0.5662358103866936  1.0000
  H   H49       1.0  0.7697458855093301  0.14309539934607327  0.5540488352394277  1.0000
  H   H50       1.0  0.7142720438331694  0.189662713415558  0.5236232457902402  1.0000
  H   H51       1.0  0.7960929058717028  0.24507245519702545  0.6157884757125701  1.0000
  H   H52       1.0  0.5953956688511042  0.055982226053807  0.4303661993698498  1.0000
  H   H53       1.0  0.4971788930655947  0.005865623344036  0.4279269334334117  1.0000
  H   H54       1.0  0.5335843704573265  0.9450880257005638  0.38000368997332157  1.0000
  H   H55       1.0  0.4227298174009206  0.3603312799897226  0.7324634879792598  1.0000
  H   H56       1.0  0.12355744194037042  0.6649471636351905  0.45595221217760706  1.0000
  H   H57       1.0  0.3828693610005871  0.30499143705640114  0.7786432923861  1.0000
  H   H58       1.0  0.3174203521751621  0.2883829204021069  0.6908504838680969  1.0000
  H   H59       1.0  0.6343210245473543  0.33222469570397806  0.2840448171867678  1.0000
  H   H60       1.0  0.6925116284075941  0.3427632141261086  0.37154159250477653  1.0000
  H   H61       1.0  0.5874359284794294  0.311151315594124  0.342886405920197  1.0000
  H   H62       1.0  0.9798217626008849  0.6101995973356509  0.3282826909975682  1.0000
  H   H63       1.0  0.9902054672687016  0.4705650413182454  0.24890715963360308  1.0000
  H   H64       1.0  0.891891702952151  0.3801479124853487  0.3022724730765205  1.0000
  C   C1        1.0  0.7173664945277454  0.6091259046136773  0.6286040188128511  1.0000
  C   C2        1.0  0.6256175567560476  0.776983825275032  0.5556774307130894  1.0000
  C   C3        1.0  0.4153181601183036  0.4429503665681267  0.2849238549007396  1.0000
  C   C4        1.0  0.5052790876980353  0.33704758289196235  0.5627540733168672  1.0000
  C   C5        1.0  0.3633168584155512  0.5834464564060866  0.48548928260810686  1.0000
  C   C6        1.0  0.4168467903452324  0.5154538619044403  0.28475637867014575  1.0000
  C   C7        1.0  0.2863547166346692  0.519874480847477  0.4254601351522067  1.0000
  C   C8        1.0  0.612140668938963  0.8297166286403127  0.6090830552945404  1.0000
  C   C9        1.0  0.26862120205230877  0.1742756750025194  0.2753040556453143  1.0000
  C   C10       1.0  0.023128842396481306  0.474154290784206  0.4082370123760625  1.0000
  C   C11       1.0  0.0188943233471051  0.5524461112779947  0.45296893580092507  1.0000
  C   C12       1.0  0.5760992883060184  0.33537011751475637  0.5612822044764628  1.0000
  C   C13       1.0  0.807098521238288  0.5164177063487685  0.3931826820791642  1.0000
  C   C14       1.0  0.21535690314006228  0.5242869398357755  0.39836548113045467  1.0000
  C   C15       1.0  0.944038816974576  0.4432759934160303  0.33672206760013523  1.0000
  C   C16       1.0  0.4341843217483188  0.5458416062624636  0.7064185570520678  1.0000
  C   C17       1.0  0.9384277501565707  0.5210935776738809  0.381595241074443  1.0000
  C   C18       1.0  0.997750371660061  0.4936604225728942  0.3070845746127517  1.0000
  C   C19       1.0  0.07820851277057973  0.5242985070343095  0.3781335713427794  1.0000
  C   C20       1.0  0.9930720710722696  0.5713453175326251  0.35116018139436994  1.0000
  C   C21       1.0  0.07154332107886327  0.6017634415090357  0.4221863719821854  1.0000
  C   C22       1.0  0.8669173695737841  0.5183646341774235  0.38548405005532516  1.0000
  C   C23       1.0  0.38261980216723407  0.4732859627424731  0.705934206147461  1.0000
  C   C24       1.0  0.1516503184773299  0.5254782574744042  0.3826903044474932  1.0000
  C   C25       1.0  0.7131405914150052  0.14278540305503643  0.6781216296695122  1.0000
  C   C26       1.0  0.687371366560207  0.14831965790362744  0.6025941563757798  1.0000
  C   C27       1.0  0.6083203512851156  0.29260884705905704  0.589788614966956  1.0000
  C   C28       1.0  0.6655586503309294  0.4403046925385112  0.3815401621895873  1.0000
  C   C29       1.0  0.6259658319265071  0.9099381220757224  0.6256835923257285  1.0000
  C   C30       1.0  0.6602375610839247  0.1786803468613769  0.7020086295609786  1.0000
  C   C31       1.0  0.6328427974149092  0.18448928463035238  0.6258288584768649  1.0000
  C   C32       1.0  0.5853595546556891  0.08895109919694025  0.6621170685750855  1.0000
  C   C33       1.0  0.6383052951547441  0.05146375711648691  0.6382795294316351  1.0000
  C   C34       1.0  0.7381352913718828  0.5124935906418742  0.4028448510370524  1.0000
  C   C35       1.0  0.557689708938284  0.0934091317782233  0.5865978370427313  1.0000
  C   C36       1.0  0.6111466309461021  0.05796065566591581  0.5626531665716712  1.0000
  C   C37       1.0  0.6245312494627484  0.24768593927311847  0.6121704786510307  1.0000
  C   C38       1.0  0.6359095436843419  0.9786784447115056  0.6379076905932592  1.0000
  C   C39       1.0  0.38706060421802857  0.5255131287808581  0.21809207761081956  1.0000
  C   C40       1.0  0.3558705427518376  0.41093897774555893  0.633110387184054  1.0000
  C   C41       1.0  0.3212149825249924  0.45782577321411105  0.14911982068814916  1.0000
  C   C42       1.0  0.30639843881018447  0.4614012557171422  0.08156454774350416  1.0000
  C   C43       1.0  0.35507276228638324  0.5347023314951045  0.08142511616632923  1.0000
  C   C44       1.0  0.41216265721379847  0.6061707837336314  0.15072288089068311  1.0000
  C   C45       1.0  0.4666722336776346  0.576873535909222  0.36078830520389715  1.0000
  C   C46       1.0  0.4288808120936667  0.6011248506845563  0.21781442255225156  1.0000
  C   C47       1.0  0.3446351743077614  0.5365252261559733  0.8775138183665303  1.0000
  C   C48       1.0  0.3558757106139083  0.532873734230506  0.8138175303089951  1.0000
  C   C49       1.0  0.33972079258907684  0.47325441404529306  0.8967876969015549  1.0000
  C   C50       1.0  0.3642869297797234  0.4686176664607303  0.7685816062511677  1.0000
  C   C51       1.0  0.35845512377476757  0.4044193208604981  0.7876896178098676  1.0000
  C   C52       1.0  0.7253934751942099  0.5779564008202984  0.43687905347208317  1.0000
  C   C53       1.0  0.34472993591574413  0.4074799636201547  0.8506171985499336  1.0000
  C   C54       1.0  0.798146061524271  0.6570938910850189  0.7697361470325959  1.0000
  C   C55       1.0  0.7951502804293896  0.6789603626850466  0.840256218546422  1.0000
  C   C56       1.0  0.29255977599441957  0.4478791289777817  0.4090192129477401  1.0000
  C   C57       1.0  0.8649155974305741  0.7345054715422634  0.9077298793792322  1.0000
  C   C58       1.0  0.9412870364969806  0.7702052302232334  0.9071771577015755  1.0000
  C   C59       1.0  0.9458087338517914  0.7431814403998872  0.8380484557122186  1.0000
  C   C60       1.0  0.8755285914208601  0.6872406938639983  0.7705806609840593  1.0000
  C   C61       1.0  0.13843147703759925  0.9919552396335332  0.07980301480819202  1.0000
  C   C62       1.0  0.20031244382518315  0.0680818798301743  0.14004798295972173  1.0000
  C   C63       1.0  0.07651945490106736  0.9383121494246468  0.09035722690936153  1.0000
  C   C64       1.0  0.5968323032818077  0.37591663728495933  0.518965619640923  1.0000
  C   C65       1.0  0.203638437981212  0.0933764533417971  0.2130023370323642  1.0000
  C   C66       1.0  0.1422874830445053  0.038621469236368  0.2232171535383927  1.0000
  C   C67       1.0  0.5779026164865968  0.7809282055040185  0.6415057840527112  1.0000
  C   C68       1.0  0.07920262293510646  0.962816887164564  0.16268199273967798  1.0000
  C   C69       1.0  0.6434184743707193  0.5873320502196862  0.6907631667805986  1.0000
  C   C70       1.0  0.7239268537295941  0.6150505170913476  0.6997135669584154  1.0000
  C   C71       1.0  0.5499448231037292  0.8030554585445274  0.7006373400853931  1.0000
  C   C72       1.0  0.13666951263299154  0.2098657638993515  0.310646110696986  1.0000
  C   C73       1.0  0.6618675159737393  0.8530440732188822  0.48970285277974307  1.0000
  C   C74       1.0  0.37980060660009235  0.3593293251685949  0.2204891515851202  1.0000
  C   C75       1.0  0.9895246644981698  0.3872684788867459  0.46314983453169833  1.0000
  C   C76       1.0  0.4552428007214431  0.29944480316603256  0.597100473982394  1.0000
  C   C77       1.0  0.7447395681340153  0.1831792079542893  0.5721987672885547  1.0000
  C   C78       1.0  0.3491727821016823  0.21862556497544017  0.2863523849003968  1.0000
  C   C79       1.0  0.5515273299145561  0.0010273833648853001  0.4300222500821107  1.0000
  C   C80       1.0  0.3709216924812537  0.3360070360614955  0.7451747401587099  1.0000
  C   C81       1.0  0.643589996801964  0.3520241867330541  0.3429892456282388  1.0000
  C   C82       1.0  0.2684976465716461  0.2266841131157165  0.3401538881017458  1.0000
  N   N1        1.0  0.6400659182513594  0.5822901199943191  0.5829415850464912  1.0000
  N   N2        1.0  0.33390527801900305  0.4707924624443933  0.9620471023660855  1.0000
  N   N3        1.0  0.013625307016937288  0.8372250456584424  0.9698544280067409  1.0000
  N   N4        1.0  0.48718061032715815  0.37617920282233536  0.5243343708440804  1.0000
  N   N5        1.0  0.007767202127439468  0.8633374759506864  0.031370973232903054  1.0000
  N   N6        1.0  0.43781154587811255  0.5278254837817828  0.639905566664794  1.0000
  N   N7        1.0  0.6148027612699424  0.46257277758443394  0.4016953520304583  1.0000
  N   N8        1.0  0.3885956326779834  0.4437274074957146  0.5938603232289381  1.0000
  N   N9        1.0  0.6515896876944537  0.5476686704135006  0.43578931652010783  1.0000
  N   N10       1.0  0.5423175606597469  0.3991426572930337  0.49663855292710934  1.0000
  N   N11       1.0  0.594358458966397  0.5687222817554412  0.620969432717608  1.0000
  N   N12       1.0  0.3663824310720117  0.46748561825304347  0.45678568000819547  1.0000
  N   N13       1.0  0.4925284244167544  0.5439066007768645  0.40264829100934196  1.0000
  N   N14       1.0  0.5729420094183765  0.7071603447133653  0.6105107922002374  1.0000
  N   N15       1.0  0.39301615742802193  0.28969829629834015  0.351773060406984  1.0000
  N   N16       1.0  0.34224888108587953  0.29493935433969654  0.3849483567748564  1.0000
  N   N17       1.0  0.602463429944372  0.7045692273461199  0.5570687674024626  1.0000
  N   N18       1.0  0.46072443290400866  0.4619545165438481  0.35617850096551246  1.0000
  N   N19       1.0  0.4095701380516489  0.5505662950568465  0.5035004263382135  1.0000
  N   N20       1.0  0.3559021047790623  0.5399946866090845  0.015626009936760023  1.0000
  O   O1        1.0  0.20868032828748542  0.2188758886394808  0.3631203445438729  1.0000
  O   O2        1.0  0.6565521303044051  0.7861579859115864  0.50649611618649  1.0000
  O   O3        1.0  0.043871857312645125  0.4262027208678917  0.4360457356804019  1.0000
  O   O4        1.0  0.5869910105170036  0.992158763462925  0.49453678885895874  1.0000
