data_image0
_chemical_formula_structural       Zr6H41C50N5O32
_chemical_formula_sum              "Zr6 H41 C50 N5 O32"
_cell_length_a       14.817675652175515
_cell_length_b       14.773927779783017
_cell_length_c       14.783028228436995
_cell_angle_alpha    59.50213519910038
_cell_angle_beta     59.87237382621756
_cell_angle_gamma    59.941589177059974

_space_group_name_H-M_alt    "P 1"
_space_group_IT_number       1

loop_
  _space_group_symop_operation_xyz
  'x, y, z'

loop_
  _atom_site_type_symbol
  _atom_site_label
  _atom_site_symmetry_multiplicity
  _atom_site_fract_x
  _atom_site_fract_y
  _atom_site_fract_z
  _atom_site_occupancy
  Zr  Zr1       1.0  0.8810472204375303  0.8779131892656196  0.6161249748624796  1.0000
  Zr  Zr2       1.0  0.12171549340623505  0.11573195939308788  0.37786636330347534  1.0000
  Zr  Zr3       1.0  0.11931863820270655  0.8755846398191239  0.6188509427473932  1.0000
  Zr  Zr4       1.0  0.8830428470788901  0.11891656182945111  0.3747116657152106  1.0000
  Zr  Zr5       1.0  0.12047969080565926  0.8789330783811952  0.3771643886164214  1.0000
  Zr  Zr6       1.0  0.8828364525209338  0.11720289246491  0.6144165743042507  1.0000
  H   H1        1.0  0.09419695930599672  0.71381212592091  0.5927742946740153  1.0000
  H   H2        1.0  0.09812940285223704  0.09301155244309467  0.2128127177981227  1.0000
  H   H3        1.0  0.0951414774251589  0.08992722352615354  0.5920360176493277  1.0000
  H   H4        1.0  0.7199566961690282  0.09321013242794154  0.5889754606509997  1.0000
  H   H5        1.0  0.851124237336542  0.5829301617054058  0.6390416524440357  1.0000
  H   H6        1.0  0.14024830518641115  0.594339651400361  0.347078828147275  1.0000
  H   H7        1.0  0.8581453181847112  0.41217470549663915  0.6331477464700017  1.0000
  H   H8        1.0  0.5903904235972705  0.8441894546323782  0.9212647894985297  1.0000
  H   H9        1.0  0.597247264414307  0.13711600619918618  0.9095714227589866  1.0000
  H   H10       1.0  0.4204182400474183  0.8500496508968355  0.09162243283832795  1.0000
  H   H11       1.0  0.14327061407229297  0.8463235068854544  0.08358920172042889  1.0000
  H   H12       1.0  0.8518083084926289  0.13535176960296275  0.09282552740440046  1.0000
  H   H13       1.0  0.1349349400125282  0.8516226816225795  0.9150867960627025  1.0000
  H   H14       1.0  0.5903093912143479  0.42122187266993194  0.6369481556289216  1.0000
  H   H15       1.0  0.5988866680571053  0.41451256325468944  0.3457261304230885  1.0000
  H   H16       1.0  0.4182805862254996  0.5892068060860751  0.6322418523340474  1.0000
  H   H17       1.0  0.07561620575091878  0.3244058657802286  0.9795678244699744  1.0000
  H   H18       1.0  0.16692538730488596  0.3485612295901817  0.0024434092670305844  1.0000
  H   H19       1.0  0.16387005603878896  0.5088016631607529  0.8439488051213289  1.0000
  H   H20       1.0  0.07219887182297673  0.48364636526186194  0.8226719068707382  1.0000
  H   H21       1.0  0.0878968490569747  0.6256656437617065  0.9621462124587411  1.0000
  H   H22       1.0  0.943916523966536  0.6814244240922349  0.023455353006824217  1.0000
  H   H23       1.0  0.09104670448601128  0.46398177929970075  0.12057243618244941  1.0000
  H   H24       1.0  0.9472406452127873  0.5216278422650903  0.18091094215183298  1.0000
  H   H25       1.0  0.8705838357972056  0.4056685944979607  0.06382232587436926  1.0000
  H   H26       1.0  0.8149199411769459  0.48441927921886946  0.14871271467291788  1.0000
  H   H27       1.0  0.8131117279154976  0.6473543005008939  0.992453730186725  1.0000
  H   H28       1.0  0.8638115968273468  0.568881169379893  0.9087139103407086  1.0000
  H   H29       1.0  0.582066669656605  0.1467462616131457  0.3470642341124235  1.0000
  H   H30       1.0  0.5966748223528812  0.8509625454062614  0.6361538217204769  1.0000
  H   H31       1.0  0.41222803551723797  0.13901082842369306  0.35610008330760223  1.0000
  H   H32       1.0  0.16416336472796184  0.3564879178866179  0.31275244828214716  1.0000
  H   H33       1.0  0.2125790605880909  0.4673448022073076  0.2567715532050344  1.0000
  H   H34       1.0  0.35973347286763874  0.160489558811399  0.1578412130179387  1.0000
  H   H35       1.0  0.469676439860102  0.2094576065384217  0.05408560933324221  1.0000
  H   H36       1.0  0.8242776864976308  0.1681279720222477  0.8472793485531939  1.0000
  H   H37       1.0  0.7772024375213534  0.22367506002496648  0.9495222413640078  1.0000
  H   H38       1.0  0.35959456499328024  0.6610414070520321  0.3116140213732379  1.0000
  H   H39       1.0  0.47141060418152875  0.5593269806461976  0.25574887552575376  1.0000
  H   H40       1.0  0.3575586191822213  0.8153790602560208  0.665269605416654  1.0000
  H   H41       1.0  0.4675436028379351  0.7611792511395877  0.7136990881073972  1.0000
  C   C1        1.0  0.9961525298835242  0.6978072384207367  0.49401696064828127  1.0000
  C   C2        1.0  0.31186032583664774  0.9943228838700265  0.19567925567271532  1.0000
  C   C3        1.0  0.00043836856313109364  0.3061571358653908  0.49108010895693616  1.0000
  C   C4        1.0  0.7015858416689867  0.9928455345113535  0.8035154883277188  1.0000
  C   C5        1.0  0.9940757202736633  0.6966488630295232  0.8093047819539908  1.0000
  C   C6        1.0  0.7006094306014958  0.998358686049734  0.4899957785222855  1.0000
  C   C7        1.0  0.9988063376765483  0.308803487475963  0.19392759832132359  1.0000
  C   C8        1.0  0.3092073431073817  0.9920747954833686  0.4974189628911817  1.0000
  C   C9        1.0  0.30944513448194066  0.6947278716041936  0.4923280807408262  1.0000
  C   C10       1.0  0.9938320989442961  0.9941584273828998  0.807411616619369  1.0000
  C   C11       1.0  0.7037754629546741  0.3072961402834764  0.49177588699743785  1.0000
  C   C12       1.0  0.00030357170007969206  0.9936983877038444  0.19517396270386914  1.0000
  C   C13       1.0  0.002018187813376862  0.4068557336039476  0.48795692833810733  1.0000
  C   C14       1.0  0.9961796807247085  0.5975490262434706  0.4924424287381657  1.0000
  C   C15       1.0  0.08391826972662396  0.4582993120386192  0.4042226210512966  1.0000
  C   C16       1.0  0.915112400069987  0.5472164494410592  0.5747387115187339  1.0000
  C   C17       1.0  0.0783360659380463  0.5538709020755662  0.40930409030050907  1.0000
  C   C18       1.0  0.9193739916999562  0.45338512731429154  0.571148993933406  1.0000
  C   C19       1.0  0.412631475226796  0.9959892613566054  0.09656643972240189  1.0000
  C   C20       1.0  0.6025483413550036  0.9913740602354438  0.9064441958697529  1.0000
  C   C21       1.0  0.46242341037419993  0.07942723073200149  0.04566502189394582  1.0000
  C   C22       1.0  0.554026007586785  0.9085990513334469  0.9569316131251357  1.0000
  C   C23       1.0  0.5577968856437893  0.07424285205914312  0.9504487046927181  1.0000
  C   C24       1.0  0.46055236167694585  0.9122805441481179  0.050476135335827746  1.0000
  C   C25       1.0  0.9896595331171198  0.9950074284032984  0.9090165902800537  1.0000
  C   C26       1.0  0.9972656277322048  0.9918059787419937  0.09672829641138504  1.0000
  C   C27       1.0  0.9067283260638846  0.0774117945268812  0.959133273906943  1.0000
  C   C28       1.0  0.07816916071193003  0.9096632241449641  0.04830850363455842  1.0000
  C   C29       1.0  0.91357971547901  0.07333533696099442  0.05297054030830148  1.0000
  C   C30       1.0  0.07313487907376279  0.9127286851521819  0.9558282117628921  1.0000
  C   C31       1.0  0.4113809890085634  0.5968761967591336  0.48755698509100404  1.0000
  C   C32       1.0  0.6035787317919129  0.4090970449189657  0.4905855094015906  1.0000
  C   C33       1.0  0.4625316421093334  0.548558258714479  0.4033778379835271  1.0000
  C   C34       1.0  0.5539182853506193  0.4573327527227917  0.5728949763307797  1.0000
  C   C35       1.0  0.5587709600198353  0.4542128426138562  0.4078742847875746  1.0000
  C   C36       1.0  0.4593348103333954  0.5496382419851712  0.5699889112311142  1.0000
  C   C37       1.0  0.0871038169634915  0.3867734729539976  0.9891384082911542  1.0000
  C   C38       1.0  0.0849990299294348  0.49309285870307207  0.8842203461297727  1.0000
  C   C39       1.0  0.9906214808374406  0.5953610212080562  0.9158722401507688  1.0000
  C   C40       1.0  0.01009324149875124  0.608408889463142  0.001221113226606051  1.0000
  C   C41       1.0  0.011951888664228154  0.5018364191661677  0.10615146683027633  1.0000
  C   C42       1.0  0.9935905083699482  0.41579275600631155  0.09297847046158127  1.0000
  C   C43       1.0  0.8823926205224313  0.4673642720894549  0.0738102266795979  1.0000
  C   C44       1.0  0.8799434134503132  0.5746452736038564  0.9701122105736959  1.0000
  C   C45       1.0  0.40844017496093715  0.9912074554439843  0.4994811724192659  1.0000
  C   C46       1.0  0.59921448557936  0.9976670912174799  0.49156230142998697  1.0000
  C   C47       1.0  0.45994380602460444  0.9078258128983022  0.5816606479081158  1.0000
  C   C48       1.0  0.5477248267310345  0.08073323219821296  0.411354095834767  1.0000
  C   C49       1.0  0.5555895555503129  0.9136946311186523  0.5747078633530408  1.0000
  C   C50       1.0  0.4541352853204614  0.07606852974313236  0.41664671966147904  1.0000
  N   N1        1.0  0.16790515129338257  0.4182860102997239  0.32149871133124464  1.0000
  N   N2        1.0  0.42063212816643875  0.1652196453939965  0.08268346880686293  1.0000
  N   N3        1.0  0.8204594381278557  0.1583883099020298  0.9221242596420467  1.0000
  N   N4        1.0  0.422002335197064  0.58713960746946  0.320742562728512  1.0000
  N   N5        1.0  0.4200871410578061  0.8245480225326958  0.6669800630644293  1.0000
  O   O1        1.0  0.9203613524215657  0.7352321428192852  0.5725175823418454  1.0000
  O   O2        1.0  0.269288425498914  0.07127391358051939  0.23730601210207425  1.0000
  O   O3        1.0  0.0772549868726387  0.2636813589848472  0.41500946145752954  1.0000
  O   O4        1.0  0.738587547750825  0.9176652605117114  0.7628239976005704  1.0000
  O   O5        1.0  0.07403202317049566  0.7330944403645816  0.7673256293305716  1.0000
  O   O6        1.0  0.7390451251151973  0.07697997633407283  0.41333692343573614  1.0000
  O   O7        1.0  0.925060114178507  0.2653791995427213  0.23279949595043808  1.0000
  O   O8        1.0  0.26701315750346316  0.9147949260475701  0.5745050631747334  1.0000
  O   O9        1.0  0.26602827127921813  0.7363515052190479  0.41674944169454897  1.0000
  O   O10       1.0  0.9196624167598844  0.07299535372773398  0.7625997267437302  1.0000
  O   O11       1.0  0.7415402562220096  0.2657496242773973  0.57069565031496  1.0000
  O   O12       1.0  0.07882721056574836  0.918196187398742  0.23317183236905945  1.0000
  O   O13       1.0  0.07091718803669514  0.9175015581747561  0.7677384487313433  1.0000
  O   O14       1.0  0.7434949257784214  0.26777847187965886  0.4150116519086567  1.0000
  O   O15       1.0  0.9248802167646704  0.07165365026396141  0.23358371557168317  1.0000
  O   O16       1.0  0.268483778541466  0.7324568010984436  0.5709192107100378  1.0000
  O   O17       1.0  0.9199611494404463  0.7360828477892628  0.766560833373902  1.0000
  O   O18       1.0  0.2691898189573223  0.06967231798571308  0.4200627403985493  1.0000
  O   O19       1.0  0.07776290660876133  0.2676192866127067  0.23116551683117595  1.0000
  O   O20       1.0  0.7409686462479076  0.920667651482518  0.5668020857171429  1.0000
  O   O21       1.0  0.7411644977378701  0.0703845882656041  0.7624236994496912  1.0000
  O   O22       1.0  0.07314100036395384  0.7379807572668753  0.4176089075185986  1.0000
  O   O23       1.0  0.2707077874163063  0.9184674907183494  0.2346596800427534  1.0000
  O   O24       1.0  0.9244300006317943  0.2650863376527397  0.5690766590863349  1.0000
  O   O25       1.0  0.8001055884901619  0.06604086229366168  0.5621607570630758  1.0000
  O   O26       1.0  0.06885292672615867  0.0633527399599743  0.564766788113019  1.0000
  O   O27       1.0  0.0706094323527893  0.06556425668102857  0.2934880626280645  1.0000
  O   O28       1.0  0.067518201589735  0.7944933217371217  0.5654821412119447  1.0000
  O   O29       1.0  0.15022715346128038  0.9465603621218007  0.4485632324203551  1.0000
  O   O30       1.0  0.9519656498323456  0.9488815242134411  0.44613864497724637  1.0000
  O   O31       1.0  0.9531278080308642  0.1473834385139981  0.4451586663377755  1.0000
  O   O32       1.0  0.9513213595577101  0.9469537488740157  0.645992393693192  1.0000
