data_image0
_chemical_formula_structural       Al4H40C76Br4O28
_chemical_formula_sum              "Al4 H40 C76 Br4 O28"
_cell_length_a       6.696809375923413
_cell_length_b       24.97763360251297
_cell_length_c       27.05423562886606
_cell_angle_alpha    95.78729577473642
_cell_angle_beta     90.00069341979898
_cell_angle_gamma    89.99780778747925

_space_group_name_H-M_alt    "P 1"
_space_group_IT_number       1

loop_
  _space_group_symop_operation_xyz
  'x, y, z'

loop_
  _atom_site_type_symbol
  _atom_site_label
  _atom_site_symmetry_multiplicity
  _atom_site_fract_x
  _atom_site_fract_y
  _atom_site_fract_z
  _atom_site_occupancy
  Al  Al1       1.0  0.22382513698053688  0.7499048195261295  0.7488729218166766  1.0000
  Al  Al2       1.0  0.7818761410988129  0.2489781840055584  0.2510243416969402  1.0000
  Al  Al3       1.0  0.7238230191135384  0.7501057277366313  0.7511183061741278  1.0000
  Al  Al4       1.0  0.28187814649167814  0.25102662932125946  0.24897365906203112  1.0000
  H   H1        1.0  0.7428531058316423  0.38156111293839245  0.0463335924519512  1.0000
  H   H2        1.0  0.2594330755333587  0.6174637878447768  0.9527797359985328  1.0000
  H   H3        1.0  0.242826688008236  0.11844022199367998  0.4536532497693244  1.0000
  H   H4        1.0  0.7593847926469762  0.8825649520660118  0.547217497259446  1.0000
  H   H5        1.0  0.3054793916855303  0.4458221610201818  0.1030974574237504  1.0000
  H   H6        1.0  0.7012447937057686  0.551163967334439  0.8949980852104246  1.0000
  H   H7        1.0  0.8054734923089197  0.05417709521505999  0.3969038716413208  1.0000
  H   H8        1.0  0.20115046915682197  0.9488438317540471  0.604990902408943  1.0000
  H   H9        1.0  0.3074414887565666  0.37805856714233943  0.1639119496811361  1.0000
  H   H10       1.0  0.700138330803419  0.6183181166449357  0.8334087840282007  1.0000
  H   H11       1.0  0.807446104813408  0.1219397060199654  0.3360878909655938  1.0000
  H   H12       1.0  0.20007230955674515  0.8816904190472169  0.6665794629843731  1.0000
  H   H13       1.0  0.3311771238277003  0.46576216234875994  0.024842952587000897  1.0000
  H   H14       1.0  0.672218559456816  0.5330544833334585  0.9744594969218311  1.0000
  H   H15       1.0  0.8311315595421501  0.034245919480753194  0.4751654647334078  1.0000
  H   H16       1.0  0.1721595218659857  0.9669681452441736  0.5255299050202566  1.0000
  H   H17       1.0  0.3141282621331669  0.5328025913328459  0.9645160619686451  1.0000
  H   H18       1.0  0.6891658800723377  0.4660876050560033  0.0348839266648682  1.0000
  H   H19       1.0  0.8140610944523201  0.9672145516548553  0.5354993406869042  1.0000
  H   H20       1.0  0.18914636533994408  0.03392819282139929  0.4651044393319239  1.0000
  H   H21       1.0  0.7167363182446563  0.5901717246387577  0.5351131395543334  1.0000
  H   H22       1.0  0.30430922310114983  0.46479821337057087  0.41655363764571257  1.0000
  H   H23       1.0  0.21679018988601226  0.9098131049288938  0.9649028891450512  1.0000
  H   H24       1.0  0.8043171802989658  0.03519544243449249  0.08345138740315149  1.0000
  H   H25       1.0  0.6984906763436455  0.6622797344836328  0.6059351191202538  1.0000
  H   H26       1.0  0.3109568170413438  0.39273676793587237  0.34612288386610157  1.0000
  H   H27       1.0  0.1985079882011576  0.8377149975511387  0.8940738819043546  1.0000
  H   H28       1.0  0.8109774152506688  0.1072685597156706  0.1538721515740704  1.0000
  H   H29       1.0  0.26420232692861123  0.5320690795308565  0.5950866334068292  1.0000
  H   H30       1.0  0.741237314460143  0.4034963820475568  0.46432414085766976  1.0000
  H   H31       1.0  0.7641499333599667  0.9679378240648331  0.9049053316283773  1.0000
  H   H32       1.0  0.24123946197266827  0.09650267121853771  0.0356712359611606  1.0000
  H   H33       1.0  0.291533976955499  0.6000516749972888  0.747657317663112  1.0000
  H   H34       1.0  0.6648383627553044  0.24523486807510858  0.4030046233730076  1.0000
  H   H35       1.0  0.7913054240493549  0.8999625919201576  0.752324275654388  1.0000
  H   H36       1.0  0.16486715422565362  0.2547759232586557  0.09699783620265381  1.0000
  H   H37       1.0  0.4823849582390236  0.6852868279934512  0.7206488529771916  1.0000
  H   H38       1.0  0.5337344117826885  0.3161047733024062  0.2748475554207701  1.0000
  H   H39       1.0  0.9823616846881363  0.8147309637378796  0.7793286938000603  1.0000
  H   H40       1.0  0.033750711428027096  0.18389025042418436  0.2251678339173822  1.0000
  C   C1        1.0  0.46862148123604186  0.8167959825315164  0.8203810225870996  1.0000
  C   C2        1.0  0.5330793294145549  0.18277881513772337  0.17904528192726588  1.0000
  C   C3        1.0  0.9686210202588299  0.6832126537908749  0.6796143200584837  1.0000
  C   C4        1.0  0.0330708284586123  0.3172253139109245  0.3209500809306363  1.0000
  C   C5        1.0  0.47720724727665936  0.8125967881927992  0.6867740197487748  1.0000
  C   C6        1.0  0.5272619787087364  0.1899437305803886  0.3150260075560851  1.0000
  C   C7        1.0  0.9772120902207035  0.6874151239513822  0.8132116782839134  1.0000
  C   C8        1.0  0.027233375362179398  0.3100593894244028  0.1849704654374591  1.0000
  C   C9        1.0  0.8638105105538469  0.34581935193135377  0.10841676576819029  1.0000
  C   C10       1.0  0.13982709487185468  0.6519485605647048  0.8898405891265497  1.0000
  C   C11       1.0  0.363780006386797  0.1541872383478022  0.39157011063579006  1.0000
  C   C12       1.0  0.639803735654411  0.8480651854589424  0.610151751069445  1.0000
  C   C13       1.0  0.86473897393752  0.38277726845847576  0.0730790013456541  1.0000
  C   C14       1.0  0.13862087096544679  0.6156836842179345  0.9257172210859395  1.0000
  C   C15       1.0  0.3647046641010973  0.1172333932831364  0.42690863091892345  1.0000
  C   C16       1.0  0.6385864171313639  0.8843381964395646  0.5742799729145602  1.0000
  C   C17       1.0  0.020263105610972297  0.4201026361795854  0.0708020465055554  1.0000
  C   C18       1.0  0.9834625958210166  0.578206453125631  0.9280612872461447  1.0000
  C   C19       1.0  0.5202360307855116  0.07990398210612427  0.4291925796185936  1.0000
  C   C20       1.0  0.4833969945499204  0.9218082357113673  0.5719363051404401  1.0000
  C   C21       1.0  0.18189520657070796  0.4175000375025775  0.1037138470386765  1.0000
  C   C22       1.0  0.8236702022874454  0.5798772824111181  0.8945147836666719  1.0000
  C   C23       1.0  0.6818922126899025  0.0825000521875978  0.3962841242585355  1.0000
  C   C24       1.0  0.3236028685742908  0.9201329410733903  0.6054779433018709  1.0000
  C   C25       1.0  0.18256451469135726  0.3801105131501358  0.1383382764086463  1.0000
  C   C26       1.0  0.8236579303365871  0.6168220083576726  0.8594503237940002  1.0000
  C   C27       1.0  0.6825653348819499  0.11988904980996297  0.36165857912765625  1.0000
  C   C28       1.0  0.3236181268852504  0.8831891813584178  0.6405401778765237  1.0000
  C   C29       1.0  0.021949793728133195  0.34449386281442435  0.1426822003210759  1.0000
  C   C30       1.0  0.9829167702895416  0.6527602492807887  0.855255236753635  1.0000
  C   C31       1.0  0.521946483084143  0.15550748802333197  0.357312037916401  1.0000
  C   C32       1.0  0.4828855999681706  0.8472513461120671  0.6447319466742272  1.0000
  C   C33       1.0  0.18590076769670819  0.48095217330480716  0.014548236513704198  1.0000
  C   C34       1.0  0.8174411582181588  0.5179395939895741  0.9848476717726697  1.0000
  C   C35       1.0  0.6858576111856107  0.019066175808056595  0.4854639063796212  1.0000
  C   C36       1.0  0.31738419344431884  0.9820793158286064  0.5151469388709913  1.0000
  C   C37       1.0  0.1761967629688286  0.5188955850543165  0.9804184382436957  1.0000
  C   C38       1.0  0.8271347103470884  0.4800149380549357  0.0190072412184819  1.0000
  C   C39       1.0  0.6761373470308243  0.9811211780639154  0.519591743741401  1.0000
  C   C40       1.0  0.32709101863490275  0.01999327706580799  0.48098297759884184  1.0000
  C   C41       1.0  0.9919253789518903  0.5382909856197527  0.9646925074156414  1.0000
  C   C42       1.0  0.011424015022399196  0.4605005860081802  0.0346113479953871  1.0000
  C   C43       1.0  0.49185868895209944  0.9617253533640093  0.5353065770164919  1.0000
  C   C44       1.0  0.5113875935731186  0.03951506589569222  0.4653881336866377  1.0000
  C   C45       1.0  0.8321100842864549  0.593515512337312  0.5636272052452327  1.0000
  C   C46       1.0  0.18242714684537725  0.43591395398134825  0.41131208886653065  1.0000
  C   C47       1.0  0.33213375643303067  0.9064762632954385  0.9363814343053106  1.0000
  C   C48       1.0  0.6824428776396515  0.06408652081471188  0.08868959768004459  1.0000
  C   C49       1.0  0.8217209207596026  0.6336772555855816  0.6029841320147327  1.0000
  C   C50       1.0  0.18612954648785518  0.395709745127803  0.3719620831783601  1.0000
  C   C51       1.0  0.3217294354108872  0.8663173478267083  0.8970196868866651  1.0000
  C   C52       1.0  0.686145496412621  0.1042961406717779  0.12803442157058947  1.0000
  C   C53       1.0  0.9705601255737617  0.638021144784517  0.6393801460615407  1.0000
  C   C54       1.0  0.031835441089342  0.35784903138770835  0.3652164578324246  1.0000
  C   C55       1.0  0.4705409303777301  0.8619793700196327  0.860618142214534  1.0000
  C   C56       1.0  0.5318374175092088  0.1421579170289533  0.1347789138050501  1.0000
  C   C57       1.0  0.1286028582895185  0.6006167174968623  0.6367457751096026  1.0000
  C   C58       1.0  0.8725100815648188  0.36051770358819374  0.39939999987571895  1.0000
  C   C59       1.0  0.6285560772779135  0.8993888800217178  0.8632476517544276  1.0000
  C   C60       1.0  0.37251560411081636  0.1394894412528558  0.10059319326114038  1.0000
  C   C61       1.0  0.14153200038432348  0.5608765819193593  0.5970098799751895  1.0000
  C   C62       1.0  0.8656299867645457  0.4015256974390482  0.4382363206876079  1.0000
  C   C63       1.0  0.6415064239139667  0.9391240350766026  0.90298724688094  1.0000
  C   C64       1.0  0.3656428813916717  0.09847676052409328  0.061760941904793795  1.0000
  C   C65       1.0  0.993143796872104  0.5569427645284718  0.5597955730487952  1.0000
  C   C66       1.0  0.020558599923738492  0.439788187557397  0.44477516940408174  1.0000
  C   C67       1.0  0.49315042297310885  0.9430535167216758  0.9402108757256755  1.0000
  C   C68       1.0  0.5205721811948648  0.060212519990408  0.0552279800633002  1.0000
  C   C69       1.0  0.004675198391979099  0.5161631419099137  0.5194850974283013  1.0000
  C   C70       1.0  0.012924451419927197  0.4809726301446346  0.484816855379826  1.0000
  C   C71       1.0  0.5046866297679812  0.9838304742968731  0.9805238720348939  1.0000
  C   C72       1.0  0.5129393578214233  0.019027539688465798  0.015184062907096098  1.0000
  C   C73       1.0  0.27898640647708106  0.6021811732078459  0.6777464230530441  1.0000
  C   C74       1.0  0.7087700197175693  0.319502520245443  0.3969595859664139  1.0000
  C   C75       1.0  0.7788739350463132  0.8978306158723015  0.8222329322172826  1.0000
  C   C76       1.0  0.20876687547395525  0.18050566008069774  0.1030272730813451  1.0000
  Br  Br1       1.0  0.6471068074274553  0.2965261319415545  0.10455248594265498  1.0000
  Br  Br2       1.0  0.3590678207675352  0.7008440995810401  0.8929868136391474  1.0000
  Br  Br3       1.0  0.14704894423076098  0.20347380280932006  0.3954283956715088  1.0000
  Br  Br4       1.0  0.8590464482773894  0.7991689038291269  0.607010012624798  1.0000
  O   O1        1.0  0.644173162872512  0.8009869353423227  0.7053495887914635  1.0000
  O   O2        1.0  0.3613218847976895  0.20250855536637147  0.2967361044345722  1.0000
  O   O3        1.0  0.14419167745275266  0.6990312776689862  0.7946438804139646  1.0000
  O   O4        1.0  0.8613185137613043  0.297500814073409  0.20325783694263325  1.0000
  O   O5        1.0  0.3010763275405423  0.799354044559486  0.8040662978061305  1.0000
  O   O6        1.0  0.7004471600034847  0.19575689912622346  0.1988974706203948  1.0000
  O   O7        1.0  0.8010976542722401  0.700659162746355  0.6959216072524441  1.0000
  O   O8        1.0  0.2004594280517864  0.3042487636534403  0.3010986640944537  1.0000
  O   O9        1.0  0.30528933659689256  0.799428418788956  0.7016800601392317  1.0000
  O   O10       1.0  0.7003043512132406  0.20214108197712474  0.29996312438907313  1.0000
  O   O11       1.0  0.8053050732006495  0.7005791359688799  0.7983041136193733  1.0000
  O   O12       1.0  0.20029462792276578  0.2978654060954113  0.20004081221555484  1.0000
  O   O13       1.0  0.13900466151350338  0.7011208020978758  0.6943791383223542  1.0000
  O   O14       1.0  0.8633710549192201  0.2994871694537622  0.3053757909719863  1.0000
  O   O15       1.0  0.6389761300736791  0.7988839783717693  0.8056154016345757  1.0000
  O   O16       1.0  0.3633608445119662  0.2005190873768825  0.19461925499475544  1.0000
  O   O17       1.0  0.4741832953102047  0.7167474585573359  0.7450610620269342  1.0000
  O   O18       1.0  0.5332380967686845  0.28283029316943237  0.25297846431504917  1.0000
  O   O19       1.0  0.9741734540142915  0.7832606359442238  0.7549298229633408  1.0000
  O   O20       1.0  0.033245055705037885  0.21717402133086944  0.24702247007735417  1.0000
  O   O21       1.0  0.4583503666025806  0.6094467649176707  0.6732373925599974  1.0000
  O   O22       1.0  0.19107654451255474  0.5931484683029778  0.7213729387900331  1.0000
  O   O23       1.0  0.5330557180749053  0.3291399935724328  0.3901691607192602  1.0000
  O   O24       1.0  0.777271301176327  0.27058801005417615  0.40693729802145373  1.0000
  O   O25       1.0  0.9582464808226303  0.8905653230614732  0.8267249054290033  1.0000
  O   O26       1.0  0.6908806272316922  0.9068579860740795  0.7786134433161465  1.0000
  O   O27       1.0  0.0330451614705041  0.17086987176309518  0.1098046794671532  1.0000
  O   O28       1.0  0.2772995084969665  0.2294220210189764  0.09306406120600738  1.0000
