data_image0
_chemical_formula_structural       Hg2H22C26Br4N4O2
_chemical_formula_sum              "Hg2 H22 C26 Br4 N4 O2"
_cell_length_a       9.737322788398098
_cell_length_b       10.026335289847603
_cell_length_c       10.682868833970208
_cell_angle_alpha    71.90082086582387
_cell_angle_beta     86.42537196387575
_cell_angle_gamma    64.35800729527611

_space_group_name_H-M_alt    "P 1"
_space_group_IT_number       1

loop_
  _space_group_symop_operation_xyz
  'x, y, z'

loop_
  _atom_site_type_symbol
  _atom_site_label
  _atom_site_symmetry_multiplicity
  _atom_site_fract_x
  _atom_site_fract_y
  _atom_site_fract_z
  _atom_site_occupancy
  Hg  Hg1       1.0  0.8251408226502548  0.56988158093408  0.6201074704409777  1.0000
  Hg  Hg2       1.0  0.17486772003965706  0.430104017310505  0.3798844164097376  1.0000
  H   H1        1.0  0.5451162472968961  0.4608581630635839  0.2498064143890488  1.0000
  H   H2        1.0  0.45487752398339154  0.5391681988716714  0.7501657599367347  1.0000
  H   H3        1.0  0.7467126450520778  0.41209797159161354  0.4173767756908758  1.0000
  H   H4        1.0  0.2532903787062253  0.5879027200150515  0.5826034447055548  1.0000
  H   H5        1.0  0.4948765635807888  0.8431295361298297  0.4688549480557426  1.0000
  H   H6        1.0  0.5051382735569305  0.15686692046671877  0.5311493923572285  1.0000
  H   H7        1.0  0.28492271990418067  0.9109912460794332  0.3067322522791898  1.0000
  H   H8        1.0  0.7150859000778026  0.08901687734043409  0.6932717549342087  1.0000
  H   H9        1.0  0.9972215017836984  0.8399576924400448  0.05516363053722981  1.0000
  H   H10       1.0  0.0027708033275217862  0.16003839820002244  0.9448455647752779  1.0000
  H   H11       1.0  0.9421401085306302  0.8044480055791892  0.8567141663982554  1.0000
  H   H12       1.0  0.057847294234243  0.19555257544653407  0.1432826970210357  1.0000
  H   H13       1.0  0.9990535733237635  0.7987847184753107  0.6292386850211072  1.0000
  H   H14       1.0  0.0009506130587340004  0.20121268074399268  0.3707621084634524  1.0000
  H   H15       1.0  0.2046895594264698  0.8674964059915949  0.5235821010323463  1.0000
  H   H16       1.0  0.7953267011518365  0.13249427232835836  0.4764304225007479  1.0000
  H   H17       1.0  0.35708279585470837  0.9372969268975169  0.6498231845334033  1.0000
  H   H18       1.0  0.6429246143595008  0.0626854784312343  0.3502024551651104  1.0000
  H   H19       1.0  0.2911141544576525  0.9563555522380723  0.8729538035056662  1.0000
  H   H20       1.0  0.7088785968915161  0.0436323726433656  0.12706244558735588  1.0000
  H   H21       1.0  0.19673903258876618  0.9537879770295062  0.12437326812189299  1.0000
  H   H22       1.0  0.8032425979310814  0.04622783363833351  0.8756250069390886  1.0000
  C   C1        1.0  0.531311823126721  0.5484572727954031  0.2957479136430336  1.0000
  C   C2        1.0  0.4686905178468093  0.45156343969305374  0.7042320879799177  1.0000
  C   C3        1.0  0.6424617698310157  0.5211880198313208  0.38845046113581827  1.0000
  C   C4        1.0  0.3575452713007224  0.47882216329773536  0.6115286717207978  1.0000
  C   C5        1.0  0.5021226123616883  0.7621729516511024  0.4172642716021073  1.0000
  C   C6        1.0  0.49788813678797783  0.23783047042172714  0.5827372736046641  1.0000
  C   C7        1.0  0.3857765350574028  0.7993965748970876  0.325096773977421  1.0000
  C   C8        1.0  0.6142348068413739  0.2006150216043352  0.6748967324672889  1.0000
  C   C9        1.0  0.4000543758944773  0.690833100643715  0.2626219756713509  1.0000
  C   C10       1.0  0.5999477342745505  0.30918069929718683  0.7373731684314605  1.0000
  C   C11       1.0  0.2779948775549741  0.7176641937377681  0.16577283009913657  1.0000
  C   C12       1.0  0.7219952502828589  0.28234600642041835  0.8342370088578619  1.0000
  C   C13       1.0  0.056609859878179104  0.9129780517105105  0.009355725802777186  1.0000
  C   C14       1.0  0.9433717944778123  0.0870189815523119  0.9906499225813262  1.0000
  C   C15       1.0  0.10805871621689528  0.8878911309354578  0.878085998959648  1.0000
  C   C16       1.0  0.8919311489756082  0.1121036804836422  0.12191806259819762  1.0000
  C   C17       1.0  0.02972901754817777  0.8393390429732149  0.8099195141292767  1.0000
  C   C18       1.0  0.9702638922302212  0.1606558333929371  0.19008532908273412  1.0000
  C   C19       1.0  0.06378660148386221  0.8327640765276241  0.6825327827620526  1.0000
  C   C20       1.0  0.9362149609538902  0.167227451329488  0.31747452887059774  1.0000
  C   C21       1.0  0.18006000584081505  0.870189136160846  0.6239107189905367  1.0000
  C   C22       1.0  0.8199424826060026  0.1298094978652671  0.3760982140252267  1.0000
  C   C23       1.0  0.2637467677911117  0.9114119985965274  0.6937110686149807  1.0000
  C   C24       1.0  0.7362567459640416  0.08857961474053158  0.30630081210253474  1.0000
  C   C25       1.0  0.22703358550351987  0.9213285102622917  0.8199007937714525  1.0000
  C   C26       1.0  0.7729618078842008  0.07866527624705812  0.18010800302376137  1.0000
  Br  Br1       1.0  0.008273516763622948  0.3002485092416621  0.618308010524153  1.0000
  Br  Br2       1.0  0.9917193249863204  0.699737910401538  0.3816777811082658  1.0000
  Br  Br3       1.0  0.6905996060079995  0.8081461301938972  0.689864695557624  1.0000
  Br  Br4       1.0  0.3094183599406576  0.1918395071432499  0.31011458986017704  1.0000
  N   N1        1.0  0.6276111092596037  0.6257919647376652  0.44835117618911363  1.0000
  N   N2        1.0  0.372395274250735  0.3742077332907526  0.5516404201563745  1.0000
  N   N3        1.0  0.18405478828005076  0.8687278118073748  0.10144226587214428  1.0000
  N   N4        1.0  0.8159288310720569  0.13127633629441957  0.8985640189135111  1.0000
  O   O1        1.0  0.26551419854261143  0.6068998794629079  0.14748088638776843  1.0000
  O   O2        1.0  0.7344831417474038  0.3931010316197002  0.852529480958708  1.0000
