data_image0
_chemical_formula_structural       Zn2H24C28N4O12
_chemical_formula_sum              "Zn2 H24 C28 N4 O12"
_cell_length_a       4.8846342665795035
_cell_length_b       11.413619015944272
_cell_length_c       12.161884109703212
_cell_angle_alpha    91.93315145035822
_cell_angle_beta     90.05433570591335
_cell_angle_gamma    102.39143461225558

_space_group_name_H-M_alt    "P 1"
_space_group_IT_number       1

loop_
  _space_group_symop_operation_xyz
  'x, y, z'

loop_
  _atom_site_type_symbol
  _atom_site_label
  _atom_site_symmetry_multiplicity
  _atom_site_fract_x
  _atom_site_fract_y
  _atom_site_fract_z
  _atom_site_occupancy
  Zn  Zn1       1.0  0.9390820403121437  4.3987996853899764e-05  0.24988105783458545  1.0000
  Zn  Zn2       1.0  0.06092231226875803  0.999957919835431  0.7501174655079624  1.0000
  H   H1        1.0  0.4381347680047085  0.10392503272102968  0.3144726807862739  1.0000
  H   H2        1.0  0.33392537601213224  0.8960260202080617  0.18548634038925377  1.0000
  H   H3        1.0  0.5618650479639556  0.8960759902142572  0.6855266478077697  1.0000
  H   H4        1.0  0.6660769367480839  0.1039759005055387  0.8145130051245318  1.0000
  H   H5        1.0  0.8436179771348903  0.6686767345634833  0.6036319057107988  1.0000
  H   H6        1.0  0.17382766656004384  0.3312578010373457  0.8963311995377838  1.0000
  H   H7        1.0  0.15639002836158514  0.3313242895298387  0.3963674244872665  1.0000
  H   H8        1.0  0.826169909921916  0.6687387476247649  0.10366886903480582  1.0000
  H   H9        1.0  0.2704371811861606  0.8195695655255618  0.5606724448313545  1.0000
  H   H10       1.0  0.45028002480474777  0.18063120102821978  0.9391493731687462  1.0000
  H   H11       1.0  0.7295607946278438  0.1804359574455461  0.4393277881266258  1.0000
  H   H12       1.0  0.5497159915112063  0.8193663106873215  0.06085482438280821  1.0000
  H   H13       1.0  0.24296770303195106  0.6792899941973617  0.22641953338317936  1.0000
  H   H14       1.0  0.5635528416352784  0.3203200371424799  0.27362789370334895  1.0000
  H   H15       1.0  0.7570427992560694  0.3207119276742674  0.773579813734635  1.0000
  H   H16       1.0  0.436446540046333  0.6796801146456629  0.726373063516448  1.0000
  H   H17       1.0  0.8109250323151046  0.5295212126583594  0.26868971646587886  1.0000
  H   H18       1.0  0.281062910267508  0.4699470601097672  0.2314135780472739  1.0000
  H   H19       1.0  0.18908821650803986  0.470478017325881  0.7313095818977331  1.0000
  H   H20       1.0  0.7189389303993037  0.5300539236025513  0.7685832832310312  1.0000
  H   H21       1.0  0.2711616223211236  0.08089121782091982  0.4319604962029332  1.0000
  H   H22       1.0  0.1898312007838641  0.918974117899914  0.06796479347081431  1.0000
  H   H23       1.0  0.7288406904390924  0.9191107028926807  0.5680388493108596  1.0000
  H   H24       1.0  0.810164512859629  0.08102689128553921  0.9320337117489647  1.0000
  C   C1        1.0  0.5423498373933597  0.8513407171729311  0.36494094751692785  1.0000
  C   C2        1.0  0.6912574043537987  0.1488221588721572  0.13507250759629133  1.0000
  C   C3        1.0  0.4576508698332233  0.1486620875691358  0.6350575915423493  1.0000
  C   C4        1.0  0.30873449451444657  0.8511753127518913  0.8649292214365119  1.0000
  C   C5        1.0  0.28711763466761664  0.7594390280059431  0.39112957274271315  1.0000
  C   C6        1.0  0.527247287005423  0.24045209982855906  0.10881185781968133  1.0000
  C   C7        1.0  0.7128830649976975  0.24056376356529796  0.6088681437443172  1.0000
  C   C8        1.0  0.47273963340226294  0.7595436025805211  0.8911914825181171  1.0000
  C   C9        1.0  0.9322581547997758  0.6707970632524222  0.5215231469907595  1.0000
  C   C10       1.0  0.26054221292889673  0.3290407732889236  0.9784506988214121  1.0000
  C   C11       1.0  0.0677428248541929  0.3292021913364279  0.4784777941112993  1.0000
  C   C12       1.0  0.7394537655807129  0.6709566725724869  0.021549385868908606  1.0000
  C   C13       1.0  0.7995212080988453  0.5893504252275719  0.4384747904074331  1.0000
  C   C14       1.0  0.20949332913551205  0.41037779949235204  0.06154650651524922  1.0000
  C   C15       1.0  0.20048522210908706  0.41065153557752143  0.5615270236251108  1.0000
  C   C16       1.0  0.7904976482297315  0.5896178376416118  0.9384527217633265  1.0000
  C   C17       1.0  0.17302322459482872  0.7547089957345817  0.4973382754480441  1.0000
  C   C18       1.0  0.41759523282824773  0.24528862933586026  0.002613667257350002  1.0000
  C   C19       1.0  0.8269799869845755  0.24529471995662527  0.502661103103229  1.0000
  C   C20       1.0  0.5823994125751142  0.7547061504007998  0.9973880130212437  1.0000
  C   C21       1.0  0.155302682927946  0.6774196864732571  0.30883814244115376  1.0000
  C   C22       1.0  0.477417498376539  0.3222144800842273  0.1911917596404181  1.0000
  C   C23       1.0  0.8447016923367627  0.3225822608714992  0.6911628486181343  1.0000
  C   C24       1.0  0.5225735016725181  0.6777811965622219  0.808809936354898  1.0000
  C   C25       1.0  0.9139444900963982  0.5932527825393379  0.3324006615812465  1.0000
  C   C26       1.0  0.3200966961215245  0.40630871814686037  0.16770383585819812  1.0000
  C   C27       1.0  0.08606691101081759  0.4067509343098905  0.6675987185740555  1.0000
  C   C28       1.0  0.6798956370337734  0.5936896246243322  0.8322962645488449  1.0000
  N   N1        1.0  0.5524900450650564  0.5004906585199933  0.45229858281112467  1.0000
  N   N2        1.0  0.05235040616480551  0.4995229262493054  0.04768682703966931  1.0000
  N   N3        1.0  0.4475236607289546  0.4995094821238764  0.5477015546434743  1.0000
  N   N4        1.0  0.947639664819981  0.5004709027362323  0.9523115456291722  1.0000
  O   O1        1.0  0.6004181802258088  0.8648944831389895  0.2607940618764601  1.0000
  O   O2        1.0  0.7357376942323982  0.13522027141545584  0.23925066715899138  1.0000
  O   O3        1.0  0.3995809214671481  0.13510920563154366  0.7392036707283014  1.0000
  O   O4        1.0  0.26426123803962304  0.864778982883891  0.7607502735420654  1.0000
  O   O5        1.0  0.696200565425599  0.914742723890335  0.43704755715530313  1.0000
  O   O6        1.0  0.7824280834631238  0.08566921593262579  0.06306962112225281  1.0000
  O   O7        1.0  0.3038083313287956  0.08526008200976068  0.5629509835079959  1.0000
  O   O8        1.0  0.21756265928108595  0.9143300372086928  0.9369313179747752  1.0000
  O   O9        1.0  0.2518240867764021  0.0781018148303971  0.3492985638511073  1.0000
  O   O10       1.0  0.17336577221559674  0.9218149170001053  0.15061581304748736  1.0000
  O   O11       1.0  0.7481757291922688  0.9218992081048965  0.6507007647429291  1.0000
  O   O12       1.0  0.8266340513143432  0.0781861191060145  0.8493843381188031  1.0000
