data_image0
_chemical_formula_structural       Al2H14C23N2Cl2O10
_chemical_formula_sum              "Al2 H14 C23 N2 Cl2 O10"
_cell_length_a       6.649292301686816
_cell_length_b       11.1349258776765
_cell_length_c       16.975305055193775
_cell_angle_alpha    85.29108409384263
_cell_angle_beta     82.37811004351441
_cell_angle_gamma    72.61123688727805

_space_group_name_H-M_alt    "P 1"
_space_group_IT_number       1

loop_
  _space_group_symop_operation_xyz
  'x, y, z'

loop_
  _atom_site_type_symbol
  _atom_site_label
  _atom_site_symmetry_multiplicity
  _atom_site_fract_x
  _atom_site_fract_y
  _atom_site_fract_z
  _atom_site_occupancy
  Al  Al1       1.0  0.4893604864267757  0.5014882825689854  0.503906922170728  1.0000
  Al  Al2       1.0  0.9875564942693486  0.5028912771691836  0.5070334137102464  1.0000
  H   H1        1.0  0.18161781310330127  0.6478158855469545  0.4562237007772437  1.0000
  H   H2        1.0  0.7267396829733315  0.4476122038450116  0.6028907990140695  1.0000
  H   H3        1.0  0.903463590281575  0.4421016041114143  0.7471120842051633  1.0000
  H   H4        1.0  0.8493487638048407  0.4312453503935529  0.8961055014904957  1.0000
  H   H5        1.0  0.3304385618278899  0.6165965335475293  0.8990401118916935  1.0000
  H   H6        1.0  0.6957655598861338  0.36332840631149577  0.1132361510515523  1.0000
  H   H7        1.0  0.16969164928575253  0.5522440783508599  0.12231146278399761  1.0000
  H   H8        1.0  0.09625581132085866  0.5474498873688206  0.2714216884068037  1.0000
  H   H9        1.0  0.8250522493817697  0.8838411405563779  0.55281764591318  1.0000
  H   H10       1.0  0.2774812804590567  0.8895997640349338  0.44188847332626574  1.0000
  H   H11       1.0  0.7003031645523947  0.12004383410214813  0.5526713421765947  1.0000
  H   H12       1.0  0.06003946402506699  0.07283106793384773  0.3901593944674318  1.0000
  H   H13       1.0  0.13478236515925346  0.21472025356440136  0.3808570251367058  1.0000
  H   H14       1.0  0.9694530763338989  0.1860657276247936  0.4652684078789732  1.0000
  C   C1        1.0  0.6238242852810031  0.7327760230564523  0.4999326252274798  1.0000
  C   C2        1.0  0.8030516376072044  0.47514348162621184  0.36378811893278135  1.0000
  C   C3        1.0  0.3533328189049101  0.27559226227769784  0.5034834082109754  1.0000
  C   C4        1.0  0.18176724372148811  0.5220354971892789  0.6500893451258918  1.0000
  C   C5        1.0  0.15176540137711225  0.5300212253845088  0.7386630976727203  1.0000
  C   C6        1.0  0.9979383792236048  0.47847608577738754  0.7813959364978729  1.0000
  C   C7        1.0  0.9667979766278093  0.4725007099793999  0.8636081486379226  1.0000
  C   C8        1.0  0.09066910755949918  0.5210244909400502  0.9060830115278051  1.0000
  C   C9        1.0  0.23965976767826178  0.5766887694087047  0.8651631545107179  1.0000
  C   C10       1.0  0.27133136703368876  0.5807377948325084  0.7821724872155542  1.0000
  C   C11       1.0  0.7803990262579604  0.40550509051617223  0.14840551346137687  1.0000
  C   C12       1.0  0.9314455510195645  0.46128998864274706  0.10924308247668794  1.0000
  C   C13       1.0  0.04917931539678472  0.5119634746384281  0.1532969732419218  1.0000
  C   C14       1.0  0.007190377377334252  0.5098863383817689  0.235331661577419  1.0000
  C   C15       1.0  0.8480677276013465  0.4603862637836046  0.275880237804202  1.0000
  C   C16       1.0  0.738051539103857  0.4050223214425445  0.2311145640727688  1.0000
  C   C17       1.0  0.4205485131435581  0.1359555208063128  0.4975052919374505  1.0000
  C   C18       1.0  0.555139336865146  0.8731325782998739  0.4987119210605826  1.0000
  C   C19       1.0  0.298643695775425  0.07292678388314762  0.46376353881047544  1.0000
  C   C20       1.0  0.6786391208580582  0.937132331990725  0.528750443928203  1.0000
  C   C21       1.0  0.36868527155443337  0.9412016281226272  0.4665921253322409  1.0000
  C   C22       1.0  0.6094728279045115  0.06778276565721342  0.5284924680106258  1.0000
  C   C23       1.0  0.10517756271626409  0.13990121831078992  0.4229707163620375  1.0000
  N   N1        1.0  0.07527841844645178  0.5203708318620882  0.990002158869892  1.0000
  N   N2        1.0  0.9515822974509048  0.46084155558914125  0.025409045760923697  1.0000
  Cl  Cl1       1.0  0.45468945015417006  0.6545820568594041  0.7372083450467172  1.0000
  Cl  Cl2       1.0  0.5551678829499309  0.32997723536384893  0.27440826923382383  1.0000
  O   O1        1.0  0.4810759706370078  0.6780892557041653  0.4983549119721005  1.0000
  O   O2        1.0  0.9566682725729053  0.4812497465796427  0.3990983636626169  1.0000
  O   O3        1.0  0.15527082699094302  0.3318284722775929  0.5106907924288961  1.0000
  O   O4        1.0  0.3665844176044287  0.5116683926954695  0.6146984190777971  1.0000
  O   O5        1.0  0.49834208837515337  0.32872485988106354  0.5036101805976259  1.0000
  O   O6        1.0  0.02029352167920003  0.5208289205323807  0.617497113529403  1.0000
  O   O7        1.0  0.8215276517171618  0.6779754712711182  0.5019058523181245  1.0000
  O   O8        1.0  0.6157018002455954  0.4859866856427005  0.3961344825969491  1.0000
  O   O9        1.0  0.2214471310419483  0.5583300784120768  0.47034999183461684  1.0000
  O   O10       1.0  0.7486698630820215  0.4532448065759312  0.545183437332973  1.0000
