data_image0
_chemical_formula_structural       Zn2H24C35N2O8
_chemical_formula_sum              "Zn2 H24 C35 N2 O8"
_cell_length_a       10.967495141259961
_cell_length_b       11.662435754212169
_cell_length_c       13.220820337524737
_cell_angle_alpha    96.52017453209524
_cell_angle_beta     96.22333264960483
_cell_angle_gamma    104.8377180837558

_space_group_name_H-M_alt    "P 1"
_space_group_IT_number       1

loop_
  _space_group_symop_operation_xyz
  'x, y, z'

loop_
  _atom_site_type_symbol
  _atom_site_label
  _atom_site_symmetry_multiplicity
  _atom_site_fract_x
  _atom_site_fract_y
  _atom_site_fract_z
  _atom_site_occupancy
  Zn  Zn1       1.0  0.5378467943515518  0.6332985556211456  0.5247096499230466  1.0000
  Zn  Zn2       1.0  0.46353287018556705  0.3839425829377491  0.5040348331637148  1.0000
  H   H1        1.0  0.8541401505560204  0.3573860536787309  0.5751281638460028  1.0000
  H   H2        1.0  0.5801141857910607  0.20622565820030306  0.4112992008551828  1.0000
  H   H3        1.0  0.828238755802481  0.7173509611812822  0.44698369326012966  1.0000
  H   H4        1.0  0.9578237690441186  0.8544995317403662  0.3435585596509084  1.0000
  H   H5        1.0  0.14291266128407912  0.8028414429316091  0.2760473742341034  1.0000
  H   H6        1.0  0.0765442699831453  0.3459000173459544  0.5579964190258622  1.0000
  H   H7        1.0  0.6649491036113703  0.6985662630437448  0.8492030135103902  1.0000
  H   H8        1.0  0.2780745589457609  0.31419520945069485  0.9909358796615847  1.0000
  H   H9        1.0  0.3365621705917335  0.6684942892283844  0.34257071100665826  1.0000
  H   H10       1.0  0.232241244520239  0.5263496936183716  0.294425363507564  1.0000
  H   H11       1.0  0.23242889926719104  0.6479407435756672  0.22532202043670682  1.0000
  H   H12       1.0  0.6978888656264602  0.7149932361286635  0.040484532131841916  1.0000
  H   H13       1.0  0.1857188928130711  0.5071693388299963  0.7956149052936823  1.0000
  H   H14       1.0  0.16273536014684717  0.43467259305511874  0.9056904171029316  1.0000
  H   H15       1.0  0.09072808064998132  0.3565185729458237  0.781377641365971  1.0000
  H   H16       1.0  0.30742691119292703  0.36626044815341885  0.73047537047524  1.0000
  H   H17       1.0  0.28277606151002743  0.2880437592998177  0.8360823459818575  1.0000
  H   H18       1.0  0.3217766737041643  0.3231005681629641  0.17894422823622588  1.0000
  H   H19       1.0  0.6330882478365113  0.6384820570426727  0.1984821195478048  1.0000
  H   H20       1.0  0.4141085504085852  0.8080047954791002  0.6095932956706491  1.0000
  H   H21       1.0  0.6712728529330649  0.8160930420442087  0.40168626953444425  1.0000
  H   H22       1.0  0.3184351373969179  0.9875356030881551  0.6472443978353297  1.0000
  H   H23       1.0  0.6681596228468365  0.023270706527760917  0.3675825044401577  1.0000
  H   H24       1.0  0.3173558631791309  0.19558220388819347  0.6148249672682623  1.0000
  C   C1        1.0  0.4971076912128111  0.4891258169837941  0.3144525306333605  1.0000
  C   C2        1.0  0.3799566516202973  0.38974205214019275  0.1398872487257776  1.0000
  C   C3        1.0  0.5561084179958444  0.567230790658485  0.152192713831127  1.0000
  C   C4        1.0  0.7433524441659358  0.5209875137058475  0.5252008233447683  1.0000
  C   C5        1.0  0.538164637150011  0.5614432675021276  0.0438171038758455  1.0000
  C   C6        1.0  0.4346567955013044  0.46981396100415673  0.9828103507495809  1.0000
  C   C7        1.0  0.41459825751161367  0.4637222231731713  0.8731379801524213  1.0000
  C   C8        1.0  0.602016442070557  0.6360566630496721  0.8887125688255677  1.0000
  C   C9        1.0  0.6199934133030852  0.6448367084248476  0.9939850563767435  1.0000
  C   C10       1.0  0.3772527997701118  0.03252080876234231  0.5943744744833737  1.0000
  C   C11       1.0  0.3755744495782026  0.14609771942841832  0.5767642465325977  1.0000
  C   C12       1.0  0.95463959132055  0.60328354104891  0.4553086041898808  1.0000
  C   C13       1.0  0.5231516484324317  0.15351600173772081  0.4614012658250885  1.0000
  C   C14       1.0  0.5319110040463857  0.03676873891379273  0.4738507210859594  1.0000
  C   C15       1.0  0.4574257453139836  0.9753289412337908  0.5432737681440755  1.0000
  C   C16       1.0  0.4982165445478375  0.5395861556808585  0.713281442301479  1.0000
  C   C17       1.0  0.46877503813894356  0.8598064755852592  0.5577252365950115  1.0000
  C   C18       1.0  0.6146588464348851  0.8664771025773563  0.4408545093414062  1.0000
  C   C19       1.0  0.6111851575800316  0.9791472761158392  0.4219202817396237  1.0000
  C   C20       1.0  0.25442194425502157  0.4873891680522746  0.4846582249657842  1.0000
  C   C21       1.0  0.9156545795845901  0.7025037271470254  0.42386872021337035  1.0000
  C   C22       1.0  0.987217136077348  0.7772978642711764  0.3659751982988553  1.0000
  C   C23       1.0  0.8757547605591967  0.5180608808286069  0.5076480137393062  1.0000
  C   C24       1.0  0.0942800358904564  0.7499948512014857  0.3303061882342035  1.0000
  C   C25       1.0  0.13722335922507511  0.6542876471327121  0.3579690294603139  1.0000
  C   C26       1.0  0.07389557871160696  0.5845666156356516  0.4296149136060379  1.0000
  C   C27       1.0  0.24031105243376066  0.6227989794135668  0.3028912461498123  1.0000
  C   C28       1.0  0.2958881573693404  0.3772156212328639  0.8118770956798826  1.0000
  C   C29       1.0  0.17681057179645884  0.4211992966238186  0.8246351282916322  1.0000
  C   C30       1.0  0.917044050591052  0.4230357961068095  0.5381926151188665  1.0000
  C   C31       1.0  0.03960438526276992  0.4141884998087094  0.5255890909611836  1.0000
  C   C32       1.0  0.11865714186541963  0.4935679687754942  0.47444621977660256  1.0000
  C   C33       1.0  0.5011999821331798  0.5445361489109432  0.8276301654319056  1.0000
  C   C34       1.0  0.4792642948975327  0.4829048868773358  0.2000677034752414  1.0000
  C   C35       1.0  0.35676452665281017  0.38527106171979136  0.0349502364055638  1.0000
  N   N1        1.0  0.545007576235257  0.8088530536645212  0.5088785279059067  1.0000
  N   N2        1.0  0.44848370855370223  0.20535943606094526  0.5114437119989859  1.0000
  O   O1        1.0  0.5484773083909574  0.5915636722303008  0.3684428635172381  1.0000
  O   O2        1.0  0.45667932766042446  0.3911420261907922  0.3496256437030922  1.0000
  O   O3        1.0  0.720926471920798  0.6213991161174519  0.5515045856959374  1.0000
  O   O4        1.0  0.6611581514734939  0.41918304013167085  0.5113918650228158  1.0000
  O   O5        1.0  0.5210380161905093  0.6392812289644638  0.6785175807025964  1.0000
  O   O6        1.0  0.4791539468040895  0.43675616835803055  0.6597920839287282  1.0000
  O   O7        1.0  0.34033737567651207  0.586855774401329  0.4976491659218354  1.0000
  O   O8        1.0  0.2747705720531571  0.38471499917400115  0.4868714297361477  1.0000
