data_image0
_chemical_formula_structural       Tl2B2H28C32N12
_chemical_formula_sum              "Tl2 B2 H28 C32 N12"
_cell_length_a       5.81593920965517
_cell_length_b       10.01415954109693
_cell_length_c       13.900015673883482
_cell_angle_alpha    97.69535068715736
_cell_angle_beta     89.99996249653908
_cell_angle_gamma    90.00132479261897

_space_group_name_H-M_alt    "P 1"
_space_group_IT_number       1

loop_
  _space_group_symop_operation_xyz
  'x, y, z'

loop_
  _atom_site_type_symbol
  _atom_site_label
  _atom_site_symmetry_multiplicity
  _atom_site_fract_x
  _atom_site_fract_y
  _atom_site_fract_z
  _atom_site_occupancy
  Tl  Tl1       1.0  0.12467327769707738  0.21878949836148107  0.2503845222303838  1.0000
  Tl  Tl2       1.0  0.6246514315027981  0.7811924906185508  0.7496244471855392  1.0000
  B   B1        1.0  0.44143295109833497  0.5079078453746606  0.21733842299948242  1.0000
  B   B2        1.0  0.9414472115388506  0.4920924493309967  0.7826687613322534  1.0000
  H   H1        1.0  0.8700314470590131  0.5921530513355717  0.3090116457910597  1.0000
  H   H2        1.0  0.37002913640805696  0.40786520645362856  0.690966334969339  1.0000
  H   H3        1.0  0.6707974438418989  0.3216288997709995  0.9001484843606775  1.0000
  H   H4        1.0  0.17085629116163406  0.6783654212907422  0.09985579771073111  1.0000
  H   H5        1.0  0.9948984220857043  0.45911028183696345  0.4617784000851089  1.0000
  H   H6        1.0  0.49491030102947786  0.5409123111084995  0.5382074082020267  1.0000
  H   H7        1.0  0.7751376597313994  0.4959462439322164  0.06338360208955149  1.0000
  H   H8        1.0  0.27515477773373925  0.5040341182385788  0.9366029174729037  1.0000
  H   H9        1.0  0.7112408352864251  0.016783057638306804  0.9338276559452652  1.0000
  H   H10       1.0  0.21129923390918748  0.983201019507568  0.06617428908575107  1.0000
  H   H11       1.0  0.9425487391480231  0.18759912537289128  0.0355666372215282  1.0000
  H   H12       1.0  0.442611364938955  0.8123829472692705  0.9644428352774312  1.0000
  H   H13       1.0  0.9488110463116045  0.3094042702248458  0.571456883230745  1.0000
  H   H14       1.0  0.4488010458092546  0.690615175930631  0.4285310528607412  1.0000
  H   H15       1.0  0.3088407959081679  0.16846411130987346  0.4347411424512799  1.0000
  H   H16       1.0  0.808838862996886  0.831563328710892  0.5652745343543586  1.0000
  H   H17       1.0  0.8806973261551435  0.1538033672145644  0.6917078350990878  1.0000
  H   H18       1.0  0.38068053542924224  0.8462148719492644  0.30828551326034415  1.0000
  H   H19       1.0  0.26858449421563085  0.0190119163561704  0.5605065327522283  1.0000
  H   H20       1.0  0.7685802242172173  0.9810178787428612  0.4395055577172259  1.0000
  H   H21       1.0  0.2098971217100072  0.9688263604362957  0.7189942656881954  1.0000
  H   H22       1.0  0.7099056413872589  0.031154147942622494  0.2810223552507054  1.0000
  H   H23       1.0  0.46236444142886773  0.13648343671092525  0.8108060087878641  1.0000
  H   H24       1.0  0.9623834219406932  0.8634975826941725  0.18920094512903773  1.0000
  H   H25       1.0  0.5121459661607801  0.6197594927090649  0.20834109907214335  1.0000
  H   H26       1.0  0.0121609177515651  0.3802445606078138  0.7916424533427603  1.0000
  H   H27       1.0  0.23976825690060372  0.5074054659331536  0.24016299115010042  1.0000
  H   H28       1.0  0.7397961361670937  0.492584031380403  0.7598359377314241  1.0000
  C   C1        1.0  0.37204179334687376  0.27370720293462375  0.9935681955543886  1.0000
  C   C2        1.0  0.8721041137075786  0.7262821266313324  0.0064317553905937005  1.0000
  C   C3        1.0  0.6682873250529795  0.3449801166458926  0.41854633355229254  1.0000
  C   C4        1.0  0.16828382621972787  0.6550356419852646  0.5814480737029442  1.0000
  C   C5        1.0  0.6358607593579039  0.2523954492369852  0.4899961863145422  1.0000
  C   C6        1.0  0.1358472654710852  0.74761579407312  0.509999085594508  1.0000
  C   C7        1.0  0.785574893194692  0.509970969295459  0.33837850890937915  1.0000
  C   C8        1.0  0.28559637222444684  0.490047101564876  0.6616132397104125  1.0000
  C   C9        1.0  0.5778751734933678  0.336198596052391  0.9682945293155356  1.0000
  C   C10       1.0  0.07789972775847082  0.6637663445813969  0.03170778605361589  1.0000
  C   C11       1.0  0.8458427990919759  0.44124545003671045  0.4150264795212379  1.0000
  C   C12       1.0  0.3458300712329248  0.5587596569879806  0.5849494314490614  1.0000
  C   C13       1.0  0.6330991677828521  0.4258517077977543  0.04980266976409099  1.0000
  C   C14       1.0  0.13313596661275542  0.5741402053931423  0.9501925126196014  1.0000
  C   C15       1.0  0.2290166987415958  0.1753604850002972  0.9347033290713399  1.0000
  C   C16       1.0  0.7290722286032222  0.8246130130402065  0.06530648697733452  1.0000
  C   C17       1.0  0.8808140765233289  0.044042729467115294  0.9092486935363482  1.0000
  C   C18       1.0  0.38088531536565284  0.9559419483951999  0.09075094456901672  1.0000
  C   C19       1.0  0.0114439309838446  0.13917142199230167  0.9669040006574862  1.0000
  C   C20       1.0  0.5115046154063309  0.8608074973663803  0.033105482510521304  1.0000
  C   C21       1.0  0.7958880350759968  0.24602708718371957  0.5650401440999033  1.0000
  C   C22       1.0  0.29588523399842603  0.7539833535321065  0.4349517119265371  1.0000
  C   C23       1.0  0.44181961065871894  0.16868637405545425  0.48978735875509477  1.0000
  C   C24       1.0  0.9418136539110123  0.831330877553398  0.5102275058609891  1.0000
  C   C25       1.0  0.7577102071517244  0.15825667969068746  0.6329639929289997  1.0000
  C   C26       1.0  0.2577005021464132  0.8417761002983893  0.3670344987490566  1.0000
  C   C27       1.0  0.41924173254737707  0.08414209358477359  0.5608259580270741  1.0000
  C   C28       1.0  0.9192328754255428  0.9158893241205492  0.43918852042484974  1.0000
  C   C29       1.0  0.1563795590088546  0.017680647286688597  0.7904147198118069  1.0000
  C   C30       1.0  0.6564103937110419  0.982303626209173  0.20959887311952494  1.0000
  C   C31       1.0  0.29893750681687686  0.11267780464548588  0.8427357970745248  1.0000
  C   C32       1.0  0.7989637483915787  0.8873018073913954  0.1572756804563085  1.0000
  N   N1        1.0  0.5128935289061829  0.35534309398151  0.34720172104241703  1.0000
  N   N2        1.0  0.0128903300599106  0.644651600864968  0.6527908673509162  1.0000
  N   N3        1.0  0.30857982452646127  0.3241493252833861  0.08518600963297732  1.0000
  N   N4        1.0  0.80861152291034  0.6758462843949714  0.9148131148889436  1.0000
  N   N5        1.0  0.5862523093440971  0.4563600842145945  0.29912385834908417  1.0000
  N   N6        1.0  0.086266233529166  0.5436359322566062  0.7008670557787369  1.0000
  N   N7        1.0  0.46871848189078236  0.4168280886548389  0.11833772178327003  1.0000
  N   N8        1.0  0.9687358416358194  0.5831644068108446  0.88166708326888  1.0000
  N   N9        1.0  0.5739202289379507  0.07640312720290861  0.6318795816788806  1.0000
  N   N10       1.0  0.07390238701585622  0.9236252205873255  0.36812619748266684  1.0000
  N   N11       1.0  0.9501859781010965  0.9816285166946983  0.822427093443878  1.0000
  N   N12       1.0  0.4502184396870916  0.018354029535629493  0.1775782991996593  1.0000
