data_image0
_chemical_formula_structural       Mn3H30C36S6N12
_chemical_formula_sum              "Mn3 H30 C36 S6 N12"
_cell_length_a       8.660871439977326
_cell_length_b       8.435108914471751
_cell_length_c       15.70354446694178
_cell_angle_alpha    93.45468871018704
_cell_angle_beta     96.41821262988329
_cell_angle_gamma    114.0617723866499

_space_group_name_H-M_alt    "P 1"
_space_group_IT_number       1

loop_
  _space_group_symop_operation_xyz
  'x, y, z'

loop_
  _atom_site_type_symbol
  _atom_site_label
  _atom_site_symmetry_multiplicity
  _atom_site_fract_x
  _atom_site_fract_y
  _atom_site_fract_z
  _atom_site_occupancy
  Mn  Mn1       1.0  0.5000023665110618  0.5000033350672481  0.4999995883530557  1.0000
  Mn  Mn2       1.0  0.8312053257690265  0.8241606687833569  0.8354998460608625  1.0000
  Mn  Mn3       1.0  0.16879547569643452  0.17584215532786376  0.16450343138857446  1.0000
  H   H1        1.0  0.7055587515532337  0.8831864081982488  0.010333897254362494  1.0000
  H   H2        1.0  0.2944468045374861  0.1168111156463141  0.9896707877401878  1.0000
  H   H3        1.0  0.4422368742082696  0.7782195715892329  0.08185554074491817  1.0000
  H   H4        1.0  0.5577646668520869  0.22177668761939634  0.9181488594282141  1.0000
  H   H5        1.0  0.17341961678895498  0.5396425911102867  0.0020778820785025947  1.0000
  H   H6        1.0  0.8265811725196173  0.4603602060730054  0.9979228465880463  1.0000
  H   H7        1.0  0.17770696861922625  0.413821644349298  0.8536113252931012  1.0000
  H   H8        1.0  0.8222931493720509  0.586185102689342  0.14638948023587514  1.0000
  H   H9        1.0  0.45174954136756185  0.5349403996438584  0.7910708243599769  1.0000
  H   H10       1.0  0.548251188781073  0.4650650327826327  0.20893061630760454  1.0000
  H   H11       1.0  0.009565988402975702  0.0812707231653533  0.7002606978948831  1.0000
  H   H12       1.0  0.9904290768406697  0.9187295029280167  0.29973832811953116  1.0000
  H   H13       1.0  0.2859288367340298  0.20304301709398936  0.639621603299872  1.0000
  H   H14       1.0  0.7140639042784757  0.7969572104255536  0.3603747325495021  1.0000
  H   H15       1.0  0.5166526862975189  0.10989831711777504  0.6918631157615065  1.0000
  H   H16       1.0  0.48334066079391386  0.8901005823256514  0.30813258083502854  1.0000
  H   H17       1.0  0.46211199754099397  0.8979254483043064  0.8020103665600754  1.0000
  H   H18       1.0  0.5378881082933944  0.10208127180640501  0.19798789018602034  1.0000
  H   H19       1.0  0.17757171072114633  0.7863944729566371  0.8549652016579187  1.0000
  H   H20       1.0  0.8224295572288155  0.213612246440988  0.14503440017069374  1.0000
  H   H21       1.0  0.11861943039593109  0.2457917254060221  0.4219378483238286  1.0000
  H   H22       1.0  0.8813772664870069  0.7542124019926464  0.5780594843479959  1.0000
  H   H23       1.0  0.8219759820435397  0.13489064281856136  0.46056935382502917  1.0000
  H   H24       1.0  0.1780237103878407  0.8651095332985934  0.5394305921494078  1.0000
  H   H25       1.0  0.7795102259201058  0.2515409944394095  0.602120528857256  1.0000
  H   H26       1.0  0.22049007562941375  0.7484578603336092  0.3978794150600676  1.0000
  H   H27       1.0  0.03487970305619838  0.4757686302632466  0.6999903082684253  1.0000
  H   H28       1.0  0.9651221057343022  0.5242393828375  0.3000080919169291  1.0000
  H   H29       1.0  0.323358720410262  0.5717035669166323  0.6518165219305556  1.0000
  H   H30       1.0  0.6766419232254532  0.4283044401652134  0.348179895976564  1.0000
  C   C1        1.0  0.6414268246321342  0.8459946750912124  0.648554122578268  1.0000
  C   C2        1.0  0.3585707484009006  0.1539976573103701  0.3514467319895188  1.0000
  C   C3        1.0  0.6705503551844956  0.4758686071113375  0.6906879754037474  1.0000
  C   C4        1.0  0.32944887825554764  0.5241249240325416  0.309304101863212  1.0000
  C   C5        1.0  0.9639147958752187  0.17689535958458444  0.9783037366400574  1.0000
  C   C6        1.0  0.0360799499715156  0.8230929981729886  0.0216904570348575  1.0000
  C   C7        1.0  0.5855421765236812  0.7802357680760184  0.9775831725977535  1.0000
  C   C8        1.0  0.4144616796501452  0.21976046951049716  0.022422006153249192  1.0000
  C   C9        1.0  0.4393637472027551  0.7212243207505012  0.01726482152769652  1.0000
  C   C10       1.0  0.5606400998534086  0.2787718966400733  0.982738445636144  1.0000
  C   C11       1.0  0.28966607580448317  0.5884745495039995  0.9726019253957001  1.0000
  C   C12       1.0  0.7103354000174918  0.41152433148386086  0.027401912387020402  1.0000
  C   C13       1.0  0.2919120792171199  0.5189819178233819  0.8900210368061818  1.0000
  C   C14       1.0  0.7080886570099664  0.4810235280670697  0.10998167825284358  1.0000
  C   C15       1.0  0.4436260900590838  0.585812393477326  0.8551604203554387  1.0000
  C   C16       1.0  0.5563776325987674  0.41418908093567103  0.14484299641902953  1.0000
  C   C17       1.0  0.11311753080446608  0.0435893654823261  0.7207009854119446  1.0000
  C   C18       1.0  0.8868780843973879  0.9564121745100993  0.2792987505463812  1.0000
  C   C19       1.0  0.2665502246747025  0.11103281676084009  0.6872724354943001  1.0000
  C   C20       1.0  0.7334465344073919  0.8889686821266097  0.31272482237221766  1.0000
  C   C21       1.0  0.3949412912228638  0.05913462677948901  0.7163928359964798  1.0000
  C   C22       1.0  0.6050560147782207  0.9408681792750501  0.28360449461823106  1.0000
  C   C23       1.0  0.36475927570215555  0.9410447946814386  0.7776341447021833  1.0000
  C   C24       1.0  0.6352368773010254  0.058958032282127704  0.22236375241717343  1.0000
  C   C25       1.0  0.20720823590269796  0.8789497816562035  0.8071746117345737  1.0000
  C   C26       1.0  0.7927907852113805  0.12105434431628483  0.19282541110229087  1.0000
  C   C27       1.0  0.09443006032746841  0.29270926252642954  0.48310083515399765  1.0000
  C   C28       1.0  0.9055679200301371  0.7072896004047424  0.5168970557940041  1.0000
  C   C29       1.0  0.9300089879869163  0.23154645127364407  0.5046973355336843  1.0000
  C   C30       1.0  0.06998960148882816  0.7684510903133983  0.4953005533571966  1.0000
  C   C31       1.0  0.906831713643747  0.29661788433178776  0.5837103979462908  1.0000
  C   C32       1.0  0.09316693195270893  0.7033770152800898  0.4162861417478324  1.0000
  C   C33       1.0  0.04884023569744045  0.4209220373863475  0.6381659360147152  1.0000
  C   C34       1.0  0.9511582233015473  0.5790807477591572  0.36183082809534983  1.0000
  C   C35       1.0  0.20865356575662727  0.47470228002402604  0.6115662088373381  1.0000
  C   C36       1.0  0.791343731126794  0.5253005058345651  0.3884292101902103  1.0000
  S   S1        1.0  0.5579095941060571  0.8338017373358255  0.5492786277468438  1.0000
  S   S2        1.0  0.44209937397533133  0.1661983859527751  0.45072761851768905  1.0000
  S   S3        1.0  0.7780897246937997  0.49506449812844994  0.7851272621791165  1.0000
  S   S4        1.0  0.2219083269806177  0.5049317564874585  0.21487246555073364  1.0000
  S   S5        1.0  0.8692641108908034  0.15028570344935596  0.8799396727537355  1.0000
  S   S6        1.0  0.1307385740497864  0.8497105146543049  0.12006224932758866  1.0000
  N   N1        1.0  0.7013947921595615  0.8539991052245383  0.7213240086423125  1.0000
  N   N2        1.0  0.2986069006520893  0.14599195754950506  0.278685976681693  1.0000
  N   N3        1.0  0.5895641131237993  0.4588184435050025  0.6219214899778079  1.0000
  N   N4        1.0  0.41044842011429233  0.5411763196421973  0.3780790839878349  1.0000
  N   N5        1.0  0.03184100489253441  0.1967119936132136  0.050515818559865984  1.0000
  N   N6        1.0  0.9681652316331505  0.803281600571957  0.949490701159419  1.0000
  N   N7        1.0  0.5882278802601347  0.7148385223194824  0.8976404889280756  1.0000
  N   N8        1.0  0.41177073352938  0.2851590731234168  0.10236249752858126  1.0000
  N   N9        1.0  0.08298003079522694  0.9291016704297164  0.7795845246399791  1.0000
  N   N10       1.0  0.9170190555572332  0.07089983376354783  0.22041606058729704  1.0000
  N   N11       1.0  0.23201894776094892  0.411752626144903  0.5355524103326912  1.0000
  N   N12       1.0  0.7679766370486901  0.5882488465277121  0.46444095366842203  1.0000
