data_image0
_chemical_formula_structural       Cd4H44C36N4O16
_chemical_formula_sum              "Cd4 H44 C36 N4 O16"
_cell_length_a       9.649711470524089
_cell_length_b       10.01421794830776
_cell_length_c       12.844561470464617
_cell_angle_alpha    71.67110072951932
_cell_angle_beta     73.58178044704346
_cell_angle_gamma    74.85365609475072

_space_group_name_H-M_alt    "P 1"
_space_group_IT_number       1

loop_
  _space_group_symop_operation_xyz
  'x, y, z'

loop_
  _atom_site_type_symbol
  _atom_site_label
  _atom_site_symmetry_multiplicity
  _atom_site_fract_x
  _atom_site_fract_y
  _atom_site_fract_z
  _atom_site_occupancy
  Cd  Cd1       1.0  6.8761600896574e-08  2.374904887899652e-06  0.999999295818277  1.0000
  Cd  Cd2       1.0  0.7532181686339996  0.7280188357451323  0.2305067463511533  1.0000
  Cd  Cd3       1.0  0.24678448443921744  0.2719829054641424  0.7694922938513499  1.0000
  Cd  Cd4       1.0  0.5000018643662827  0.500000868403106  0.4999990151805489  1.0000
  H   H1        1.0  0.915176703487326  0.33216828643720936  0.862091236577086  1.0000
  H   H2        1.0  0.08481597298690959  0.6678292093980006  0.13791334013919246  1.0000
  H   H3        1.0  0.6920686388749431  0.5166825507863777  0.8275577808417721  1.0000
  H   H4        1.0  0.3079270817600487  0.48331600551730963  0.17244665560445327  1.0000
  H   H5        1.0  0.44213000186899615  0.4446672624833426  0.9076048975951136  1.0000
  H   H6        1.0  0.5578644223918872  0.5553323677741847  0.0923979973006296  1.0000
  H   H7        1.0  0.4317046086341847  0.19060314431217054  0.01410264726041524  1.0000
  H   H8        1.0  0.5682876372383631  0.8093964918037175  0.985898381142391  1.0000
  H   H9        1.0  0.6649716282177137  0.018214032411883404  0.04079791569672852  1.0000
  H   H10       1.0  0.33501996176931925  0.9817834666472796  0.9592061163906606  1.0000
  H   H11       1.0  0.9816167704322323  0.7974975854078752  0.8428679439933899  1.0000
  H   H12       1.0  0.01838912586079998  0.20250414436088707  0.15713039839033624  1.0000
  H   H13       1.0  0.8400251245349749  0.7087874818442047  0.8462118446365066  1.0000
  H   H14       1.0  0.15997862043937522  0.2912142567306617  0.15378851743004415  1.0000
  H   H15       1.0  0.005463488958433433  0.6053043871879782  0.8836336108529322  1.0000
  H   H16       1.0  0.9945413316752576  0.3946973469838397  0.1163657413722063  1.0000
  H   H17       1.0  0.837488657548455  0.9729710555761673  0.4615596123363871  1.0000
  H   H18       1.0  0.16251528107100907  0.027029610500157706  0.5384394149462891  1.0000
  H   H19       1.0  0.8320771712784705  0.13992563169984618  0.355705330732462  1.0000
  H   H20       1.0  0.16792587991284333  0.8600739656914487  0.6442925943726009  1.0000
  H   H21       1.0  0.002139599623767198  0.021733397682240304  0.3657012281273423  1.0000
  H   H22       1.0  0.9978654254828995  0.9782672651701394  0.6342983437842232  1.0000
  H   H23       1.0  0.2422502096018277  0.7437587571478163  0.38959992142151373  1.0000
  H   H24       1.0  0.7577523576933558  0.2562376283300267  0.6103965636436468  1.0000
  H   H25       1.0  0.2297742539959628  0.8542417902752463  0.2505622879351462  1.0000
  H   H26       1.0  0.7702291953134405  0.1457556632980754  0.7494345220724766  1.0000
  H   H27       1.0  0.24773893797735977  0.9314571931364171  0.3506418984876233  1.0000
  H   H28       1.0  0.752260391511946  0.0685392043714828  0.6493560616314722  1.0000
  H   H29       1.0  0.11625875131133505  0.35255564865558864  0.37315512431077014  1.0000
  H   H30       1.0  0.8837462683814007  0.6474450136072322  0.6268436703656518  1.0000
  H   H31       1.0  0.9887833886118285  0.23830194610026476  0.45845686634342525  1.0000
  H   H32       1.0  0.011221426607932008  0.7616997874820015  0.5415417086465623  1.0000
  H   H33       1.0  0.02806472126059838  0.36051782045780817  0.514228492107854  1.0000
  H   H34       1.0  0.9719392227727967  0.6394828462080683  0.4857713124099732  1.0000
  H   H35       1.0  0.35779122705864097  0.24441824384297922  0.5150886680609685  1.0000
  H   H36       1.0  0.642210140468336  0.755584572499238  0.4849103850613615  1.0000
  H   H37       1.0  0.3687805131430864  0.0750540073889354  0.4055832096163598  1.0000
  H   H38       1.0  0.6312221399301307  0.9249477338203395  0.5944158305861503  1.0000
  H   H39       1.0  0.5381850497995728  0.09317173212843242  0.21684814638126673  1.0000
  H   H40       1.0  0.4618167320872927  0.9068289421644594  0.7831521233490758  1.0000
  H   H41       1.0  0.6981307364307767  0.28210624068198353  0.1448799401768497  1.0000
  H   H42       1.0  0.3018725246474431  0.7178922859794313  0.8551189818497987  1.0000
  H   H43       1.0  0.6788648133466139  0.440636541324217  0.2659802618083801  1.0000
  H   H44       1.0  0.321139329745833  0.5593630534326764  0.7340189851607233  1.0000
  C   C1        1.0  0.8061594930603347  0.30500414598570574  0.8949836622614523  1.0000
  C   C2        1.0  0.19383534014650639  0.6949933416329516  0.10501967200715971  1.0000
  C   C3        1.0  0.6808754058282459  0.40764837040882185  0.8759335523294778  1.0000
  C   C4        1.0  0.3191207183387732  0.5923480426664443  0.12407054625445817  1.0000
  C   C5        1.0  0.5432790403635578  0.3682755943244588  0.919745374736699  1.0000
  C   C6        1.0  0.45671451271096686  0.6317229690166926  0.08025874968689092  1.0000
  C   C7        1.0  0.5362967110561242  0.22668162738345646  0.9795703594450628  1.0000
  C   C8        1.0  0.4636966158896954  0.7733180049189344  0.020430436351482104  1.0000
  C   C9        1.0  0.6660747518825615  0.12972006749902226  0.9945263227971847  1.0000
  C   C10       1.0  0.333922243470816  0.8702774124926267  0.00547654625890458  1.0000
  C   C11       1.0  0.8591157103571233  0.7062669573323817  0.008146544255723066  1.0000
  C   C12       1.0  0.14088910486263728  0.2937347762498845  0.9918520307342644  1.0000
  C   C13       1.0  0.9267326236772175  0.7060965338743018  0.8872941964592086  1.0000
  C   C14       1.0  0.07327261673028565  0.2939030588377421  0.11270714960910054  1.0000
  C   C15       1.0  0.8646864214676524  0.9571934012637586  0.29164921767155494  1.0000
  C   C16       1.0  0.1353164414924706  0.0428072692156292  0.7083508194525334  1.0000
  C   C17       1.0  0.8845223957395446  0.026317064876181497  0.37494914617252545  1.0000
  C   C18       1.0  0.11548195723980838  0.9736814591508247  0.6250510977181704  1.0000
  C   C19       1.0  0.4458197639673214  0.8041488462767035  0.2821938280957281  1.0000
  C   C20       1.0  0.5541830881649402  0.19585182302358115  0.7178046545580582  1.0000
  C   C21       1.0  0.28093875518198524  0.8331121518360476  0.32179903941398874  1.0000
  C   C22       1.0  0.7190623275079061  0.1668863806837209  0.6781980161197224  1.0000
  C   C23       1.0  0.8860777509918304  0.45624886101697376  0.3961490215043994  1.0000
  C   C24       1.0  0.11392726328696764  0.5437518006563025  0.6038489959368645  1.0000
  C   C25       1.0  0.013718276702519494  0.3458409787065335  0.4370211268194025  1.0000
  C   C26       1.0  0.9862865385172412  0.6541607548757327  0.5629774481705849  1.0000
  C   C27       1.0  0.4324183546154784  0.24924542852196646  0.43307970211267127  1.0000
  C   C28       1.0  0.5675842984577456  0.7507563126873081  0.566919338089832  1.0000
  C   C29       1.0  0.4379750266168685  0.15584037527229103  0.37085311123761483  1.0000
  C   C30       1.0  0.5620265453830839  0.8441613697504877  0.6291461615711494  1.0000
  C   C31       1.0  0.5328860128118648  0.16664723463116363  0.2654494938695889  1.0000
  C   C32       1.0  0.46711792580759937  0.8333534314451684  0.7345495334130872  1.0000
  C   C33       1.0  0.6206742803222056  0.270734462688317  0.225897387043389  1.0000
  C   C34       1.0  0.3793287762830388  0.7292651352925291  0.7741013152968249  1.0000
  C   C35       1.0  0.6109202389793323  0.359182713356148  0.29330893404624436  1.0000
  C   C36       1.0  0.3890839041131142  0.6408168814007454  0.7066903129228662  1.0000
  N   N1        1.0  0.7987142841726109  0.16838600200711085  0.953927595434983  1.0000
  N   N2        1.0  0.20127858594673131  0.8316104213295648  0.04607564649742096  1.0000
  N   N3        1.0  0.5181010819447137  0.3488079668055875  0.39474495445136865  1.0000
  N   N4        1.0  0.48190157112850324  0.6511937744036872  0.6052540857511344  1.0000
  O   O1        1.0  0.871869515904528  0.8085997219414482  0.04549142471461214  1.0000
  O   O2        1.0  0.12813571908904456  0.1913998701810443  0.9545091441185388  1.0000
  O   O3        1.0  0.7904938452021214  0.6095193145116299  0.07289786648208717  1.0000
  O   O4        1.0  0.20950839892514486  0.3904845693365147  0.9271007343475544  1.0000
  O   O5        1.0  0.9148332622964969  0.0100298314279215  0.18844348063356617  1.0000
  O   O6        1.0  0.08517067632296708  0.9899708346484103  0.8115555466491101  1.0000
  O   O7        1.0  0.7974839745703973  0.8515357196150435  0.33252928253683217  1.0000
  O   O8        1.0  0.2025186730888962  0.14846602100467982  0.66746898043052  1.0000
  O   O9        1.0  0.5095118402586608  0.8936228442935104  0.2021618457117711  1.0000
  O   O10       1.0  0.4904888388992035  0.10637783145468664  0.7978355476842294  1.0000
  O   O11       1.0  0.5217184284162784  0.6855647038143716  0.33156455517435285  1.0000
  O   O12       1.0  0.4782844345438519  0.3144359666650162  0.6684354819497356  1.0000
  O   O13       1.0  0.9142948629181973  0.533829353428125  0.29507287397366605  1.0000
  O   O14       1.0  0.08570927476031895  0.4661702407392171  0.7049255957602935  1.0000
  O   O15       1.0  0.7616876399527043  0.4641479780628617  0.4640414943506028  1.0000
  O   O16       1.0  0.23831845539936575  0.5358526797969105  0.5359562904844066  1.0000
