data_image0
_chemical_formula_structural       Ag6H36C24S6N18O18
_chemical_formula_sum              "Ag6 H36 C24 S6 N18 O18"
_cell_length_a       8.794523704407926
_cell_length_b       11.127016257411254
_cell_length_c       14.0544
_cell_angle_alpha    82.74532301304876
_cell_angle_beta     89.34485004065772
_cell_angle_gamma    79.0010356180117

_space_group_name_H-M_alt    "P 1"
_space_group_IT_number       1

loop_
  _space_group_symop_operation_xyz
  'x, y, z'

loop_
  _atom_site_type_symbol
  _atom_site_label
  _atom_site_symmetry_multiplicity
  _atom_site_fract_x
  _atom_site_fract_y
  _atom_site_fract_z
  _atom_site_occupancy
  Ag  Ag1       1.0  0.8078023048500995  0.5275573688587798  0.5005996218588535  1.0000
  Ag  Ag2       1.0  0.1921953503918417  0.47244417346158935  0.4994010945461724  1.0000
  Ag  Ag3       1.0  0.5901552822317199  0.3959806716234198  0.3325381809001584  1.0000
  Ag  Ag4       1.0  0.4098432890223052  0.6040217936341605  0.6674624366781785  1.0000
  Ag  Ag5       1.0  0.593562046198528  0.2878373501083047  0.583652540460605  1.0000
  Ag  Ag6       1.0  0.4064353564318068  0.7121605004632343  0.4163478353214741  1.0000
  H   H1        1.0  0.3523277144323558  0.0870514374924767  0.5674523742433948  1.0000
  H   H2        1.0  0.6476658344942479  0.9129482589534774  0.43254499848279704  1.0000
  H   H3        1.0  0.3526600992719011  0.2088293103866832  0.26735519277209363  1.0000
  H   H4        1.0  0.6473427679528568  0.7911694631220598  0.7326422055544767  1.0000
  H   H5        1.0  0.2100624444727401  0.9749327218669065  0.461505993811855  1.0000
  H   H6        1.0  0.7899367901817698  0.0250669745790475  0.538491338233051  1.0000
  H   H7        1.0  0.25194634149581663  0.9876830994003925  0.33678010010382314  1.0000
  H   H8        1.0  0.7480490394549619  0.0123184429199767  0.6632177864899376  1.0000
  H   H9        1.0  0.9676992933433013  0.0455441824209188  0.3739508005109827  1.0000
  H   H10       1.0  0.03229858303213017  0.9544564369622393  0.626049295063531  1.0000
  H   H11       1.0  0.0382221789950847  0.1667701388645284  0.3011551204712576  1.0000
  H   H12       1.0  0.9617736442226815  0.8332295575814257  0.6988457935871608  1.0000
  H   H13       1.0  0.6423901673116958  0.6050776338005264  0.13627517414028031  1.0000
  H   H14       1.0  0.35761089936698903  0.3949239085198429  0.8637248063350285  1.0000
  H   H15       1.0  0.8686791911813927  0.7642160048891284  0.3399975851434576  1.0000
  H   H16       1.0  0.1313214332303048  0.2357873833056559  0.660002925471936  1.0000
  H   H17       1.0  0.8249691738661724  0.7777582625473868  0.07387145753165211  1.0000
  H   H18       1.0  0.1750339459701848  0.2222442027101863  0.9261298390226003  1.0000
  H   H19       1.0  0.8602851632049281  0.8668623123912553  0.16721780216504098  1.0000
  H   H20       1.0  0.13971590347376409  0.1331392299291139  0.832783601352162  1.0000
  H   H21       1.0  0.5518651403131758  0.8582956092232621  0.06977654864093098  1.0000
  H   H22       1.0  0.4481382006566719  0.1417059330971071  0.9302241270828162  1.0000
  H   H23       1.0  0.646126353080014  0.9866300280456529  0.06982251691165693  1.0000
  H   H24       1.0  0.3538749347321684  0.013370591337505299  0.9301789772959879  1.0000
  H   H25       1.0  0.6985999088108272  0.260757449477822  0.8142549127047118  1.0000
  H   H26       1.0  0.3014020424018398  0.7392404010937099  0.1857454305323429  1.0000
  H   H27       1.0  0.9324883491533882  0.5573423984469628  0.7277292172226525  1.0000
  H   H28       1.0  0.06751132776811629  0.4426554521245762  0.2722711422869111  1.0000
  H   H29       1.0  0.9728881375455815  0.4610145190732666  0.9048409808850479  1.0000
  H   H30       1.0  0.027113813667092798  0.5389833314982724  0.0951586508310527  1.0000
  H   H31       1.0  0.9312763582482686  0.3111821238565469  0.934314084272522  1.0000
  H   H32       1.0  0.06872537183090799  0.6888166496521961  0.065686168274091  1.0000
  H   H33       1.0  0.7913597954262386  0.4455285556541995  0.04174429443729371  1.0000
  H   H34       1.0  0.20864285066502222  0.5544711407917546  0.9582558592826302  1.0000
  H   H35       1.0  0.6488317149874235  0.4104430976784101  0.966534518485723  1.0000
  H   H36       1.0  0.35117001509175333  0.5895556758303329  0.03346644558183699  1.0000
  C   C1        1.0  0.37398004001315144  0.1364202717048357  0.4980138764656417  1.0000
  C   C2        1.0  0.6260166992166988  0.8635803476783294  0.5019848042032393  1.0000
  C   C3        1.0  0.3726756478459379  0.20008909502351457  0.34430535066725554  1.0000
  C   C4        1.0  0.6273247239541604  0.7999106014224324  0.655693396283283  1.0000
  C   C5        1.0  0.2091702879785018  0.0399225718848015  0.3960453723194847  1.0000
  C   C6        1.0  0.7908243980936761  0.9600771245611525  0.6039519922704528  1.0000
  C   C7        1.0  0.0459167777319607  0.11172247200913431  0.3721076165899007  1.0000
  C   C8        1.0  0.9540799614978892  0.8882781473740309  0.6278910640789875  1.0000
  C   C9        1.0  0.6964117406441162  0.6162627098286322  0.20361360778125714  1.0000
  C   C10       1.0  0.3035893260345688  0.383738832491737  0.7963870842150059  1.0000
  C   C11       1.0  0.8112109914484479  0.701061257595498  0.3068662440729995  1.0000
  C   C12       1.0  0.18878938035164342  0.298938438850449  0.6931339259194333  1.0000
  C   C13       1.0  0.7787819499747145  0.8165659262844898  0.1388834932916083  1.0000
  C   C14       1.0  0.22121753729140187  0.1834374619102945  0.8611148908971984  1.0000
  C   C15       1.0  0.6239499046939088  0.9023012553178447  0.11261424066221082  1.0000
  C   C16       1.0  0.3760525202638547  0.09769936406532048  0.8873843993253843  1.0000
  C   C17       1.0  0.746840145443045  0.3330437375109625  0.7722373362368202  1.0000
  C   C18       1.0  0.25316066862404085  0.6669541130605765  0.2277637266574359  1.0000
  C   C19       1.0  0.866291645730378  0.48465186391656084  0.7271739125129815  1.0000
  C   C20       1.0  0.13370803119112648  0.515345986654971  0.2728264469965822  1.0000
  C   C21       1.0  0.881298478389958  0.4065556861567998  0.9052558904780454  1.0000
  C   C22       1.0  0.11870211454363037  0.5934430873519432  0.09474365868388192  1.0000
  C   C23       1.0  0.7477892700591369  0.4576485670743793  0.9674886414128778  1.0000
  C   C24       1.0  0.2522147343111953  0.5423502064343637  0.032511594861219406  1.0000
  S   S1        1.0  0.9715341514081075  0.2179433153192321  0.45638072091234955  1.0000
  S   S2        1.0  0.02846508324640238  0.782056381126722  0.5436194572163444  1.0000
  S   S3        1.0  0.5125700711122363  0.9487028464053253  0.21488046955976614  1.0000
  S   S4        1.0  0.48743121669993894  0.05129777297783279  0.7851196016059775  1.0000
  S   S5        1.0  0.678469965490443  0.621046293379564  0.9335204485451599  1.0000
  S   S6        1.0  0.3215315434552366  0.3789534030663901  0.0664797133110255  1.0000
  N   N1        1.0  0.4595017087458616  0.2225598472354449  0.4845770646688976  1.0000
  N   N2        1.0  0.5404963887630672  0.7774398492105022  0.5154224100751037  1.0000
  N   N3        1.0  0.45833732857086323  0.262844210505925  0.3874418447144237  1.0000
  N   N4        1.0  0.5416621272171439  0.737154563002818  0.6125577125837579  1.0000
  N   N5        1.0  0.31832378485608365  0.1200455197541217  0.41159575918198504  1.0000
  N   N6        1.0  0.6816743126528452  0.8799541766918323  0.5884015809991823  1.0000
  N   N7        1.0  0.7730685003878648  0.5999525634825034  0.3527248590207677  1.0000
  N   N8        1.0  0.22693120801174163  0.4000499017750769  0.6472743273794137  1.0000
  N   N9        1.0  0.7001101964518667  0.5462136215885565  0.2872433174665687  1.0000
  N   N10       1.0  0.2998890382026431  0.4537860748573905  0.7127575721830794  1.0000
  N   N11       1.0  0.7668384337602988  0.7130640559902162  0.2131900074461086  1.0000
  N   N12       1.0  0.23316399119746486  0.2869365633929419  0.7868100555833807  1.0000
  N   N13       1.0  0.725598450292395  0.3626109539179652  0.6786588544853417  1.0000
  N   N14       1.0  0.2744019215077032  0.6373887425279818  0.32134060398615105  1.0000
  N   N15       1.0  0.8019963963674144  0.45779346821608863  0.6498625159459905  1.0000
  N   N16       1.0  0.19800397543268394  0.5422062282298654  0.35013694252549504  1.0000
  N   N17       1.0  0.8357534794688063  0.4070826833027752  0.8048773233278085  1.0000
  N   N18       1.0  0.16424825061036338  0.5929160902059678  0.19512221769785754  1.0000
  O   O1        1.0  0.8017567689537088  0.2352539255992241  0.4466427866281535  1.0000
  O   O2        1.0  0.19824268683429838  0.7647448479095189  0.5533603282747633  1.0000
  O   O3        1.0  0.0300092007110209  0.3325001274952371  0.4240373162952338  1.0000
  O   O4        1.0  0.9699877596523265  0.667499568950717  0.5759635896269231  1.0000
  O   O5        1.0  0.030425289509942402  0.1595776891997858  0.5520146587717321  1.0000
  O   O6        1.0  0.9695764405692273  0.8404210843089571  0.44798559377488095  1.0000
  O   O7        1.0  0.3907935136599505  0.0516143404403024  0.1771721243621016  1.0000
  O   O8        1.0  0.6092075530187344  0.9483872018800666  0.8228271445922601  1.0000
  O   O9        1.0  0.6230745572347091  0.9782562187542112  0.2822893788250909  1.0000
  O   O10       1.0  0.3769251511648974  0.0217462465033691  0.7177105190960447  1.0000
  O   O11       1.0  0.4502370080487881  0.8373809291446221  0.253382197954295  1.0000
  O   O12       1.0  0.549764974641981  0.162621536112951  0.7466183952152718  1.0000
  O   O13       1.0  0.5645534433622716  0.658153906778864  0.007550269734011321  1.0000
  O   O14       1.0  0.435448065583401  0.3418457896670901  0.992449892122167  1.0000
  O   O15       1.0  0.8179649742279409  0.6756583338726116  0.9360546090707444  1.0000
  O   O16       1.0  0.18203745072982258  0.3243422855105464  0.0639461654796918  1.0000
  O   O17       1.0  0.6088727849082504  0.631114615385556  0.8376359876171476  1.0000
  O   O18       1.0  0.39112986118301046  0.3688850810603981  0.162364166102769  1.0000
