data_image0
_chemical_formula_structural       K2Zn2Fe2P2H54C50S2Br6O6
_chemical_formula_sum              "K2 Zn2 Fe2 P2 H54 C50 S2 Br6 O6"
_cell_length_a       8.779133758452929
_cell_length_b       9.283804291284145
_cell_length_c       18.2463
_cell_angle_alpha    88.44077281832884
_cell_angle_beta     80.25303250926522
_cell_angle_gamma    85.66845633338075

_space_group_name_H-M_alt    "P 1"
_space_group_IT_number       1

loop_
  _space_group_symop_operation_xyz
  'x, y, z'

loop_
  _atom_site_type_symbol
  _atom_site_label
  _atom_site_symmetry_multiplicity
  _atom_site_fract_x
  _atom_site_fract_y
  _atom_site_fract_z
  _atom_site_occupancy
  K   K1        1.0  0.22851505682866963  0.4147147557442636  0.9620623665759142  1.0000
  K   K2        1.0  0.7714756904890123  0.5852733725445773  0.0379347698893397  1.0000
  Zn  Zn1       1.0  0.1930875177356839  0.3256412705816061  0.7564533764227122  1.0000
  Zn  Zn2       1.0  0.8069114745885885  0.6743598218647335  0.2435467453402751  1.0000
  Fe  Fe1       1.0  0.641148080951382  0.0252757857447108  0.7246535913053831  1.0000
  Fe  Fe2       1.0  0.3588508279582854  0.9747263870480865  0.2753432339572797  1.0000
  P   P1        1.0  0.3233881668224754  0.1904974910396859  0.6509473601860876  1.0000
  P   P2        1.0  0.6766096697540576  0.8095036014066537  0.34905395183297117  1.0000
  H   H1        1.0  0.894167720612124  0.9859533474455517  0.7981309207166802  1.0000
  H   H2        1.0  0.105827387395891  0.014053146733083098  0.2018710868334779  1.0000
  H   H3        1.0  0.7702841849461564  0.7479821919769164  0.7553820456221416  1.0000
  H   H4        1.0  0.22971926353985597  0.2520210611623384  0.24461932741122178  1.0000
  H   H5        1.0  0.45909452133076906  0.7959863065170225  0.781858627647118  1.0000
  H   H6        1.0  0.5409051383103858  0.204006143157649  0.21813991524625456  1.0000
  H   H7        1.0  0.3890800397927947  0.0641574547886492  0.8414291898464441  1.0000
  H   H8        1.0  0.6109206087668753  0.9358371555789375  0.15856869452233718  1.0000
  H   H9        1.0  0.6229120631111442  0.3223526959617189  0.6940987839123878  1.0000
  H   H10       1.0  0.37708461771764956  0.6776483964846207  0.30590207419378856  1.0000
  H   H11       1.0  0.8992164287354711  0.1682531574577268  0.6585689009860685  1.0000
  H   H12       1.0  0.10077934658941959  0.8317446939492399  0.34143262380710837  1.0000
  H   H13       1.0  0.8474545422317021  0.9122197016481337  0.6028916269721449  1.0000
  H   H14       1.0  0.1525400773454493  0.0877781497588259  0.39710779973920296  1.0000
  H   H15       1.0  0.5392313214665806  0.908586496507965  0.602271503635805  1.0000
  H   H16       1.0  0.4607641201998689  0.0914156762848322  0.39772560405715746  1.0000
  H   H17       1.0  0.5856013824204497  0.303098761377079  0.8417861561700377  1.0000
  H   H18       1.0  0.41438704134495213  0.6969044917621758  0.15821753684063108  1.0000
  H   H19       1.0  0.785726249950187  0.2500170184816923  0.8434394697662171  1.0000
  H   H20       1.0  0.2142731594471385  0.749978672232352  0.15656233697781366  1.0000
  H   H21       1.0  0.5748985393701957  0.2509558395541873  0.5269080465574802  1.0000
  H   H22       1.0  0.42510368201026694  0.7490333690811042  0.4730925247615474  1.0000
  H   H23       1.0  0.5741050528655621  0.3640227392152298  0.40257143866646317  1.0000
  H   H24       1.0  0.4258961795963785  0.6359643087271465  0.5974297911771487  1.0000
  H   H25       1.0  0.3246902543700756  0.45844285900135157  0.3651057215516147  1.0000
  H   H26       1.0  0.6753173286760301  0.541551751366235  0.6348943382381478  1.0000
  H   H27       1.0  0.0795016729757378  0.4494338498833343  0.45449566232576893  1.0000
  H   H28       1.0  0.9204978911940102  0.5505748049882158  0.5455048562131778  1.0000
  H   H29       1.0  0.07930886848236442  0.3411626081518833  0.581000625083348  1.0000
  H   H30       1.0  0.9207006089861807  0.6588374039479987  0.4190003017200894  1.0000
  H   H31       1.0  0.23319165195241717  0.0540832240624809  0.5209241734008003  1.0000
  H   H32       1.0  0.7668109744442974  0.9459157076909362  0.4790767783693539  1.0000
  H   H33       1.0  0.1278616692465704  0.8195043685736394  0.5057623820017341  1.0000
  H   H34       1.0  0.8721386456546654  0.180494563179785  0.49423930611160205  1.0000
  H   H35       1.0  0.0739504047080501  0.6511248105802636  0.6158922522738379  1.0000
  H   H36       1.0  0.92604743186849  0.348876281866076  0.3841074155762669  1.0000
  H   H37       1.0  0.12218929801410643  0.7213840621669192  0.738071256447945  1.0000
  H   H38       1.0  0.8778146509595645  0.2786127088935899  0.26192578110937587  1.0000
  H   H39       1.0  0.22230266073996313  0.961105378898438  0.7546519281659483  1.0000
  H   H40       1.0  0.7777050057207617  0.0388881511226913  0.24534868784255073  1.0000
  H   H41       1.0  0.8492773768555183  0.0770384256141838  0.9673299003815075  1.0000
  H   H42       1.0  0.15072706054902338  0.9229669882179934  0.032672458296218586  1.0000
  H   H43       1.0  0.6766840384958214  0.9763544691611513  0.9785739331426697  1.0000
  H   H44       1.0  0.3233188381447221  0.0236412215528929  0.021430331452641792  1.0000
  H   H45       1.0  0.7111212203063885  0.08487201778527259  0.053168147154508495  1.0000
  H   H46       1.0  0.28888380100041644  0.915125833621687  0.9468315283785528  1.0000
  H   H47       1.0  0.9644414001899478  0.5414631629566387  0.860088591169159  1.0000
  H   H48       1.0  0.035560809133720284  0.45854117052908094  0.1399123197889054  1.0000
  H   H49       1.0  0.932368070826179  0.7949902270822236  0.882755944931617  1.0000
  H   H50       1.0  0.0676354610744454  0.2050119457105737  0.11724324403888889  1.0000
  H   H51       1.0  0.13247374632875622  0.7305670070647636  0.8582361468309686  1.0000
  H   H52       1.0  0.8675307744903905  0.2694373264209489  0.1417618355586328  1.0000
  H   H53       1.0  0.04877683488444971  0.7554895195175177  0.9534374522926684  1.0000
  H   H54       1.0  0.9512215735375594  0.24451913535403239  0.04656206427707587  1.0000
  C   C1        1.0  0.6469725720328372  0.072373489606079  0.8316295571525102  1.0000
  C   C2        1.0  0.35302278621900035  0.927629763533183  0.16836973460330995  1.0000
  C   C3        1.0  0.7718172974491254  0.9682389065643733  0.8036636813214955  1.0000
  C   C4        1.0  0.2281776437296656  0.0317697483071768  0.19633556962224216  1.0000
  C   C5        1.0  0.7060881597096014  0.8437970390410499  0.7807416668922897  1.0000
  C   C6        1.0  0.2939104989562367  0.15620837479112737  0.2192545858267962  1.0000
  C   C7        1.0  0.5409093655842554  0.8698787632438538  0.7946131895619999  1.0000
  C   C8        1.0  0.45908996039846534  0.13011800781665528  0.2053836765127457  1.0000
  C   C9        1.0  0.5041157969017503  0.0105452617821058  0.8261059428822576  1.0000
  C   C10       1.0  0.49588451799948535  0.9894536699713185  0.1738919088368505  1.0000
  C   C11       1.0  0.5233722901911548  0.1316045645436432  0.6504121302386422  1.0000
  C   C12       1.0  0.4766271192061708  0.8683911261704013  0.3495907726180221  1.0000
  C   C13       1.0  0.6425122593018529  0.21678015968377906  0.6685932155646481  1.0000
  C   C14       1.0  0.3574835160230307  0.7832176917231806  0.3314094053411694  1.0000
  C   C15       1.0  0.7882234901966286  0.135376054030516  0.6489462530051424  1.0000
  C   C16       1.0  0.2117733574613894  0.8646228777229085  0.3510535253132332  1.0000
  C   C17       1.0  0.7603832142840546  0.9996467388079253  0.6197370882763664  1.0000
  C   C18       1.0  0.2396136333739634  0.0003521929454919  0.3802643342109633  1.0000
  C   C19       1.0  0.5976463934734468  0.9967805796533398  0.6202669035143344  1.0000
  C   C20       1.0  0.40234723718518245  0.0032151110607046  0.3797370181158256  1.0000
  C   C21       1.0  0.666630726957905  0.21782377436275624  0.8596028709301891  1.0000
  C   C22       1.0  0.3333645478793201  0.7821805591229563  0.14039860488848888  1.0000
  C   C23       1.0  0.3271578300553202  0.2862572404344306  0.5619450342766327  1.0000
  C   C24       1.0  0.6728459520891334  0.7137416913189938  0.4380547272374428  1.0000
  C   C25       1.0  0.46603613746141553  0.2950264126386415  0.5116133050668097  1.0000
  C   C26       1.0  0.5339681451707037  0.7049660370360229  0.4883881495907261  1.0000
  C   C27       1.0  0.4654891604958991  0.3583779289692046  0.4413540974364665  1.0000
  C   C28       1.0  0.5345128106407344  0.6416145207054669  0.5586469974516247  1.0000
  C   C29       1.0  0.32610960037023057  0.4122483247793483  0.4205580533126819  1.0000
  C   C30       1.0  0.6738885698647509  0.5877484462811609  0.5794438394123631  1.0000
  C   C31       1.0  0.1878068972070039  0.4066370052735309  0.4710244272265811  1.0000
  C   C32       1.0  0.8121911896133653  0.5933608461334287  0.5289752651107731  1.0000
  C   C33       1.0  0.18766778252541627  0.345240916032985  0.541727875981067  1.0000
  C   C34       1.0  0.8123350107005154  0.6547558550275169  0.45827144794496627  1.0000
  C   C35       1.0  0.23547359293288386  0.0229119876933552  0.6385618703315288  1.0000
  C   C36       1.0  0.7645169754987791  0.9770934261388149  0.3614388777858366  1.0000
  C   C37       1.0  0.20748071001570884  0.9825189260537569  0.568879483615305  1.0000
  C   C38       1.0  0.7925184491377878  0.0174800056996673  0.4311212025288356  1.0000
  C   C39       1.0  0.14856969422641703  0.8495401608148114  0.5604537168007866  1.0000
  C   C40       1.0  0.8514330989995146  0.1504566102456977  0.43954670323788037  1.0000
  C   C41       1.0  0.1186402330965777  0.7558838459748998  0.6214585599294864  1.0000
  C   C42       1.0  0.8813613209670096  0.24411400543206696  0.3785413980338816  1.0000
  C   C43       1.0  0.14545141629633215  0.7960878590841318  0.6911310321905757  1.0000
  C   C44       1.0  0.8545521990189044  0.2039132333622078  0.30886761688603304  1.0000
  C   C45       1.0  0.2028407867208486  0.9292999791581309  0.7000819820957886  1.0000
  C   C46       1.0  0.7971568830264675  0.070703273981124  0.2999187655421166  1.0000
  C   C47       1.0  0.7268378788694108  0.0744434334206971  0.9926032654351218  1.0000
  C   C48       1.0  0.2731642470396451  0.9255619804114729  0.007398733473159805  1.0000
  C   C49       1.0  0.025931969351724107  0.722278589034616  0.8992803649559136  1.0000
  C   C50       1.0  0.9740737072151621  0.2777257444511037  0.10071916745920356  1.0000
  S   S1        1.0  0.6245984398885156  0.2273146180013015  0.959505009242548  1.0000
  S   S2        1.0  0.3753985745987265  0.7726821530592076  0.040496977625935  1.0000
  Br  Br1       1.0  0.950810638737039  0.4542089812302094  0.7373377264882137  1.0000
  Br  Br2       1.0  0.049189759578808896  0.5457888701767502  0.26266232561859226  1.0000
  Br  Br3       1.0  0.37471954884650677  0.4913383283183563  0.7851449827227481  1.0000
  Br  Br4       1.0  0.6252838162248935  0.5086660051673633  0.2148437768528737  1.0000
  Br  Br5       1.0  0.10471045517455478  0.1693745570817171  0.8648577504537442  1.0000
  Br  Br6       1.0  0.8952764791846662  0.8306330174433683  0.13514326376909472  1.0000
  O   O1        1.0  0.458651918505538  0.2141225073957003  0.9835485788762737  1.0000
  O   O2        1.0  0.5413626703848209  0.7858861474758498  0.01645400413591599  1.0000
  O   O3        1.0  0.6875978041422286  0.357323510825637  0.9813764492845677  1.0000
  O   O4        1.0  0.3124132340903074  0.6426862243923708  0.018623667713917793  1.0000
  O   O5        1.0  0.9829930108128269  0.5756874584176828  0.9083143392692676  1.0000
  O   O6        1.0  0.017004408690659997  0.4243190357609521  0.0916869319377014  1.0000
