data_image0
_chemical_formula_structural       Cu4H6C6I4N6
_chemical_formula_sum              "Cu4 H6 C6 I4 N6"
_cell_length_a       6.81605874304881
_cell_length_b       7.613159778495785
_cell_length_c       8.581435050889556
_cell_angle_alpha    116.2839845891022
_cell_angle_beta     89.99942180708044
_cell_angle_gamma    90.00035595646268

_space_group_name_H-M_alt    "P 1"
_space_group_IT_number       1

loop_
  _space_group_symop_operation_xyz
  'x, y, z'

loop_
  _atom_site_type_symbol
  _atom_site_label
  _atom_site_symmetry_multiplicity
  _atom_site_fract_x
  _atom_site_fract_y
  _atom_site_fract_z
  _atom_site_occupancy
  Cu  Cu1       1.0  0.7852089433170163  0.0285433487936402  0.3754682726212266  1.0000
  Cu  Cu2       1.0  0.2852094868460355  0.9714543201629265  0.6245381117280644  1.0000
  Cu  Cu3       1.0  0.2850693917123621  0.34720122719679836  0.3757855547085285  1.0000
  Cu  Cu4       1.0  0.7850688179309487  0.6527921205242675  0.6242097885590852  1.0000
  H   H1        1.0  0.0640798770877851  0.40946152745508607  0.7292840713055497  1.0000
  H   H2        1.0  0.5640903106362457  0.5905417528071766  0.27071536222244674  1.0000
  H   H3        1.0  0.5644947742595078  0.3194787139989046  0.7291999919660129  1.0000
  H   H4        1.0  0.0644984698228868  0.6805378067965789  0.2707977151175029  1.0000
  H   H5        1.0  0.7317355244530361  0.9125271920710316  0.9997415445908902  1.0000
  H   H6        1.0  0.23176628024067714  0.08745725832385888  0.00025406928841680123  1.0000
  C   C1        1.0  0.0158007602466981  0.5266860475411262  0.8529742935677336  1.0000
  C   C2        1.0  0.5158238982150039  0.47333050176685987  0.14701089346577592  1.0000
  C   C3        1.0  0.5160317851463958  0.3260963784613792  0.8529399354319979  1.0000
  C   C4        1.0  0.016041812942134505  0.6738980585162008  0.1470539324704986  1.0000
  C   C5        1.0  0.83361943467456  0.802011313677475  0.9998178388270703  1.0000
  C   C6        1.0  0.3336408837440885  0.19798776363754908  0.00020513479636720088  1.0000
  I   I1        1.0  0.4025876112276521  0.009800950629667697  0.3557450134469421  1.0000
  I   I2        1.0  0.9025881853596971  0.9901954109144455  0.6442624888717463  1.0000
  I   I3        1.0  0.9025172793374664  0.3461025780580798  0.3556024423008425  1.0000
  I   I4        1.0  0.4025147392417238  0.6538953406080168  0.64439402667427  1.0000
  N   N1        1.0  0.8920570565935009  0.661590070282102  0.8458991605502392  1.0000
  N   N2        1.0  0.3920684520037269  0.3383975688341536  0.1540944455419364  1.0000
  N   N3        1.0  0.39211797117969377  0.18429169778291768  0.8461477380601324  1.0000
  N   N4        1.0  0.8921029005339632  0.8157077348272209  0.1538412373474785  1.0000
  N   N5        1.0  0.07953652662166631  0.5273166706631327  0.00012349440930846118  1.0000
  N   N6        1.0  0.5795327491790019  0.47269533018244647  0.9998909708875845  1.0000
