data_image0
_chemical_formula_structural       Al4H36C68S6O47
_chemical_formula_sum              "Al4 H36 C68 S6 O47"
_cell_length_a       6.695396426249221
_cell_length_b       19.999146024512015
_cell_length_c       23.750434200594672
_cell_angle_alpha    90.10978533148274
_cell_angle_beta     92.77434349415694
_cell_angle_gamma    90.66898556367192

_space_group_name_H-M_alt    "P 1"
_space_group_IT_number       1

loop_
  _space_group_symop_operation_xyz
  'x, y, z'

loop_
  _atom_site_type_symbol
  _atom_site_label
  _atom_site_symmetry_multiplicity
  _atom_site_fract_x
  _atom_site_fract_y
  _atom_site_fract_z
  _atom_site_occupancy
  Al  Al1       1.0  0.05529358094082681  0.49985709497367753  0.4981944220246319  1.0000
  Al  Al2       1.0  0.555842622665601  0.49827688251401275  0.49989569097428443  1.0000
  Al  Al3       1.0  0.7549071946784737  0.0028448553216762003  0.006141593574753304  1.0000
  Al  Al4       1.0  0.2547972971143153  0.0026349019560854  0.0022492643559033003  1.0000
  H   H1        1.0  0.9564300797931722  0.37354029887554674  0.3543965781953702  1.0000
  H   H2        1.0  0.5876529639621352  0.2827425617820652  0.4738927248673193  1.0000
  H   H3        1.0  0.6514946173914637  0.11562694698391601  0.3271800060998586  1.0000
  H   H4        1.0  0.7888490187707476  0.11890648887266762  0.2351879496792151  1.0000
  H   H5        1.0  0.0991647832812106  0.8408915996766739  0.2972479153793586  1.0000
  H   H6        1.0  0.6119231837073258  0.7914445486976548  0.19884387134700887  1.0000
  H   H7        1.0  0.22402389439082532  0.337648386542206  0.7800487553768036  1.0000
  H   H8        1.0  0.0969225697179468  0.20319853383568903  0.7848670652836134  1.0000
  H   H9        1.0  0.7280610740408662  0.28112722074369867  0.7087974904139216  1.0000
  H   H10       1.0  0.5073978633404863  0.6139658326048619  0.8414941922806065  1.0000
  H   H11       1.0  0.4462894277763709  0.6208469379748038  0.6573384633744581  1.0000
  H   H12       1.0  0.1978066359322455  0.7245328550986798  0.5125920349917763  1.0000
  H   H13       1.0  0.20841893662840508  0.8866410056559535  0.6601908084655648  1.0000
  H   H14       1.0  0.4858481209930332  0.7725346574349886  0.9908703474980173  1.0000
  H   H15       1.0  0.47803102414654564  0.6177408487419386  0.7386113764675953  1.0000
  H   H16       1.0  0.28479041936154914  0.8864280718804809  0.760733041585887  1.0000
  H   H17       1.0  0.18342258618180554  0.829373751759732  0.5689617906939333  1.0000
  H   H18       1.0  0.4696801690498519  0.3635963412733006  0.23892254916598432  1.0000
  H   H19       1.0  0.2593363042059877  0.24156875442818662  0.4257424141352359  1.0000
  H   H20       1.0  0.2034065590118175  0.6512499874468248  0.1803929283254249  1.0000
  H   H21       1.0  0.8900158457218481  0.6598842240804147  0.1177307725432044  1.0000
  H   H22       1.0  0.4527697130333622  0.6652167822863717  0.2418669548148031  1.0000
  H   H23       1.0  0.5785824706916644  0.785360628464929  0.3392226290015188  1.0000
  H   H24       1.0  0.7798397895769824  0.4030322747926364  0.7966944557429088  1.0000
  H   H25       1.0  0.07100790805596091  0.15629693473961478  0.6751537544451338  1.0000
  H   H26       1.0  0.4395993791121597  0.13163496391062776  0.6285251873653408  1.0000
  H   H27       1.0  0.5139168966953706  0.6590759774087049  0.9772846418803737  1.0000
  H   H28       1.0  0.5163870772455752  0.9051564406739278  0.7991921737596428  1.0000
  H   H29       1.0  0.4154936914703172  0.29914508823436853  0.0655619745673022  1.0000
  H   H30       1.0  0.3004821119668578  0.16451192759135586  0.021058643532065  1.0000
  H   H31       1.0  0.7684424766181053  0.10360534664916798  0.1152795484243114  1.0000
  H   H32       1.0  0.2729586950586764  0.45785627285911795  0.3092975842580969  1.0000
  H   H33       1.0  0.2921068361342378  0.4677053403677577  0.4292327435187175  1.0000
  H   H34       1.0  0.8199653381144573  0.545633226009663  0.560843412080942  1.0000
  H   H35       1.0  0.5056866703594665  0.9907093490244209  0.07714569513762369  1.0000
  H   H36       1.0  0.9820759662770727  0.9602421120287732  0.9400771030400604  1.0000
  C   C1        1.0  0.30531938200797276  0.42406540196534337  0.5775455261377402  1.0000
  C   C2        1.0  0.3256571635400435  0.6030320632982225  0.5503931992093669  1.0000
  C   C3        1.0  0.7976926669723599  0.5713503556457908  0.4181302847342536  1.0000
  C   C4        1.0  0.7884858361669773  0.39610995364739676  0.4492668545751641  1.0000
  C   C5        1.0  0.06068436451027281  0.1633501063862184  0.09579379117332819  1.0000
  C   C6        1.0  0.7876906729348149  0.331835918522188  0.4182933279818073  1.0000
  C   C7        1.0  0.24865871448702143  0.26524054932570357  0.1206542311875936  1.0000
  C   C8        1.0  0.2110745834126391  0.21089933594159757  0.0846823202588141  1.0000
  C   C9        1.0  0.9503076632398262  0.1698035856460862  0.1449298492147975  1.0000
  C   C10       1.0  0.013921588236122802  0.21624941656759236  0.188039199148669  1.0000
  C   C11       1.0  0.16252683483119063  0.26539662104905665  0.1742363828853115  1.0000
  C   C12       1.0  0.937959491543836  0.21529342263439588  0.2443825891399101  1.0000
  C   C13       1.0  0.9939696283852512  0.2657721859332867  0.28447114403844853  1.0000
  C   C14       1.0  0.16054672833691797  0.3098777696006891  0.2718093212343362  1.0000
  C   C15       1.0  0.2400625005822974  0.3101281757516574  0.2179952430019156  1.0000
  C   C16       1.0  0.8166232315713629  0.16121353159125823  0.2630919764764101  1.0000
  C   C17       1.0  0.7373535697521734  0.1592393958061535  0.3150662452990716  1.0000
  C   C18       1.0  0.7566193733516259  0.21518784962979964  0.3516932497168526  1.0000
  C   C19       1.0  0.8846761493858536  0.2695409981598261  0.33563359486033306  1.0000
  C   C20       1.0  0.6509995610909555  0.22163648961310403  0.40228699650885597  1.0000
  C   C21       1.0  0.670819431212486  0.2778625140647364  0.4359202400294322  1.0000
  C   C22       1.0  0.8874064581269749  0.3279174516500944  0.3688604842135703  1.0000
  C   C23       1.0  0.8104633800531929  0.6977809831497981  0.22398233968570483  1.0000
  C   C24       1.0  0.0317979994785063  0.7197029592753381  0.2121724835446628  1.0000
  C   C25       1.0  0.025127452420441905  0.8830880918124182  0.1312459970498736  1.0000
  C   C26       1.0  0.7920481335048918  0.6169244498193933  0.3708424489164344  1.0000
  C   C27       1.0  0.7440689856908593  0.7724006898630478  0.2219381086826715  1.0000
  C   C28       1.0  0.9656132500432832  0.7949116383389879  0.2105206133428297  1.0000
  C   C29       1.0  0.7957888340915816  0.7788207356766037  0.28772161068499  1.0000
  C   C30       1.0  0.8597710968566332  0.7014124747917805  0.2896682465037372  1.0000
  C   C31       1.0  0.015635482603983102  0.7999894917208369  0.2762250704757534  1.0000
  C   C32       1.0  0.0789801270825734  0.7251152155897245  0.2778660040535712  1.0000
  C   C33       1.0  0.011348540255035303  0.8421493684694853  0.168706973146449  1.0000
  C   C34       1.0  0.8139597297122949  0.6545882263287554  0.3314967639543696  1.0000
  C   C35       1.0  0.520979746781336  0.27526235471719934  0.7868201310262392  1.0000
  C   C36       1.0  0.3063006268740551  0.2950839030379485  0.7647423736469108  1.0000
  C   C37       1.0  0.31787079032685744  0.37374772368544035  0.6209672252888581  1.0000
  C   C38       1.0  0.5023089690028896  0.11852137665302824  0.8772725083399705  1.0000
  C   C39       1.0  0.5869413978025904  0.2642481753172278  0.7254772931708544  1.0000
  C   C40       1.0  0.3728172630600922  0.2859264619345653  0.7020873150527934  1.0000
  C   C41       1.0  0.5173279233321253  0.1900283876688675  0.728434779369877  1.0000
  C   C42       1.0  0.44993159279161427  0.19921689077979474  0.7909806862080516  1.0000
  C   C43       1.0  0.29891677950860907  0.20935672697564203  0.7054257765779398  1.0000
  C   C44       1.0  0.2354388727680998  0.22072520728875847  0.7671772747960617  1.0000
  C   C45       1.0  0.337613583528082  0.33215774714721397  0.6580671594807086  1.0000
  C   C46       1.0  0.4857518658506094  0.1557340032781482  0.8370036884491157  1.0000
  C   C47       1.0  0.48083956499129243  0.8371881042883306  0.9178547738086066  1.0000
  C   C48       1.0  0.3241973618597244  0.6670673881604117  0.5828906787152306  1.0000
  C   C49       1.0  0.48572461205517214  0.7170796075405335  0.9128554846779764  1.0000
  C   C50       1.0  0.4817092676316221  0.7747663454913295  0.9448697697257913  1.0000
  C   C51       1.0  0.4710885334011153  0.8423440175814035  0.8594327891296274  1.0000
  C   C52       1.0  0.4485328577173108  0.7837469785525857  0.8253842658025831  1.0000
  C   C53       1.0  0.4722984167177984  0.7204675287267436  0.8530311754157366  1.0000
  C   C54       1.0  0.4018607530380152  0.7844937231987075  0.7650571957262997  1.0000
  C   C55       1.0  0.4177264588500762  0.7245076483657373  0.7333437641216561  1.0000
  C   C56       1.0  0.46518270211555557  0.6639439608551214  0.7623735709675898  1.0000
  C   C57       1.0  0.48310408728874416  0.6613889805058905  0.8199256047314093  1.0000
  C   C58       1.0  0.3228779989194592  0.8423891651861554  0.7366745187655823  1.0000
  C   C59       1.0  0.2732522554240404  0.8422070630563566  0.6800440704483108  1.0000
  C   C60       1.0  0.29702334431292604  0.784114248006034  0.6465589154441318  1.0000
  C   C61       1.0  0.37071061749564643  0.7246492336919275  0.6731855109423037  1.0000
  C   C62       1.0  0.23911925220153313  0.7833826492908289  0.5883881542373857  1.0000
  C   C63       1.0  0.24786697745898323  0.7255520660124121  0.5569707801294044  1.0000
  C   C64       1.0  0.38726685431349483  0.666987683284191  0.63925251395505  1.0000
  C   C65       1.0  0.4869134985498178  0.899946820453131  0.9520712128144027  1.0000
  C   C66       1.0  0.5102332955061613  0.07500266797517702  0.9253415583098459  1.0000
  C   C67       1.0  0.031070071532226996  0.1060002120639609  0.05796881825111199  1.0000
  C   C68       1.0  0.013694248027036301  0.9308561147549953  0.08588850766682299  1.0000
  S   S1        1.0  0.4684498575662701  0.1614074190403443  0.42322296233071205  1.0000
  S   S2        1.0  0.7236558941414514  0.6268810900030746  0.18618323100673  1.0000
  S   S3        1.0  0.28733107067739644  0.6906373895659643  0.3147710285071454  1.0000
  S   S4        1.0  0.6685284459046343  0.31700013470823063  0.8395778128520347  1.0000
  S   S5        1.0  0.6396470307207309  0.1209263756723686  0.7005573737483813  1.0000
  S   S6        1.0  0.3056943637619511  0.35194380831217137  0.325521467137996  1.0000
  O   O1        1.0  0.49218659797272585  0.5821730453864549  0.5343216011726639  1.0000
  O   O2        1.0  0.1321858351456129  0.4360889408374221  0.5559449523316005  1.0000
  O   O3        1.0  0.9514520706614746  0.42979790894318654  0.4515022421283135  1.0000
  O   O4        1.0  0.1567649204237256  0.5737588432243257  0.5425473089409181  1.0000
  O   O5        1.0  0.9718886691546372  0.5633867007612638  0.4405563624806135  1.0000
  O   O6        1.0  0.4703427495808939  0.45196716667302905  0.5660858353986953  1.0000
  O   O7        1.0  0.3006880275787297  0.4904943359589425  0.4654286927299153  1.0000
  O   O8        1.0  0.634141073136618  0.5443684208671655  0.4316123345763003  1.0000
  O   O9        1.0  0.6257330749393972  0.4138154630105506  0.4703290374987503  1.0000
  O   O10       1.0  0.8123633739366413  0.5100104464915844  0.5330013625286156  1.0000
  O   O11       1.0  0.3454906811151872  0.047438677408671  0.9375970062685965  1.0000
  O   O12       1.0  0.654263614089487  0.9301904189904563  0.959496191868638  1.0000
  O   O13       1.0  0.8375855379478808  0.9404709638540256  0.06475431221878128  1.0000
  O   O14       1.0  0.6791490582358931  0.06800759249620822  0.9515012620890104  1.0000
  O   O15       1.0  0.8646503337259193  0.0730775280697458  0.0564249167688828  1.0000
  O   O16       1.0  0.3213363710352866  0.9181828969637778  0.9712163028535059  1.0000
  O   O17       1.0  0.508703477345783  0.011378760927222203  0.0401965550828933  1.0000
  O   O18       1.0  0.17906226669815342  0.0894465785942344  0.0284929276712234  1.0000
  O   O19       1.0  0.1753831256779748  0.9589574297936211  0.0716601765659561  1.0000
  O   O20       1.0  0.9966582350598828  0.9915764409251938  0.9713226083742513  1.0000
  O   O21       1.0  0.39623854126000424  0.34790712813079955  0.20382245725054557  1.0000
  O   O22       1.0  0.370094154977977  0.1319768291083321  0.3736507533967597  1.0000
  O   O23       1.0  0.5512703201962168  0.12007205160902151  0.46767880140568246  1.0000
  O   O24       1.0  0.3113105931396802  0.20827109262975793  0.4532863969897747  1.0000
  O   O25       1.0  0.14100152659390372  0.6937479517328313  0.1696322934022447  1.0000
  O   O26       1.0  0.8583479332865879  0.5732632653262473  0.1992097687109222  1.0000
  O   O27       1.0  0.5092656696597899  0.616108041283411  0.1905422157513001  1.0000
  O   O28       1.0  0.7455633757498391  0.651767103440598  0.1226698466941301  1.0000
  O   O29       1.0  0.34815822567773574  0.7332479487853194  0.3616864286396079  1.0000
  O   O30       1.0  0.2559761589453018  0.6200075314535951  0.3207188934638339  1.0000
  O   O31       1.0  0.4471151303333656  0.7040991595045369  0.2687500066241242  1.0000
  O   O32       1.0  0.6950806449529594  0.8114838311877367  0.3273943476782009  1.0000
  O   O33       1.0  0.5651304575945416  0.31650125496383913  0.8908820310983286  1.0000
  O   O34       1.0  0.8725460068608867  0.2951604038507654  0.83668817400428  1.0000
  O   O35       1.0  0.6568702842563638  0.39315004607342985  0.815906085940874  1.0000
  O   O36       1.0  0.2000629164972807  0.17459903424484938  0.6627116128205088  1.0000
  O   O37       1.0  0.8544455816324402  0.1297132577155793  0.7070638909968352  1.0000
  O   O38       1.0  0.5477515864007358  0.060893632335727  0.7205747502489287  1.0000
  O   O39       1.0  0.5874515870813752  0.13218531072397613  0.6351816499911891  1.0000
  O   O40       1.0  0.500480808066186  0.6543953473375056  0.9364815792326057  1.0000
  O   O41       1.0  0.48366156628462414  0.9063798366460317  0.8387352423055177  1.0000
  O   O42       1.0  0.37468764805529997  0.31379390146851455  0.10271907617723029  1.0000
  O   O43       1.0  0.31967613689150204  0.20985030901911028  0.0377932706885105  1.0000
  O   O44       1.0  0.7874102821652755  0.1300905590538122  0.1507724353173074  1.0000
  O   O45       1.0  0.2886500976832522  0.31962917416762343  0.378851883308684  1.0000
  O   O46       1.0  0.5049397893308197  0.3657709159783593  0.3059642757021592  1.0000
  O   O47       1.0  0.21214195408780506  0.4259654890797791  0.3348882074242141  1.0000
