data_image0
_chemical_formula_structural       Hg8H24C56N8O32
_chemical_formula_sum              "Hg8 H24 C56 N8 O32"
_cell_length_a       8.981447677
_cell_length_b       11.737087091028453
_cell_length_c       14.749
_cell_angle_alpha    109.63868049011889
_cell_angle_beta     90.0
_cell_angle_gamma    90.0

_space_group_name_H-M_alt    "P 1"
_space_group_IT_number       1

loop_
  _space_group_symop_operation_xyz
  'x, y, z'

loop_
  _atom_site_type_symbol
  _atom_site_label
  _atom_site_symmetry_multiplicity
  _atom_site_fract_x
  _atom_site_fract_y
  _atom_site_fract_z
  _atom_site_occupancy
  Hg  Hg1       1.0  0.676162709888267  0.6739509894871462  0.7149329704263395  1.0000
  Hg  Hg2       1.0  0.1761631372692563  0.8260494871125703  0.7850679706569325  1.0000
  Hg  Hg3       1.0  0.3238342085372494  0.3260499313268497  0.2850678182592574  1.0000
  Hg  Hg4       1.0  0.8238371213750144  0.1739505290801517  0.21493189807146965  1.0000
  Hg  Hg5       1.0  0.4960870630477531  0.0918751456617244  0.8333669255264768  1.0000
  Hg  Hg6       1.0  0.9960832954480027  0.40812621936654386  0.6666330327493811  1.0000
  Hg  Hg7       1.0  0.5039154224090227  0.9081230612884568  0.16663245931167137  1.0000
  Hg  Hg8       1.0  0.0039158497900118  0.5918756060687187  0.3333659638451395  1.0000
  H   H1        1.0  0.5321335904721778  0.5809939167837044  0.29226522012405104  1.0000
  H   H2        1.0  0.032135131259416  0.9190047505734712  0.20773388104483106  1.0000
  H   H3        1.0  0.46786444135958766  0.4190051947877437  0.7077344066592205  1.0000
  H   H4        1.0  0.9678640139785984  0.080993456376703  0.7922648257812527  1.0000
  H   H5        1.0  0.4472619720634796  0.7714890643137339  0.4182028377605037  1.0000
  H   H6        1.0  0.9472615446824904  0.7285105076647085  0.08179718336557328  1.0000
  H   H7        1.0  0.5527393999870398  0.2285109518789881  0.5817956749437629  1.0000
  H   H8        1.0  0.0527376005555311  0.2714876992854656  0.9182022014725748  1.0000
  H   H9        1.0  0.5135307988055402  0.8055706707492689  0.5912831349960399  1.0000
  H   H10       1.0  0.0135312261865366  0.6944307104717212  0.90871669200822  1.0000
  H   H11       1.0  0.4864672330262252  0.1944302500647268  0.4087156196533571  1.0000
  H   H12       1.0  0.9864679190514849  0.3055711149635414  0.09128230458630074  1.0000
  H   H13       1.0  0.7469018627340847  0.6030784359054167  0.03826132410162589  1.0000
  H   H14       1.0  0.24690117670881762  0.896925659179388  0.46173719470181146  1.0000
  H   H15       1.0  0.2530995093164421  0.3969251987723937  0.9617381563831489  1.0000
  H   H16       1.0  0.753100195341702  0.10307526163460072  0.5382608819355141  1.0000
  H   H17       1.0  0.6669258916175949  0.48318626481795235  0.14014231884142703  1.0000
  H   H18       1.0  0.1669274324048402  0.0168169094528636  0.3598588013367562  1.0000
  H   H19       1.0  0.3330710268079216  0.516816465238584  0.8598596317464955  1.0000
  H   H20       1.0  0.8330739396456863  0.9831849159824061  0.6401415512819073  1.0000
  H   H21       1.0  0.5549506248044906  0.2757656532823773  0.05855986597838134  1.0000
  H   H22       1.0  0.054947711966725904  0.2242384256097054  0.44143810608458284  1.0000
  H   H23       1.0  0.4450496338397798  0.7242388860167069  0.9414385004273812  1.0000
  H   H24       1.0  0.9450525466775446  0.7757633998255572  0.5585602124978665  1.0000
  C   C1        1.0  0.7990059351319447  0.4667158253123987  0.5225471771320046  1.0000
  C   C2        1.0  0.2990074759191829  0.0332855397158696  0.9774527811438534  1.0000
  C   C3        1.0  0.20099321010607704  0.5332860001228639  0.4774531754866518  1.0000
  C   C4        1.0  0.7009983497563468  0.9667126672343046  0.02254795971843041  1.0000
  C   C5        1.0  0.7098488160574092  0.4067891891260231  0.31729923607533556  1.0000
  C   C6        1.0  0.2098536970634086  0.0932085574171566  0.18270314448035666  1.0000
  C   C7        1.0  0.2901469889618582  0.5932090178241509  0.6827028608110839  1.0000
  C   C8        1.0  0.7901499017996232  0.9067887449117507  0.817298032448875  1.0000
  C   C9        1.0  0.6951195647431947  0.5479182492030148  0.4902323237244631  1.0000
  C   C10       1.0  0.19512221893668885  0.9520813227754276  0.00976905342574949  1.0000
  C   C11       1.0  0.304878467088578  0.4520826716109738  0.5097684649611339  1.0000
  C   C12       1.0  0.8048813799263429  0.0479168841747466  0.9902323654486054  1.0000
  C   C13       1.0  0.6562126966561195  0.5205959729144354  0.3930028264427322  1.0000
  C   C14       1.0  0.1562142374433577  0.9794008852001924  0.10699782487209575  1.0000
  C   C15       1.0  0.3437864485819021  0.4794022340357387  0.6069972364074872  1.0000
  C   C16       1.0  0.8437893614196668  0.0205955125074411  0.8930024320999338  1.0000
  C   C17       1.0  0.5655591595782354  0.6018472463537563  0.36709062380668206  1.0000
  C   C18       1.0  0.0655607003654737  0.8981514210034122  0.1329105113984071  1.0000
  C   C19       1.0  0.434439985659786  0.3981518652176916  0.632909680988668  1.0000
  C   C20       1.0  0.9344406716850457  0.101846785946762  0.8670895514518125  1.0000
  C   C21       1.0  0.5166249547812214  0.7070275616891024  0.43733630336051743  1.0000
  C   C22       1.0  0.0166253821622107  0.7929711056680732  0.06266347582043612  1.0000
  C   C23       1.0  0.4833741904568001  0.2929715498823455  0.5626626454106898  1.0000
  C   C24       1.0  0.9833737630758108  0.2070271012821081  0.9373352310056476  1.0000
  C   C25       1.0  0.5545854275536755  0.7271391018158369  0.5330169427936582  1.0000
  C   C26       1.0  0.0545869683409137  0.7728622794051532  0.9669828842106016  1.0000
  C   C27       1.0  0.445413717684346  0.2728627236194257  0.4669820538008622  1.0000
  C   C28       1.0  0.9454132903033569  0.2271377367875687  0.03301630650573631  1.0000
  C   C29       1.0  0.6757830383561654  0.2643502374466777  0.7582920339991264  1.0000
  C   C30       1.0  0.1757879193621648  0.2356502229603166  0.7417083603436794  1.0000
  C   C31       1.0  0.324211653256846  0.7356506833673109  0.24170807667440644  1.0000
  C   C32       1.0  0.824214566094611  0.7643479839898576  0.25829034648240423  1.0000
  C   C33       1.0  0.7432209416633455  0.5318530800274743  0.8422546926942477  1.0000
  C   C34       1.0  0.2432213690443348  0.9681473965722419  0.6577448923648889  1.0000
  C   C35       1.0  0.2567793169809249  0.4681469361652475  0.15774517603416172  1.0000
  C   C36       1.0  0.7567800030061917  0.0318535242417468  0.3422558963207082  1.0000
  C   C37       1.0  0.6607977036038761  0.3356624369667642  0.8650616033055487  1.0000
  C   C38       1.0  0.16080369801613162  0.1643407373040446  0.6349395168726275  1.0000
  C   C39       1.0  0.3391958746028791  0.664341197711046  0.1349392332033617  1.0000
  C   C40       1.0  0.8392021276594053  0.835660183509944  0.36505991578883373  1.0000
  C   C41       1.0  0.7061445134553637  0.45670076320628544  0.904331956079105  1.0000
  C   C42       1.0  0.206146054242609  0.043302411064523504  0.5956684860870071  1.0000
  C   C43       1.0  0.2938535183764017  0.543301966850251  0.09566931649675331  1.0000
  C   C44       1.0  0.7938575446204226  0.9566985097494651  0.40433162458651856  1.0000
  C   C45       1.0  0.7098298881511129  0.509877115458437  0.004793961544749005  1.0000
  C   C46       1.0  0.2098269753133479  0.9901242657625532  0.4952051874474464  1.0000
  C   C47       1.0  0.29017259730566286  0.4901238053555517  0.9952061491287838  1.0000
  C   C48       1.0  0.7901743967371786  0.0098766550514426  0.5047949232260864  1.0000
  C   C49       1.0  0.6624633593576094  0.4441364783547145  0.06213301488426743  1.0000
  C   C50       1.0  0.1624649001448475  0.0558657912948277  0.4378678633487852  1.0000
  C   C51       1.0  0.33753467247416324  0.555866251701822  0.9378682576915838  1.0000
  C   C52       1.0  0.8375364719056719  0.944135129519168  0.5621322473247474  1.0000
  C   C53       1.0  0.6050182771665433  0.3281540804063212  0.017929721549243993  1.0000
  C   C54       1.0  0.1050209313600377  0.17185180772830932  0.4820707684401811  1.0000
  C   C55       1.0  0.39497752785271706  0.6718513635140368  0.9820702428257847  1.0000
  C   C56       1.0  0.8949793272842329  0.8281491130856793  0.5179286642212872  1.0000
  N   N1        1.0  0.641328681872807  0.6488748878177901  0.557306867141918  1.0000
  N   N2        1.0  0.141329109253796  0.8511264934031999  0.942692959862342  1.0000
  N   N3        1.0  0.3586704633652147  0.3511269376174724  0.44269280746466694  1.0000
  N   N4        1.0  0.8586733762029797  0.148872618168248  0.05730734493300102  1.0000
  N   N5        1.0  0.6073386157967349  0.2766485636441871  0.9220748707861193  1.0000
  N   N6        1.0  0.1073423833964853  0.223353706005355  0.5779239734107338  1.0000
  N   N7        1.0  0.3926560758162695  0.7233541664123565  0.07792368974146067  1.0000
  N   N8        1.0  0.8926589886540413  0.7766472148086337  0.4220747812386635  1.0000
  O   O1        1.0  0.8514117406242292  0.5177816961361756  0.6093224790404792  1.0000
  O   O2        1.0  0.3514088277864573  0.9822205897060883  0.8906755558727043  1.0000
  O   O3        1.0  0.1485885180200412  0.4822210339203609  0.39067811552330783  1.0000
  O   O4        1.0  0.6485914308578132  0.0177749033802712  0.10932174710593053  1.0000
  O   O5        1.0  0.8290411821991627  0.3637943492940963  0.4677032479577079  1.0000
  O   O6        1.0  0.3290416095801518  0.1362070157341719  0.03229603230608551  1.0000
  O   O7        1.0  0.1709590764451079  0.6362092853837141  0.5322989445753452  1.0000
  O   O8        1.0  0.670965329501634  0.8637884773521876  0.9677012706725492  1.0000
  O   O9        1.0  0.6217728144540402  0.316897877914549  0.2899798804146059  1.0000
  O   O10       1.0  0.12177769546003961  0.1830998686286307  0.21001978809281502  1.0000
  O   O11       1.0  0.3782218771589712  0.683100329035625  0.7100201824356136  1.0000
  O   O12       1.0  0.8782270168092411  0.8168974337002766  0.7899793548002096  1.0000
  O   O13       1.0  0.8393824994723076  0.4052694253884894  0.28206803438177996  1.0000
  O   O14       1.0  0.3393840402595458  0.09472651191214962  0.21793589631986526  1.0000
  O   O15       1.0  0.1606144189532088  0.594726972319144  0.7179342566264568  1.0000
  O   O16       1.0  0.6606173317909736  0.9052698857954837  0.782067750712514  1.0000
  O   O17       1.0  0.7431741786007393  0.3131192748599716  0.7064314764464612  1.0000
  O   O18       1.0  0.24317905960673872  0.18688389941083736  0.7935696437317221  1.0000
  O   O19       1.0  0.25682051301227204  0.6868852644391055  0.2935702800196509  1.0000
  O   O20       1.0  0.7568211990375318  0.8131143075393369  0.20642906309436176  1.0000
  O   O21       1.0  0.6207106248891634  0.1572059893290785  0.7259799701426888  1.0000
  O   O22       1.0  0.1207121656764087  0.3427926618353752  0.7740185842857203  1.0000
  O   O23       1.0  0.37928852034885824  0.8427931222423695  0.2740189786285185  1.0000
  O   O24       1.0  0.8792892063741178  0.657204640493525  0.225979880595233  1.0000
  O   O25       1.0  0.6249482490861455  0.5710765537750007  0.8118522495598058  1.0000
  O   O26       1.0  0.1249497898733907  0.9289248274459894  0.6881489334685895  1.0000
  O   O27       1.0  0.375050896151869  0.428924367038988  0.18814853912579113  1.0000
  O   O28       1.0  0.8750526955833848  0.0710760933680064  0.3118518552170073  1.0000
  O   O29       1.0  0.8747899317078023  0.5558807256421829  0.8289162673992793  1.0000
  O   O30       1.0  0.3747903590887916  0.9441170370937187  0.6710859818848149  1.0000
  O   O31       1.0  0.1252103269364753  0.44411657668672433  0.17108626555408793  1.0000
  O   O32       1.0  0.625211012961735  0.0558811698564554  0.32891611500161133  1.0000
