data_image0
_chemical_formula_structural       Al4H12C32Cl8O20
_chemical_formula_sum              "Al4 H12 C32 Cl8 O20"
_cell_length_a       6.662326442544283
_cell_length_b       12.372920569708757
_cell_length_c       17.308246766151505
_cell_angle_alpha    89.86239942285084
_cell_angle_beta     90.74816448898088
_cell_angle_gamma    91.0965105344091

_space_group_name_H-M_alt    "P 1"
_space_group_IT_number       1

loop_
  _space_group_symop_operation_xyz
  'x, y, z'

loop_
  _atom_site_type_symbol
  _atom_site_label
  _atom_site_symmetry_multiplicity
  _atom_site_fract_x
  _atom_site_fract_y
  _atom_site_fract_z
  _atom_site_occupancy
  Al  Al1       1.0  0.002059311690466398  0.9966630469331648  0.502386813256706  1.0000
  Al  Al2       1.0  0.5024798994875752  0.0021612688705304004  0.5006541302321494  1.0000
  Al  Al3       1.0  0.9975194306661734  0.49783408700297116  0.9993454782579789  1.0000
  Al  Al4       1.0  0.4979387454975637  0.5033365578131067  0.9976098482543918  1.0000
  H   H1        1.0  0.25337610239405  0.8647034948972844  0.4716135874782097  1.0000
  H   H2        1.0  0.7644704723093129  0.13019531404477652  0.466308282384311  1.0000
  H   H3        1.0  0.24664280690624443  0.6352901927858597  0.028395820562465698  1.0000
  H   H4        1.0  0.7355507651134232  0.36979740523521076  0.03367807223872889  1.0000
  H   H5        1.0  0.46473647454462946  0.6325134936923789  0.7897198921045572  1.0000
  H   H6        1.0  0.03529955910207859  0.8675032629766055  0.7102837696421529  1.0000
  H   H7        1.0  0.962971234767231  0.24530708884842065  0.1583905172443423  1.0000
  H   H8        1.0  0.5370185292883318  0.25468223076480007  0.3416015506370939  1.0000
  H   H9        1.0  0.5297807598333009  0.25471674563211627  0.8452060975831086  1.0000
  H   H10       1.0  0.970176634744888  0.2452832493047978  0.6547939950820235  1.0000
  H   H11       1.0  0.4720380039922745  0.7529081424260938  0.15438366494613828  1.0000
  H   H12       1.0  0.02792102017495779  0.7470819942515163  0.34563717344819617  1.0000
  C   C1        1.0  0.7459279803481066  0.8764025864918996  0.3917205233956905  1.0000
  C   C2        1.0  0.744405765282977  0.8730742508195987  0.6067653332438993  1.0000
  C   C3        1.0  0.2575549058899398  0.1181074439398486  0.6110621011259949  1.0000
  C   C4        1.0  0.2511821770197429  0.12542270662453348  0.3932300999113352  1.0000
  C   C5        1.0  0.7540612572997035  0.6235784195964484  0.10829008159878127  1.0000
  C   C6        1.0  0.7556274965871381  0.626927540455256  0.8932355404884476  1.0000
  C   C7        1.0  0.2424498263652026  0.38189482663774754  0.888928752214852  1.0000
  C   C8        1.0  0.248814540651118  0.37456705533008977  0.10676188818548127  1.0000
  C   C9        1.0  0.7421935553708892  0.8060566971739436  0.6787912823360003  1.0000
  C   C10       1.0  0.7578372321397848  0.6939579894925814  0.8212245975014836  1.0000
  C   C11       1.0  0.5801523357827421  0.7389776163825276  0.7016497861259197  1.0000
  C   C12       1.0  0.9198637101866466  0.7610604492077188  0.798357953777298  1.0000
  C   C13       1.0  0.5897738101950695  0.6845295775817349  0.7720872256953725  1.0000
  C   C14       1.0  0.9102694210492429  0.8155021343623546  0.7279350220778864  1.0000
  C   C15       1.0  0.2433705244635505  0.18768740716126328  0.31889463757880776  1.0000
  C   C16       1.0  0.2566373004644332  0.31233393046015584  0.1810985034558072  1.0000
  C   C17       1.0  0.08055518941985441  0.18523263684979702  0.2659996144646967  1.0000
  C   C18       1.0  0.419407537358694  0.31477471911833993  0.23400326394818893  1.0000
  C   C19       1.0  0.08945047939705118  0.24712636892112982  0.19880627349524357  1.0000
  C   C20       1.0  0.4105482671074084  0.2528787394473042  0.30119841719066187  1.0000
  C   C21       1.0  0.26066673574412386  0.18395588234366766  0.6835766182533404  1.0000
  C   C22       1.0  0.23928134364921758  0.31606711890656664  0.8164146743301472  1.0000
  C   C23       1.0  0.4190426857788339  0.18622855879789313  0.7383793552954215  1.0000
  C   C24       1.0  0.0809738823182542  0.3137673095469466  0.7616086398386271  1.0000
  C   C25       1.0  0.4066796028322273  0.2521793813097731  0.8032149688363076  1.0000
  C   C26       1.0  0.09325920609011716  0.24783226269882871  0.6967734245208843  1.0000
  C   C27       1.0  0.7407191447768183  0.8131020602526602  0.318044994769771  1.0000
  C   C28       1.0  0.7592776931465861  0.6868773569903511  0.1819719833480562  1.0000
  C   C29       1.0  0.5830319378537466  0.8146991310671295  0.26298743266481484  1.0000
  C   C30       1.0  0.916897310083229  0.6852775227321216  0.23702998092209532  1.0000
  C   C31       1.0  0.5943978152603577  0.7519206525455716  0.19661072924876064  1.0000
  C   C32       1.0  0.9055750662444024  0.7480578301749291  0.30341024282369483  1.0000
  Cl  Cl1       1.0  0.3684280112261148  0.7169245196630671  0.6448109919688747  1.0000
  Cl  Cl2       1.0  0.1316186736721292  0.7830914688520207  0.8552007820710016  1.0000
  Cl  Cl3       1.0  0.8673845208077893  0.10539886108818308  0.2777401304087731  1.0000
  Cl  Cl4       1.0  0.6326159813047454  0.39460182591108856  0.22225310650294716  1.0000
  Cl  Cl5       1.0  0.6280287641376391  0.10673173259754522  0.731326940019194  1.0000
  Cl  Cl6       1.0  0.8719363576195531  0.3932982336503485  0.7686563886403803  1.0000
  Cl  Cl7       1.0  0.3745060099690747  0.8946504947473171  0.27127515976069816  1.0000
  Cl  Cl8       1.0  0.12545121583421084  0.6053153730394102  0.22875320614679134  1.0000
  O   O1        1.0  0.9198287107560006  0.9017995082257501  0.41811925306723907  1.0000
  O   O2        1.0  0.577924462980178  0.9078515097282247  0.5821227347584212  1.0000
  O   O3        1.0  0.4226522580075027  0.10197007613525239  0.5776867144189807  1.0000
  O   O4        1.0  0.0862863590944372  0.10453737736160923  0.42654786989253773  1.0000
  O   O5        1.0  0.0852908252714855  0.08574265724741541  0.5871478861155026  1.0000
  O   O6        1.0  0.4251197043051674  0.09999379231619088  0.4179045307260053  1.0000
  O   O7        1.0  0.579737909587834  0.8981008771723539  0.4226501345045505  1.0000
  O   O8        1.0  0.914877288675349  0.8926363809755529  0.5767354320360312  1.0000
  O   O9        1.0  0.2516300733729863  0.9338877072068499  0.4976923669382457  1.0000
  O   O10       1.0  0.756410238087362  0.06616219158043891  0.49865953521340584  1.0000
  O   O11       1.0  0.9202633913672427  0.6018769467937659  0.07736627671756928  1.0000
  O   O12       1.0  0.5851587825382295  0.6073597740314299  0.92326083020896  1.0000
  O   O13       1.0  0.4147211622507426  0.4142459092069544  0.9128429941974188  1.0000
  O   O14       1.0  0.07489645002068808  0.40000093036016426  0.08207882817524847  1.0000
  O   O15       1.0  0.0773631484890842  0.39804437632633244  0.9223012627041455  1.0000
  O   O16       1.0  0.4137164865225245  0.3954548334261431  0.07344817370083229  1.0000
  O   O17       1.0  0.5801591076890987  0.5981976737238669  0.08188035763571119  1.0000
  O   O18       1.0  0.9220982469351994  0.5921429470071331  0.9178827447312939  1.0000
  O   O19       1.0  0.24836921958937808  0.5661164141672401  0.0023019682424560996  1.0000
  O   O20       1.0  0.7435933262273338  0.4338393152292993  0.0013360186687591997  1.0000
