data_image0
_chemical_formula_structural       Hg2H32C44Br8N12O4
_chemical_formula_sum              "Hg2 H32 C44 Br8 N12 O4"
_cell_length_a       3.939291115
_cell_length_b       15.105015531883435
_cell_length_c       20.829
_cell_angle_alpha    90.99222712718701
_cell_angle_beta     90.0
_cell_angle_gamma    90.0

_space_group_name_H-M_alt    "P 1"
_space_group_IT_number       1

loop_
  _space_group_symop_operation_xyz
  'x, y, z'

loop_
  _atom_site_type_symbol
  _atom_site_label
  _atom_site_symmetry_multiplicity
  _atom_site_fract_x
  _atom_site_fract_y
  _atom_site_fract_z
  _atom_site_occupancy
  Hg  Hg1       1.0  0.0  0.0  0.0  1.0000
  Hg  Hg2       1.0  0.5000011277409726  0.5000003115657636  0.5000002439625675  1.0000
  H   H1        1.0  0.5900706325432381  0.8145390422430696  0.7710864168841312  1.0000
  H   H2        1.0  0.09007204333006062  0.6854585817990044  0.7289133132287304  1.0000
  H   H3        1.0  0.4099316229387143  0.18545959449532756  0.22891404609593016  1.0000
  H   H4        1.0  0.9099276736240898  0.314540717070436  0.2710876381662146  1.0000
  H   H5        1.0  0.6898500061730033  0.9432937342139667  0.8487256873617708  1.0000
  H   H6        1.0  0.18985141695982585  0.5567045519591503  0.6512730908663826  1.0000
  H   H7        1.0  0.3101547878367441  0.056704902524430216  0.1512738154185627  1.0000
  H   H8        1.0  0.8101533770499219  0.44329607117237674  0.3487273970587452  1.0000
  H   H9        1.0  0.17659014774286425  0.7747105357431894  0.9745523565622137  1.0000
  H   H10       1.0  0.676591275483837  0.7252890746920073  0.525448358695435  1.0000
  H   H11       1.0  0.8234095692112859  0.22528876312624396  0.025448594832731403  1.0000
  H   H12       1.0  0.323400825886921  0.2747141969636857  0.47455264258965  1.0000
  H   H13       1.0  0.8881166427833307  0.282046636134119  0.7710761408907558  1.0000
  H   H14       1.0  0.3881155150423582  0.21795102690747115  0.7289207091126855  1.0000
  H   H15       1.0  0.11188307417081943  0.7179539869974079  0.22892290673478752  1.0000
  H   H16       1.0  0.6118867404395945  0.7820489340930054  0.2710788102976949  1.0000
  H   H17       1.0  0.1743435506415949  0.20931882449959013  0.8626545453417976  1.0000
  H   H18       1.0  0.6743370627991752  0.2906788385420002  0.6373432648613644  1.0000
  H   H19       1.0  0.8256561663125552  0.7906804743698503  0.1373435254539785  1.0000
  H   H20       1.0  0.325662654154975  0.7093211224584837  0.362656254549016  1.0000
  H   H21       1.0  0.3920603872405124  0.302334993423365  0.9546930608396806  1.0000
  H   H22       1.0  0.8920742076204748  0.19766333174926845  0.5453061979780927  1.0000
  H   H23       1.0  0.6079418682414399  0.6976629811839885  0.0453059535257694  1.0000
  H   H24       1.0  0.10792804786147772  0.8023372913822514  0.45469332974731463  1.0000
  H   H25       1.0  0.3134599510297918  0.4641710765657408  0.9554041590329518  1.0000
  H   H26       1.0  0.8134915411043409  0.035827248606892716  0.5445955798846853  1.0000
  H   H27       1.0  0.6865448429799559  0.5358268980416128  0.0445953354323692  1.0000
  H   H28       1.0  0.1865107143776044  0.9641740366556777  0.4554039561557488  1.0000
  H   H29       1.0  0.8596648232228932  0.5798758278097155  0.825319896311882  1.0000
  H   H30       1.0  0.3596611569541253  0.9201251068875749  0.6746798753760928  1.0000
  H   H31       1.0  0.14033997078684735  0.42012479532181163  0.17468107171310981  1.0000
  H   H32       1.0  0.64033602147223  0.07987617837499533  0.3253211009639259  1.0000
  C   C1        1.0  0.7225513212673536  0.805362568117822  0.8166185936407189  1.0000
  C   C2        1.0  0.2225501935263807  0.6946337316621654  0.6833811198420889  1.0000
  C   C3        1.0  0.2774509342145919  0.19463540648953176  0.1833818610243156  1.0000
  C   C4        1.0  0.7774444463721721  0.3053662293383184  0.3166198398678759  1.0000
  C   C5        1.0  0.7785613986033084  0.8765303990149891  0.8590582388242538  1.0000
  C   C6        1.0  0.2785602708623358  0.6234678871581283  0.6409414996036276  1.0000
  C   C7        1.0  0.22144339540643196  0.12346823772340802  0.1409417440559437  1.0000
  C   C8        1.0  0.7214369075640124  0.3765340602354854  0.35905900495154697  1.0000
  C   C9        1.0  0.04659467773302591  0.7837181664524665  0.928857226021364  1.0000
  C   C10       1.0  0.5465932669462035  0.7162794575896072  0.5711425040914904  1.0000
  C   C11       1.0  0.9534075777489193  0.21628113241697386  0.0711432452737171  1.0000
  C   C12       1.0  0.4533937573689571  0.2837231519350496  0.4288575286788472  1.0000
  C   C13       1.0  0.991292566606873  0.7125132562168945  0.886101209488146  1.0000
  C   C14       1.0  0.4912889003380982  0.7874843678251795  0.6138990007245653  1.0000
  C   C15       1.0  0.0087147659306694  0.2874853805215025  0.11389973359177222  1.0000
  C   C16       1.0  0.508690508393663  0.2125169174373909  0.3861010154157256  1.0000
  C   C17       1.0  0.1209278487152403  0.6221608404792038  0.9030365649356255  1.0000
  C   C18       1.0  0.6209289764562131  0.8778361214318269  0.5969621966624885  1.0000
  C   C19       1.0  0.879069329711115  0.3778377962591932  0.0969624577448513  1.0000
  C   C20       1.0  0.3790580478589477  0.12216450169970022  0.40303829126264645  1.0000
  C   C21       1.0  0.05894969252608461  0.4660614606935668  0.8638762156739972  1.0000
  C   C22       1.0  0.5589685899616512  0.0339362023480234  0.6361225547288925  1.0000
  C   C23       1.0  0.9410525629558608  0.5339378381758666  0.1361232954213705  1.0000
  C   C24       1.0  0.4410336655203012  0.9660650829145467  0.3638774614113984  1.0000
  C   C25       1.0  0.9424462147169879  0.412711576164135  0.8122234848997677  1.0000
  C   C26       1.0  0.4424577796149975  0.0872874111395419  0.6877753021331685  1.0000
  C   C27       1.0  0.0575560407649647  0.5872883848363488  0.1877755544107558  1.0000
  C   C28       1.0  0.557547014394743  0.9127118877298983  0.3122246890620559  1.0000
  C   C29       1.0  0.9821157886169589  0.321356031896265  0.8116019538750336  1.0000
  C   C30       1.0  0.4821222764593785  0.17864096901428186  0.6883958480131085  1.0000
  C   C31       1.0  0.0178839283371914  0.6786439291042188  0.1883966053356261  1.0000
  C   C32       1.0  0.5178799790225739  0.8213589919862017  0.3116041514971357  1.0000
  C   C33       1.0  0.14247994972059536  0.2809984826930149  0.863180218595133  1.0000
  C   C34       1.0  0.6424861545171723  0.21899984247961876  0.6368180800229196  1.0000
  C   C35       1.0  0.857519767233555  0.7190008161764256  0.136818332300507  1.0000
  C   C36       1.0  0.35751610096478  0.7810007806519013  0.3631814477024875  1.0000
  C   C37       1.0  0.2611459701677816  0.332626826510591  0.9146159296658709  1.0000
  C   C38       1.0  0.7611674061311435  0.16737017439995586  0.5853837926217196  1.0000
  C   C39       1.0  0.7388537467863685  0.6673718102278061  0.085383093014606  1.0000
  C   C40       1.0  0.238834849350809  0.8326297866005206  0.4146162068885246  1.0000
  C   C41       1.0  0.2200725903954961  0.4241426064908681  0.9153705401881923  1.0000
  C   C42       1.0  0.7200991034144479  0.0758543944196788  0.5846291820993983  1.0000
  C   C43       1.0  0.7799322036142513  0.5758560302475217  0.0846289625921486  1.0000
  C   C44       1.0  0.2799056905952995  0.9241449044497616  0.41537032899596227  1.0000
  Br  Br1       1.0  0.600572522043727  0.09281819174190532  0.9318185440690314  1.0000
  Br  Br2       1.0  0.1005713943027544  0.4071814576928149  0.5681812114786453  1.0000
  Br  Br3       1.0  0.3994297334382182  0.9071811071275351  0.0681804869264653  1.0000
  Br  Br4       1.0  0.8994283226513959  0.5928198275697554  0.4318188046616456  1.0000
  Br  Br5       1.0  0.7294205774888525  0.4658502408908448  0.7399228214273279  1.0000
  Br  Br6       1.0  0.22942452680347006  0.03414808428178871  0.7600749970908609  1.0000
  Br  Br7       1.0  0.2705791394652977  0.5341510443717254  0.260077194712963  1.0000
  Br  Br8       1.0  0.7705853442618675  0.9658512145876517  0.2399249941043564  1.0000
  N   N1        1.0  0.8275092916051252  0.7234066361366944  0.8301652251099085  1.0000
  N   N2        1.0  0.3275056253363502  0.7765916500364156  0.6698349934178296  1.0000
  N   N3        1.0  0.1725005794602197  0.2765913384706594  0.1698347494552692  1.0000
  N   N4        1.0  0.6724813989788103  0.22341029735719087  0.3301655111373449  1.0000
  N   N5        1.0  0.9393898272481425  0.8651232054058016  0.9149392806586009  1.0000
  N   N6        1.0  0.4393912380349647  0.6348764050294022  0.5850604743993273  1.0000
  N   N7        1.0  0.060614966761605216  0.13487543133259555  0.0850611823214606  1.0000
  N   N8        1.0  0.5606034018635881  0.3651262044952546  0.4149395583710103  1.0000
  N   N9        1.0  0.0074759643652271  0.5574209777476966  0.8620358445028273  1.0000
  N   N10       1.0  0.5074770921061997  0.9425779705564568  0.6379639022400738  1.0000
  N   N11       1.0  0.9925339067001178  0.442578983252787  0.1379651152071375  1.0000
  N   N12       1.0  0.4925200863201483  0.05742331470610652  0.3620361139002171  1.0000
  O   O1        1.0  0.3126704688846048  0.6126148972319501  0.9495017369373925  1.0000
  O   O2        1.0  0.812663981042185  0.887382726810124  0.5504979931754619  1.0000
  O   O3        1.0  0.6873368636529451  0.3873837395064471  0.05050064644211011  1.0000
  O   O4        1.0  0.1873306588563679  0.11261723419035972  0.44950152623491857  1.0000
