data_image0
_chemical_formula_structural       Cu8H12C20N44O8
_chemical_formula_sum              "Cu8 H12 C20 N44 O8"
_cell_length_a       7.937052439289307
_cell_length_b       11.83356690909154
_cell_length_c       11.883488757472362
_cell_angle_alpha    90.00124874505121
_cell_angle_beta     100.75263373687271
_cell_angle_gamma    89.99881470752047

_space_group_name_H-M_alt    "P 1"
_space_group_IT_number       1

loop_
  _space_group_symop_operation_xyz
  'x, y, z'

loop_
  _atom_site_type_symbol
  _atom_site_label
  _atom_site_symmetry_multiplicity
  _atom_site_fract_x
  _atom_site_fract_y
  _atom_site_fract_z
  _atom_site_occupancy
  Cu  Cu1       1.0  0.8146377999956868  0.9105258304738227  0.2707266271121184  1.0000
  Cu  Cu2       1.0  0.18541009328654917  0.4106128779259564  0.22925117446882123  1.0000
  Cu  Cu3       1.0  0.18636812623763888  0.08988086391640589  0.730790039163864  1.0000
  Cu  Cu4       1.0  0.8136608114133708  0.5899552007529252  0.7691769387653266  1.0000
  Cu  Cu5       1.0  0.9998778078698293  0.49975576633362817  0.4998559448413146  1.0000
  Cu  Cu6       1.0  5.20317243868e-05  0.9997923803713816  0.00023849484750829996  1.0000
  Cu  Cu7       1.0  0.9987623631682679  0.9989247816258027  0.4987102830677727  1.0000
  Cu  Cu8       1.0  0.0013603890480879998  0.49900761910992486  0.0012173862156075  1.0000
  H   H1        1.0  0.728452917564354  0.31072432543654577  0.5098119240850849  1.0000
  H   H2        1.0  0.2714329765939921  0.8108171066531754  0.9902090771671721  1.0000
  H   H3        1.0  0.2711336506507178  0.6888558924463838  0.48956799557023334  1.0000
  H   H4        1.0  0.7287325242998008  0.18897945504863145  0.010433562824310584  1.0000
  H   H5        1.0  0.42282464600060615  0.2902192089528625  0.40410632730851864  1.0000
  H   H6        1.0  0.5770685154033615  0.7902363639963426  0.09587301130824236  1.0000
  H   H7        1.0  0.5764158790146539  0.7097674860230047  0.5956154737196114  1.0000
  H   H8        1.0  0.4234817951431182  0.20982891711321375  0.9043232356538766  1.0000
  H   H9        1.0  0.45991100771465904  0.5982315866668557  0.2389105361085555  1.0000
  H   H10       1.0  0.5401704160510687  0.09826283178852438  0.2610976588353607  1.0000
  H   H11       1.0  0.5396819084706834  0.40175933272606557  0.7609557349348819  1.0000
  H   H12       1.0  0.4603580612456638  0.901756816672723  0.7391076220867062  1.0000
  C   C1        1.0  0.6683863196950526  0.37398394039747984  0.4486540176350786  1.0000
  C   C2        1.0  0.3315301748432303  0.8740415649792297  0.05139399289061687  1.0000
  C   C3        1.0  0.3311046561312168  0.6257712069380473  0.5509638053591743  1.0000
  C   C4        1.0  0.6687961469579516  0.12583949910005293  0.9490812236563924  1.0000
  C   C5        1.0  0.49913723382548625  0.36368327482774276  0.3909436893299727  1.0000
  C   C6        1.0  0.5007834271256896  0.8637102431799806  0.1090844297747608  1.0000
  C   C7        1.0  0.500230217397579  0.6362527163547824  0.6088067010717992  1.0000
  C   C8        1.0  0.4996819323982393  0.13629419579551444  0.8912138913724306  1.0000
  C   C9        1.0  0.8013213007565269  0.6450387591138452  0.3453916118055318  1.0000
  C   C10       1.0  0.1986689672122637  0.14509606581455617  0.1546751150669152  1.0000
  C   C11       1.0  0.19853769142686414  0.3549234296723612  0.6547504848032801  1.0000
  C   C12       1.0  0.8014212816625345  0.854962456102591  0.8453437622699909  1.0000
  C   C13       1.0  0.519231559737001  0.5341395914715363  0.2993956255131137  1.0000
  C   C14       1.0  0.48079235280896165  0.0341559499494153  0.20066035187860354  1.0000
  C   C15       1.0  0.4804112799714132  0.46589273564233485  0.7005097450565856  1.0000
  C   C16       1.0  0.5195666784265782  0.9658975022769666  0.799583359924874  1.0000
  C   C17       1.0  0.6879099702011543  0.5452346158765238  0.35749279149450786  1.0000
  C   C18       1.0  0.31207375716268604  0.045268093657433915  0.14261138160351544  1.0000
  C   C19       1.0  0.3117521185521069  0.45471996613837723  0.6424107922555962  1.0000
  C   C20       1.0  0.6881990520727044  0.9547380372548487  0.8577300371141374  1.0000
  N   N1        1.0  0.28824450463976337  0.816005869391603  0.332122038104977  1.0000
  N   N2        1.0  0.7117983434236876  0.31613656859607886  0.16776728517464787  1.0000
  N   N3        1.0  0.7108286398910266  0.18227888068400228  0.6668987522081409  1.0000
  N   N4        1.0  0.2891262610287697  0.6824777591166578  0.8330103883267411  1.0000
  N   N5        1.0  0.17305200673757073  0.87157755986555  0.3455584251322819  1.0000
  N   N6        1.0  0.8270150762324916  0.3716886000356682  0.1543334457611962  1.0000
  N   N7        1.0  0.8272086428059778  0.1278488512121143  0.6536151316558544  1.0000
  N   N8        1.0  0.17281179998300183  0.6279854310307087  0.846290156033632  1.0000
  N   N9        1.0  0.05373284190777378  0.9323851994333411  0.3560622958807044  1.0000
  N   N10       1.0  0.9463634419884315  0.4324622225377297  0.143843798141333  1.0000
  N   N11       1.0  0.9487339649652  0.06925945335037652  0.642312534402734  1.0000
  N   N12       1.0  0.051362394757276796  0.5693210863929323  0.8575867509962335  1.0000
  N   N13       1.0  0.9697665403290044  0.18947886270701988  0.38649394634029466  1.0000
  N   N14       1.0  0.030370373903536994  0.6894187151790092  0.11348361854273038  1.0000
  N   N15       1.0  0.0310387852375484  0.8110756934529707  0.6128718440235515  1.0000
  N   N16       1.0  0.9690307099504663  0.31102262713265116  0.8870923172044128  1.0000
  N   N17       1.0  0.03789444907446439  0.27538499378746906  0.37720422636969886  1.0000
  N   N18       1.0  0.9621633128487516  0.7753044049377636  0.12277025728292297  1.0000
  N   N19       1.0  0.9625484043460373  0.7252084350285275  0.6219510303559446  1.0000
  N   N20       1.0  0.03744119136304389  0.22513102282565  0.878007143279973  1.0000
  N   N21       1.0  0.10547590603725608  0.3665539389342599  0.3727393599987394  1.0000
  N   N22       1.0  0.8945141064697069  0.8664507348389565  0.1272352718427925  1.0000
  N   N23       1.0  0.894177153406197  0.6343479381624776  0.626249223396023  1.0000
  N   N24       1.0  0.10573908255154409  0.13423651620518479  0.8737036790314859  1.0000
  N   N25       1.0  0.7571153683631308  0.9726866720360403  0.41978201729728676  1.0000
  N   N26       1.0  0.24299766633846076  0.47276958197763014  0.08019015418583557  1.0000
  N   N27       1.0  0.24014083514249757  0.028025936801334705  0.5798332193693057  1.0000
  N   N28       1.0  0.7599807686596164  0.5281086252393408  0.9201314777578133  1.0000
  N   N29       1.0  0.6663150173105307  0.9226751109997339  0.47517513401815836  1.0000
  N   N30       1.0  0.33378265269535495  0.4227563567620081  0.02478310119246879  1.0000
  N   N31       1.0  0.33281571754770317  0.0767884995213564  0.5248189615631063  1.0000
  N   N32       1.0  0.6672739143395603  0.5768728698443795  0.9751242376375088  1.0000
  N   N33       1.0  0.5776189743177299  0.8795304296217381  0.5294656002561169  1.0000
  N   N34       1.0  0.4224527050029039  0.37961363621876393  0.9704691576129958  1.0000
  N   N35       1.0  0.4220267687767176  0.11977853532848573  0.4707851449588176  1.0000
  N   N36       1.0  0.578012044438985  0.6198685516659523  0.029123899955010274  1.0000
  N   N37       1.0  0.7605766780711036  0.4646429974074381  0.43090252805992435  1.0000
  N   N38       1.0  0.23936173365228083  0.9646921690325809  0.0691989752866817  1.0000
  N   N39       1.0  0.23899981349554614  0.5351239818480809  0.5688733163464121  1.0000
  N   N40       1.0  0.7609133726287425  0.035168613714141414  0.931240345445751  1.0000
  N   N41       1.0  0.42594645747268334  0.4430013933160027  0.3168486635689476  1.0000
  N   N42       1.0  0.5740312056233987  0.9430053314596804  0.18317569078674714  1.0000
  N   N43       1.0  0.5735566412996462  0.5570613563354455  0.6830231392962104  1.0000
  N   N44       1.0  0.4263946882215776  0.05707600645146731  0.8170124782519821  1.0000
  O   O1        1.0  0.7329683259826678  0.7301304993185769  0.2935226682203335  1.0000
  O   O2        1.0  0.2670030542436237  0.23017871337135892  0.20655948107739158  1.0000
  O   O3        1.0  0.26689611147046577  0.2702981681788117  0.7074321707899217  1.0000
  O   O4        1.0  0.7330469773072822  0.7703259886163352  0.7926910965309943  1.0000
  O   O5        1.0  0.960075468668947  0.6331558626594926  0.3914982495311107  1.0000
  O   O6        1.0  0.039934575670173396  0.13325323232821523  0.10848487935352578  1.0000
  O   O7        1.0  0.0398994460094002  0.3663660452743543  0.6080138325537588  1.0000
  O   O8        1.0  0.9600877569816716  0.8664537526060203  0.891972289583016  1.0000
