data_image0
_chemical_formula_structural       Sm4H32C56N8O34
_chemical_formula_sum              "Sm4 H32 C56 N8 O34"
_cell_length_a       10.457017808588276
_cell_length_b       12.076986947440286
_cell_length_c       12.689
_cell_angle_alpha    110.03764342124747
_cell_angle_beta     100.77002132893065
_cell_angle_gamma    90.62348047301462

_space_group_name_H-M_alt    "P 1"
_space_group_IT_number       1

loop_
  _space_group_symop_operation_xyz
  'x, y, z'

loop_
  _atom_site_type_symbol
  _atom_site_label
  _atom_site_symmetry_multiplicity
  _atom_site_fract_x
  _atom_site_fract_y
  _atom_site_fract_z
  _atom_site_occupancy
  Sm  Sm1       1.0  0.9922218421471172  0.3209310221252295  0.8879200450639502  1.0000
  Sm  Sm2       1.0  0.007777269214045585  0.679068554565049  0.11207991646694639  1.0000
  Sm  Sm3       1.0  0.14451689555009042  0.06041470670688651  0.6420186461215921  1.0000
  Sm  Sm4       1.0  0.8554822158110652  0.939584869983392  0.3579797392409675  1.0000
  H   H1        1.0  0.6618920237234605  0.2259821300989131  0.8869680067859067  1.0000
  H   H2        1.0  0.3381067705511569  0.7740139094305507  0.11303075240584803  1.0000
  H   H3        1.0  0.874431072104116  0.8628753476955993  0.8720865510675396  1.0000
  H   H4        1.0  0.1255718537559076  0.1371233447044773  0.1279129214255548  1.0000
  H   H5        1.0  0.6326070265551496  0.8641407669768884  0.8721806497838787  1.0000
  H   H6        1.0  0.3673957407616015  0.1358561568427774  0.1278197977079785  1.0000
  H   H7        1.0  0.5247482337112643  0.0500419826191845  0.8815322350100915  1.0000
  H   H8        1.0  0.47525242817696517  0.9499531726200772  0.1184665234124509  1.0000
  H   H9        1.0  0.2794827612245996  0.8742703112586129  0.720589904972563  1.0000
  H   H10       1.0  0.7205164294081925  0.1257301497218677  0.2794095690589558  1.0000
  H   H11       1.0  0.2185053313516292  0.9579383131581809  0.8198582526189783  1.0000
  H   H12       1.0  0.7814957268947822  0.0420612635320978  0.1801412206433213  1.0000
  H   H13       1.0  0.2148919471852153  0.5175653289485567  0.7990609823243986  1.0000
  H   H14       1.0  0.7851099259605478  0.4824324791613109  0.20093961584445455  1.0000
  H   H15       1.0  0.5420686793229166  0.313729362707477  0.8386455782058208  1.0000
  H   H16       1.0  0.45793311455121  0.6862675611121887  0.1613523551257501  1.0000
  H   H17       1.0  0.604183210295396  0.6911983632872136  0.9343594836074234  1.0000
  H   H18       1.0  0.3958159010657596  0.3088012134030649  0.06563968983930832  1.0000
  H   H19       1.0  0.6421379418180351  0.2961850450689454  0.6703481525994661  1.0000
  H   H20       1.0  0.3578602753721327  0.7038154159115351  0.32965117152426165  1.0000
  H   H21       1.0  0.4075952764393307  0.26383151939147353  0.5598143237711926  1.0000
  H   H22       1.0  0.5924039934650979  0.736169825879209  0.4401862389292789  1.0000
  H   H23       1.0  0.5213527292613662  0.9569355280673479  0.31084075528165306  1.0000
  H   H24       1.0  0.4786445937578137  0.0430658172033347  0.689158719519078  1.0000
  H   H25       1.0  0.3480889775020941  0.09099257765561221  0.37650341262853715  1.0000
  H   H26       1.0  0.6519084247887149  0.9090096519052722  0.6234955746728091  1.0000
  H   H27       1.0  0.2213737051632236  0.39090225306193827  0.574766750047303  1.0000
  H   H28       1.0  0.7786274323548168  0.6090982079185494  0.4252338118839561  1.0000
  H   H29       1.0  0.134029652468918  0.5851038775352819  0.34352511792085494  1.0000
  H   H30       1.0  0.865971722864032  0.41489923631581155  0.6564779219330888  1.0000
  H   H31       1.0  0.9914553440727262  0.21875482626525414  0.2349611236259506  1.0000
  H   H32       1.0  0.00854392583170239  0.7812465190054283  0.7650402271586856  1.0000
  C   C1        1.0  0.7025308405389054  0.14176586827314003  0.8795373224513057  1.0000
  C   C2        1.0  0.2974674559228916  0.8582354769975497  0.12046072608887215  1.0000
  C   C3        1.0  0.8865506317426226  0.039498590522193  0.8689252659203889  1.0000
  C   C4        1.0  0.11345221484576479  0.9604992175876745  0.13107311790374612  1.0000
  C   C5        1.0  0.8207284523383436  0.9391948980036278  0.8705216909054484  1.0000
  C   C6        1.0  0.1792726851797042  0.060805562976852905  0.12947729485747322  1.0000
  C   C7        1.0  0.6882584629281467  0.9410298001760042  0.8726902291677092  1.0000
  C   C8        1.0  0.31174162187563337  0.0589697765142745  0.1273106703551434  1.0000
  C   C9        1.0  0.6279115141167821  0.044599176416298306  0.8782298709697685  1.0000
  C   C10       1.0  0.3720895441296221  0.9554004002739802  0.12176881420837299  1.0000
  C   C11       1.0  0.2833634550024371  0.2913143746277669  0.7724643772043578  1.0000
  C   C12       1.0  0.7166384181433259  0.7086834334821077  0.2275338567119932  1.0000
  C   C13       1.0  0.8392162772595951  0.1610239403261602  0.6062804886693982  1.0000
  C   C14       1.0  0.16078080794467553  0.8389747520739166  0.393717296292806  1.0000
  C   C15       1.0  0.6992256097316201  0.1444762177470338  0.5457637258812866  1.0000
  C   C16       1.0  0.3007726074585477  0.8555242432334467  0.45423481015827605  1.0000
  C   C17       1.0  0.3192724239685347  0.5120508952391916  0.8236869102207508  1.0000
  C   C18       1.0  0.6807237670647481  0.4879486814510941  0.17631338967095195  1.0000
  C   C19       1.0  0.36988005725795153  0.40395349217620696  0.8163649014271643  1.0000
  C   C20       1.0  0.6301192919181132  0.5960487373846847  0.18363596185809436  1.0000
  C   C21       1.0  0.5049345906630123  0.39941531485155934  0.8481386883705897  1.0000
  C   C22       1.0  0.4950664675833992  0.6005842618387192  0.15185999680754492  1.0000
  C   C23       1.0  0.5901571803605705  0.5017241542420692  0.8927945457280374  1.0000
  C   C24       1.0  0.4098426666283075  0.4982727695775964  0.10720387587212338  1.0000
  C   C25       1.0  0.4063086429714459  0.6126017657050298  0.862819829840909  1.0000
  C   C26       1.0  0.5936894156754492  0.3873969266950468  0.1371796811974164  1.0000
  C   C27       1.0  0.7344000742663681  0.4977510383574995  0.935202975717111  1.0000
  C   C28       1.0  0.26560024835232093  0.502251191203392  0.06479724939175917  1.0000
  C   C29       1.0  0.5397480602083888  0.6103202969798575  0.900232537522477  1.0000
  C   C30       1.0  0.4602499984385062  0.38967839542021926  0.09976618543168311  1.0000
  C   C31       1.0  0.6094323886688926  0.2231497485769225  0.5898058556775538  1.0000
  C   C32       1.0  0.39056493435028733  0.7768515966937599  0.4101928310390122  1.0000
  C   C33       1.0  0.4811988929905979  0.2052764749826679  0.5284891266482958  1.0000
  C   C34       1.0  0.5187985093002183  0.7947257545782237  0.4715106487372226  1.0000
  C   C35       1.0  0.5429956910429965  0.0337675057129516  0.3892761595953331  1.0000
  C   C36       1.0  0.45700179051944895  0.9662356081381418  0.6107231282908006  1.0000
  C   C37       1.0  0.447526803614963  0.1087977609041957  0.4264567042109563  1.0000
  C   C38       1.0  0.5524705986758462  0.8912044686566959  0.5735430711745622  1.0000
  C   C39       1.0  0.0840441895127029  0.18246355631135464  0.4347992713860834  1.0000
  C   C40       1.0  0.9159550011200892  0.817536904669126  0.5652002026454356  1.0000
  C   C41       1.0  0.1025339650069199  0.293346473515534  0.40817676560638466  1.0000
  C   C42       1.0  0.89746335801226  0.7066548717551484  0.5918234972785115  1.0000
  C   C43       1.0  0.1753292977659697  0.3931545402103893  0.4913248556426667  1.0000
  C   C44       1.0  0.8246728131947023  0.6068459207700913  0.5086774323647134  1.0000
  C   C45       1.0  0.0626602786810366  0.399834468408045  0.2748182764363847  1.0000
  C   C46       1.0  0.9373389119517553  0.6001659925724354  0.7251827737634713  1.0000
  C   C47       1.0  0.1259822811598355  0.5030329037433319  0.36050540363059735  1.0000
  C   C48       1.0  0.8740198298008367  0.49696755723714864  0.6394960962926178  1.0000
  C   C49       1.0  0.0473225991469306  0.2968252711763242  0.30008457649643117  1.0000
  C   C50       1.0  0.9526778027433946  0.7031778426747693  0.6999167372813916  1.0000
  C   C51       1.0  0.18301758620362563  0.4964343302444051  0.4663865748659007  1.0000
  C   C52       1.0  0.8169856567429361  0.5035678993164865  0.533618040387168  1.0000
  C   C53       1.0  0.027412126426483496  0.0404819212285474  0.861557307469809  1.0000
  C   C54       1.0  0.9725888525482844  0.9595167711715293  0.13844344137604744  1.0000
  C   C55       1.0  0.018103416554538405  0.397874881316966  0.15451909788715315  1.0000
  C   C56       1.0  0.9818960911647991  0.6021291168243295  0.8454847308201751  1.0000
  N   N1        1.0  0.8288489827914205  0.13951092825407582  0.8724748367459584  1.0000
  N   N2        1.0  0.1711519961833545  0.8604877641460007  0.12752433593156104  1.0000
  N   N3        1.0  0.6671619369339155  0.0513127076416922  0.44731325422738183  1.0000
  N   N4        1.0  0.3328363595278887  0.9486886376289975  0.5526863704811334  1.0000
  N   N5        1.0  0.3561082910336992  0.7248624070463521  0.8607757305782044  1.0000
  N   N6        1.0  0.6438886356273059  0.2751345167733207  0.1392230293827623  1.0000
  N   N7        1.0  0.2574339863817983  0.6015773197373093  0.5544226582218386  1.0000
  N   N8        1.0  0.7425681245788738  0.3984231412431711  0.4455780536172043  1.0000
  O   O1        1.0  0.1590341033356637  0.29335266354696193  0.7591532903386808  1.0000
  O   O2        1.0  0.8409648494822264  0.7066451445629127  0.24084607002264852  1.0000
  O   O3        1.0  0.3379948414490883  0.1946897526657096  0.7453762248915083  1.0000
  O   O4        1.0  0.6620041113688018  0.805308055444165  0.2546191950489812  1.0000
  O   O5        1.0  0.915295666344541  0.08431618661877141  0.561077241728576  1.0000
  O   O6        1.0  0.08470263011725619  0.915685158651911  0.43892159489577415  1.0000
  O   O7        1.0  0.8736329223577926  0.24871634694211056  0.6972747624289114  1.0000
  O   O8        1.0  0.1263663475466359  0.7512849983285791  0.30272658835572497  1.0000
  O   O9        1.0  0.2380871591193596  0.7249278445214173  0.8224952229541672  1.0000
  O   O10       1.0  0.761913740583779  0.2750699635884573  0.17750601339106709  1.0000
  O   O11       1.0  0.7977761621790833  0.5962645041943517  0.9951007697905611  1.0000
  O   O12       1.0  0.20222173792453904  0.4037324196253209  0.004898928162361895  1.0000
  O   O13       1.0  0.7806295932438375  0.3970533757178671  0.9084535234165828  1.0000
  O   O14       1.0  0.21937025374504063  0.6029435481018056  0.091544898183578  1.0000
  O   O15       1.0  0.4349571202871658  0.8135036570507168  0.8960201549218568  1.0000
  O   O16       1.0  0.5650458848444941  0.1864959196395688  0.10397961815602492  1.0000
  O   O17       1.0  0.0700515049910919  0.12306047759733472  0.8280860270002891  1.0000
  O   O18       1.0  0.9299515794122043  0.8769399833831459  0.17191562283070996  1.0000
  O   O19       1.0  0.16190463482274  0.1732076907507434  0.5208930627656372  1.0000
  O   O20       1.0  0.838092529653167  0.8267918859395352  0.4791065989496914  1.0000
  O   O21       1.0  0.9920478811796016  0.10725202162838342  0.3692621823603801  1.0000
  O   O22       1.0  0.00795236216745109  0.8927493236423061  0.63073774216371  1.0000
  O   O23       1.0  0.3571630668918502  0.5864603787075354  0.6167217974559948  1.0000
  O   O24       1.0  0.6428410702257068  0.4135409665631542  0.3832795147834105  1.0000
  O   O25       1.0  0.21685288585266693  0.699783052583328  0.5613758900179563  1.0000
  O   O26       1.0  0.7831501192789929  0.30021652410695765  0.43862624731242755  1.0000
  O   O27       1.0  0.095864375797774  0.9648463882283522  0.8842381235971999  1.0000
  O   O28       1.0  0.9041369202635395  0.0351558413325392  0.11576225141946139  1.0000
  O   O29       1.0  0.2717300508774372  0.9579577675426592  0.7610762837163989  1.0000
  O   O30       1.0  0.7282710866406106  0.0420426934378213  0.2389234901306949  1.0000
  O   O31       1.0  0.0054196286952291  0.2989192703783417  0.07340977787909253  1.0000
  O   O32       1.0  0.99458069392346  0.7010829591825498  0.9265912353139499  1.0000
  O   O33       1.0  0.9993338529371627  0.4957277823717662  0.13847811037201302  1.0000
  O   O34       1.0  0.0006642849813687004  0.5042717943185125  0.861524065503602  1.0000
