data_image0
_chemical_formula_structural       Zn3H24C30N14O6
_chemical_formula_sum              "Zn3 H24 C30 N14 O6"
_cell_length_a       12.882992602088837
_cell_length_b       12.882992941742735
_cell_length_c       12.883016914472993
_cell_angle_alpha    108.30875997783697
_cell_angle_beta     108.30858650548066
_cell_angle_gamma    108.3087923295003

_space_group_name_H-M_alt    "P 1"
_space_group_IT_number       1

loop_
  _space_group_symop_operation_xyz
  'x, y, z'

loop_
  _atom_site_type_symbol
  _atom_site_label
  _atom_site_symmetry_multiplicity
  _atom_site_fract_x
  _atom_site_fract_y
  _atom_site_fract_z
  _atom_site_occupancy
  Zn  Zn1       1.0  0.21390638230015924  0.2139033319198163  0.2139052588342096  1.0000
  Zn  Zn2       1.0  0.954367667171688  0.9543691856454188  0.9543665609367123  1.0000
  Zn  Zn3       1.0  0.4617488995756602  0.4617530417651564  0.4617522051280431  1.0000
  H   H1        1.0  0.0391523015683433  0.6010119348783859  0.03915192586140395  1.0000
  H   H2        1.0  0.039154225494002  0.0391536381590214  0.6010154725807338  1.0000
  H   H3        1.0  0.601014624323092  0.039154103083156165  0.03915406009322446  1.0000
  H   H4        1.0  0.36208200650762723  0.9016791640365936  0.36208127444495375  1.0000
  H   H5        1.0  0.3620830512919326  0.3620829653347001  0.9016778213629592  1.0000
  H   H6        1.0  0.9016774121294873  0.362082180603757  0.36208310869596966  1.0000
  H   H7        1.0  0.09662297516629788  0.4509082926572459  0.09662275991222909  1.0000
  H   H8        1.0  0.09662463068299589  0.09662264994275918  0.4509125188434665  1.0000
  H   H9        1.0  0.45091091388486854  0.09662412176672325  0.09662419366206615  1.0000
  H   H10       1.0  0.4186446380723154  0.751371103854886  0.4186454143172823  1.0000
  H   H11       1.0  0.4186435703784213  0.4186440087412747  0.75136972774456  1.0000
  H   H12       1.0  0.7513695668707284  0.418644434794288  0.418644392479976  1.0000
  H   H13       1.0  0.692064491534687  0.8929304989392433  0.8085464930006195  1.0000
  H   H14       1.0  0.8085464310060144  0.6920640298995194  0.8929293385826182  1.0000
  H   H15       1.0  0.8929293190631284  0.8085464993127758  0.6920649735236564  1.0000
  H   H16       1.0  0.8085461569613273  0.8929299581963049  0.6920644115415229  1.0000
  H   H17       1.0  0.8929298604590838  0.6920646504545684  0.8085460534548331  1.0000
  H   H18       1.0  0.6920642184887313  0.8085464138051177  0.8929295603371726  1.0000
  H   H19       1.0  0.5188780320230748  0.7184693560056771  0.6334939648382443  1.0000
  H   H20       1.0  0.6334940578024018  0.5188782986234486  0.7184696675890335  1.0000
  H   H21       1.0  0.718468367821437  0.6334941613082136  0.5188789742527857  1.0000
  H   H22       1.0  0.6334937674776597  0.7184689090282037  0.518878366728174  1.0000
  H   H23       1.0  0.7184689098860629  0.5188780923867923  0.6334935562675736  1.0000
  H   H24       1.0  0.5188786807707189  0.6334943962434848  0.718469280961706  1.0000
  C   C1        1.0  0.164052098577244  0.8484175534952102  0.16405109866113327  1.0000
  C   C2        1.0  0.1640499318947377  0.16405015363444864  0.8484168316647495  1.0000
  C   C3        1.0  0.8484161738911455  0.16405156384939817  0.16405184271361156  1.0000
  C   C4        1.0  0.1223011099878875  0.6333135121668861  0.12229967868967151  1.0000
  C   C5        1.0  0.12230041936837212  0.1222986356029594  0.6333151787455191  1.0000
  C   C6        1.0  0.6333134356037675  0.12230124384059587  0.1223012858432354  1.0000
  C   C7        1.0  0.30439457931726105  0.8029256413700165  0.3043938197262647  1.0000
  C   C8        1.0  0.3043948591659245  0.30439503367799847  0.8029274609317978  1.0000
  C   C9        1.0  0.8029268913243826  0.3043958931209474  0.30439699956139776  1.0000
  C   C10       1.0  0.197141629939722  0.7606997833043608  0.19714017004080386  1.0000
  C   C11       1.0  0.19714168301858584  0.19714158000437004  0.760698366445311  1.0000
  C   C12       1.0  0.7606974659515656  0.19714044016391344  0.19714137047160557  1.0000
  C   C13       1.0  0.1538926286736313  0.5497985326442033  0.15389147977256099  1.0000
  C   C14       1.0  0.1538932086320486  0.1538909648286761  0.5497989116061959  1.0000
  C   C15       1.0  0.5497978922114015  0.15389140666656692  0.15389110481784476  1.0000
  C   C16       1.0  0.3355659690772654  0.7192237581784012  0.33556578781087865  1.0000
  C   C17       1.0  0.3355665892155315  0.3355674219673049  0.7192222100011276  1.0000
  C   C18       1.0  0.7192225116749426  0.33556565361533325  0.33556630012703437  1.0000
  C   C19       1.0  0.26093996719783513  0.5919729712573556  0.2609403344411518  1.0000
  C   C20       1.0  0.2609389196248912  0.260938436222716  0.5919741280926799  1.0000
  C   C21       1.0  0.5919722277811914  0.26093920650822616  0.26093938837308167  1.0000
  C   C22       1.0  0.2966768839419984  0.5039338363592734  0.29667759438256514  1.0000
  C   C23       1.0  0.2966762282262678  0.2966747090841367  0.5039362801898689  1.0000
  C   C24       1.0  0.5039300443707333  0.2966725274467592  0.29667243528614756  1.0000
  C   C25       1.0  0.6897505981353121  0.8064300190919695  0.8064294323207617  1.0000
  C   C26       1.0  0.8064296553817555  0.6897509482547052  0.8064292592857568  1.0000
  C   C27       1.0  0.8064300382020022  0.80643085511268  0.6897514870716391  1.0000
  C   C28       1.0  0.5766830762144792  0.6925853381041948  0.6925854617741151  1.0000
  C   C29       1.0  0.692584746078147  0.5766844334597891  0.6925855317249585  1.0000
  C   C30       1.0  0.6925851085787896  0.6925859630816474  0.5766836720634031  1.0000
  N   N1        1.0  0.8052959927924235  0.8052973169171126  0.8052956299756034  1.0000
  N   N2        1.0  0.16791213416759382  0.015880214419809118  0.1679094008014914  1.0000
  N   N3        1.0  0.1679071049840459  0.1679083217093691  0.01587775317711496  1.0000
  N   N4        1.0  0.0158783666827205  0.16790947235422488  0.16790977278985506  1.0000
  N   N5        1.0  0.22999258272638906  0.9727673909688406  0.2299885827397645  1.0000
  N   N6        1.0  0.22998842540690123  0.22998970960077256  0.9727674439633842  1.0000
  N   N7        1.0  0.9727673970914309  0.2299897000752509  0.2299904959420828  1.0000
  N   N8        1.0  0.6175172582067106  0.6175194563945823  0.6175177643686567  1.0000
  N   N9        1.0  0.0678742734604327  0.920879311424393  0.06787155606577505  1.0000
  N   N10       1.0  0.06786976560066191  0.0678730899007363  0.9208784737019896  1.0000
  N   N11       1.0  0.9208767205608055  0.06787027724382005  0.0678706049960169  1.0000
  N   N12       1.0  0.06247910201176409  0.814687202774607  0.06247501554928911  1.0000
  N   N13       1.0  0.0624739884768246  0.0624760680250418  0.8146855612092094  1.0000
  N   N14       1.0  0.8146860360751447  0.062475036291225236  0.062475407241826986  1.0000
  O   O1        1.0  0.23079769252368007  0.389614353751341  0.23079786880662567  1.0000
  O   O2        1.0  0.2307962334273697  0.23079198980522617  0.3896139729445024  1.0000
  O   O3        1.0  0.38961197790428764  0.23079011057492238  0.23079221790721494  1.0000
  O   O4        1.0  0.3975456141067042  0.556031823422046  0.3975478158228967  1.0000
  O   O5        1.0  0.3975441681709809  0.3975453779731452  0.5560296708369845  1.0000
  O   O6        1.0  0.5560288500561511  0.39754413277874795  0.39754309816618866  1.0000
