data_image0
_chemical_formula_structural       Zn3H68C78N8O14
_chemical_formula_sum              "Zn3 H68 C78 N8 O14"
_cell_length_a       13.150521857149233
_cell_length_b       13.729918276164467
_cell_length_c       13.996776928182257
_cell_angle_alpha    97.2421414247945
_cell_angle_beta     108.30696995502946
_cell_angle_gamma    112.34186230227766

_space_group_name_H-M_alt    "P 1"
_space_group_IT_number       1

loop_
  _space_group_symop_operation_xyz
  'x, y, z'

loop_
  _atom_site_type_symbol
  _atom_site_label
  _atom_site_symmetry_multiplicity
  _atom_site_fract_x
  _atom_site_fract_y
  _atom_site_fract_z
  _atom_site_occupancy
  Zn  Zn1       1.0  0.6963367636682989  0.6171316652953891  0.37784830380466866  1.0000
  Zn  Zn2       1.0  0.3036634071858089  0.38286712868491435  0.6221512868571679  1.0000
  Zn  Zn3       1.0  0.5000002823830272  0.5000006285071096  0.5000007179012869  1.0000
  H   H1        1.0  0.3469251832403088  0.5951315747477395  0.16514009357458548  1.0000
  H   H2        1.0  0.6530761819706469  0.40486803926745546  0.8348613822695727  1.0000
  H   H3        1.0  0.32411722914592633  0.6056806701583851  0.28321881037579993  1.0000
  H   H4        1.0  0.6758845361396553  0.3943197639986239  0.7167828844154444  1.0000
  H   H5        1.0  0.23991332715900873  0.39106464658529916  0.11929656207482957  1.0000
  H   H6        1.0  0.7600852429531244  0.6089357917517261  0.8807027495775301  1.0000
  H   H7        1.0  0.2517245392267924  0.3978650267367102  0.2496458614025414  1.0000
  H   H8        1.0  0.7482752253900172  0.6021345899938951  0.7503551365058456  1.0000
  H   H9        1.0  0.1619758000549183  0.3921526714577581  0.3593954172561098  1.0000
  H   H10       1.0  0.8380247678663864  0.6078469432897506  0.640605105986488  1.0000
  H   H11       1.0  0.03768134464122847  0.4047356538778004  0.4560137873384491  1.0000
  H   H12       1.0  0.9623212149265751  0.5952647801722861  0.5439895736880372  1.0000
  H   H13       1.0  0.8749742240168529  0.4601222125092264  0.3844752002128402  1.0000
  H   H14       1.0  0.12502913584803105  0.5398782201831622  0.6155283997815245  1.0000
  H   H15       1.0  0.8327079795103953  0.5011810801051481  0.21456563028221595  1.0000
  H   H16       1.0  0.16729057270502778  0.4988177203429061  0.7854377642458984  1.0000
  H   H17       1.0  0.17003452894741852  0.4673019350976446  0.9783382921152536  1.0000
  H   H18       1.0  0.8299636350752376  0.5326976843483563  0.021662227857369463  1.0000
  H   H19       1.0  0.7208661196985842  0.3066660823266645  0.38122316797093697  1.0000
  H   H20       1.0  0.2791328476285742  0.6933335351362404  0.6187768773358897  1.0000
  H   H21       1.0  0.579244363522939  0.2527879605061045  0.38999742412453026  1.0000
  H   H22       1.0  0.4207542067370224  0.7472108361896017  0.6100016886015353  1.0000
  H   H23       1.0  0.8226148262037184  0.3466646540848687  0.57557280950018  1.0000
  H   H24       1.0  0.17738454420548064  0.6533357828944588  0.4244267411200581  1.0000
  H   H25       1.0  0.6852468222221332  0.3142826589968947  0.5885778537210768  1.0000
  H   H26       1.0  0.31475334848414577  0.6857177766247273  0.41142193586705383  1.0000
  H   H27       1.0  0.9282701653245267  0.2755666282101572  0.5069482694878715  1.0000
  H   H28       1.0  0.07172880801747533  0.7244329880019719  0.49305034855160557  1.0000
  H   H29       1.0  0.017526160148932476  0.1597155399479249  0.4524641922833652  1.0000
  H   H30       1.0  0.9824732132676884  0.8402848964060113  0.5475346447032053  1.0000
  H   H31       1.0  0.911198357174939  0.9569964873888069  0.4086030130429492  1.0000
  H   H32       1.0  0.08880141646414327  0.04300312746561729  0.5913958439644134  1.0000
  H   H33       1.0  0.7108794575685804  0.8645505903106852  0.4158008718556232  1.0000
  H   H34       1.0  0.28911910968395915  0.1354482070104126  0.5841989545041102  1.0000
  H   H35       1.0  0.49927212234715057  0.18378782580181513  0.5528021597539379  1.0000
  H   H36       1.0  0.5007276481366745  0.8162134313193192  0.4471976098133935  1.0000
  H   H37       1.0  0.8776173207162328  0.8517978598113275  0.7004873389208155  1.0000
  H   H38       1.0  0.12238325307208697  0.14820339532671767  0.2995119559807264  1.0000
  H   H39       1.0  0.7931186279251745  0.9114643950621542  0.6292277264146904  1.0000
  H   H40       1.0  0.20688274616021823  0.08853685871818581  0.3707718074547373  1.0000
  H   H41       1.0  0.6347513831665876  0.8309418028889368  0.6984218267286978  1.0000
  H   H42       1.0  0.36524998791138324  0.16905945151679452  0.3015784207744048  1.0000
  H   H43       1.0  0.7123132867861555  0.7650523256289645  0.7671338132704406  1.0000
  H   H44       1.0  0.2876880872992373  0.23494892815138266  0.23286572059898702  1.0000
  H   H45       1.0  0.6115009064041741  0.9837788211472541  0.6941448640318697  1.0000
  H   H46       1.0  0.3885008618888293  0.0162216123843564  0.3058561171256997  1.0000
  H   H47       1.0  0.6055928563061741  0.1595028879257683  0.7457306973694031  1.0000
  H   H48       1.0  0.39440691131805733  0.8404967281794381  0.254269586905309  1.0000
  H   H49       1.0  0.756970730497642  0.3011930265895941  0.9130713371065512  1.0000
  H   H50       1.0  0.24302783660706231  0.6988074123728296  0.08692868817948342  1.0000
  H   H51       1.0  0.917752383020506  0.2685557899737319  0.03213608462268518  1.0000
  H   H52       1.0  0.08224658716624586  0.7314454685051074  0.9678634459767608  1.0000
  H   H53       1.0  0.9227013290143585  0.8109564555725441  0.8785998371552566  1.0000
  H   H54       1.0  0.07730204859939252  0.18904725665014152  0.1213998788896546  1.0000
  H   H55       1.0  0.7261195872301868  0.7742723815871813  0.24791345740756998  1.0000
  H   H56       1.0  0.27387858611041327  0.22572395270000808  0.7520845238114262  1.0000
  H   H57       1.0  0.03305846029898865  0.8266035454373721  0.19300540938977653  1.0000
  H   H58       1.0  0.9669413103326717  0.1733960700424433  0.8069941612512608  1.0000
  H   H59       1.0  0.033746919333310414  0.7956899182148401  0.31384906052547007  1.0000
  H   H60       1.0  0.966252451223724  0.20430887712316803  0.6861502911684738  1.0000
  H   H61       1.0  0.9474841708824469  0.6903375858536126  0.1935909096349917  1.0000
  H   H62       1.0  0.05251720635820324  0.30966202566001744  0.806407711674467  1.0000
  H   H63       1.0  0.9353678696551029  0.9195269245496507  0.140931810776145  1.0000
  H   H64       1.0  0.06463150090193177  0.08047187078835799  0.859067540917806  1.0000
  H   H65       1.0  0.7775767981182611  0.8474777971033448  0.09631758343072502  1.0000
  H   H66       1.0  0.22242257544619545  0.15252099760927249  0.9036810546295443  1.0000
  H   H67       1.0  0.8622726488081937  0.9508923262398667  0.21949384201406016  1.0000
  H   H68       1.0  0.13772632468164397  0.049105648330936405  0.7805045770991228  1.0000
  C   C1        1.0  0.4607064668100591  0.5593437335420078  0.2894256633457886  1.0000
  C   C2        1.0  0.5392924946500912  0.4406542435303678  0.7105756103020937  1.0000
  C   C3        1.0  0.34134508249607615  0.555672949918943  0.22798682903005837  1.0000
  C   C4        1.0  0.6586570890268034  0.4443266614877714  0.7720134585146283  1.0000
  C   C5        1.0  0.23861859700115665  0.43905016254122137  0.18783072441249257  1.0000
  C   C6        1.0  0.7613815708455289  0.5609486320644734  0.8121695798830116  1.0000
  C   C7        1.0  0.06694755977793676  0.4397575246802247  0.23017987268972456  1.0000
  C   C8        1.0  0.9330542053598093  0.5602445511180959  0.7698220210278208  1.0000
  C   C9        1.0  0.09033536875989497  0.41470761999085665  0.32603984014643567  1.0000
  C   C10       1.0  0.9096680029868408  0.5852944518412855  0.673961104239531  1.0000
  C   C11       1.0  0.020043546451205395  0.4226129992672157  0.38048299100307753  1.0000
  C   C12       1.0  0.9799542116298241  0.5773841596464351  0.6195185383635077  1.0000
  C   C13       1.0  0.9285631908932359  0.45398146266278877  0.3406787234529459  1.0000
  C   C14       1.0  0.07143737101322495  0.5460181533354955  0.6593232270570013  1.0000
  C   C15       1.0  0.9042710820939844  0.4772968083761313  0.244271870311799  1.0000
  C   C16       1.0  0.09572907041992094  0.5227052726391648  0.7557324000046747  1.0000
  C   C17       1.0  0.973708177720958  0.4706324531078963  0.1879883231268096  1.0000
  C   C18       1.0  0.026291586895851392  0.5293671636227016  0.8120126747815775  1.0000
  C   C19       1.0  0.9745004783478917  0.4895712021595457  0.08896692088386961  1.0000
  C   C20       1.0  0.025498094623827645  0.5104308771934072  0.9110318760611094  1.0000
  C   C21       1.0  0.06962444138978438  0.4704652279418227  0.0754113551883151  1.0000
  C   C22       1.0  0.9303717281267864  0.529531931185673  0.9245868417077999  1.0000
  C   C23       1.0  0.09681226373024994  0.48099369322935087  0.9876506734425234  1.0000
  C   C24       1.0  0.9031858914179762  0.519004286451505  0.01235178850483006  1.0000
  C   C25       1.0  0.6702912860091246  0.4248405550982568  0.44246972072641455  1.0000
  C   C26       1.0  0.32970847860768515  0.5751590616323412  0.5575312771819725  1.0000
  C   C27       1.0  0.6732804593846778  0.31503281198209987  0.43115208367098745  1.0000
  C   C28       1.0  0.3267189110245212  0.6849676249972276  0.5688474669492507  1.0000
  C   C29       1.0  0.7257649084127562  0.2939942669449351  0.5363339086200867  1.0000
  C   C30       1.0  0.2742344619964426  0.7060061700343923  0.4636656420001514  1.0000
  C   C31       1.0  0.7696084713037267  0.1346258313822162  0.49338927357856477  1.0000
  C   C32       1.0  0.23038929865916186  0.8653729666711882  0.5066096001796154  1.0000
  C   C33       1.0  0.8807420445872154  0.18657883666973865  0.48721239172265035  1.0000
  C   C34       1.0  0.11925773191145334  0.813422419200613  0.5127859505773387  1.0000
  C   C35       1.0  0.929886059579182  0.1207550586713637  0.4560233774605108  1.0000
  C   C36       1.0  0.07011211346574694  0.8792445588984634  0.5439750016110806  1.0000
  C   C37       1.0  0.8689536142433167  0.0056752191371956  0.4305694456828205  1.0000
  C   C38       1.0  0.13104535594342778  0.994326039341644  0.5694300849166325  1.0000
  C   C39       1.0  0.7576859340957468  0.9537749705346527  0.43605210482389367  1.0000
  C   C40       1.0  0.24231183586714167  0.046223827518758795  0.5639467689342865  1.0000
  C   C41       1.0  0.7069656449806772  0.018047510219396698  0.4680699935373839  1.0000
  C   C42       1.0  0.29303372227326446  0.981954569026648  0.5319304696428304  1.0000
  C   C43       1.0  0.5960976950972917  0.9933639399424904  0.4814311660479618  1.0000
  C   C44       1.0  0.4039016813267509  0.0066364957860614  0.5185669573049267  1.0000
  C   C45       1.0  0.595422859770423  0.09666349940980723  0.5130753731646394  1.0000
  C   C46       1.0  0.40457571034170303  0.9033369389272253  0.4869239384877204  1.0000
  C   C47       1.0  0.49999327694783335  0.10505881241029155  0.5306896040585869  1.0000
  C   C48       1.0  0.5000060964687945  0.8949416239436443  0.46930923292797627  1.0000
  C   C49       1.0  0.7187793159150642  0.7386231236354064  0.5690705720962512  1.0000
  C   C50       1.0  0.28122206433300784  0.26137648725283924  0.4309273355795327  1.0000
  C   C51       1.0  0.7855914479184134  0.8408023292162455  0.6612751359862727  1.0000
  C   C52       1.0  0.21440792535037184  0.15919974877900958  0.33872389992659174  1.0000
  C   C53       1.0  0.7246300418332934  0.8379212576755607  0.7382117973080254  1.0000
  C   C54       1.0  0.2753709261626369  0.1620791772137551  0.2617889448816584  1.0000
  C   C55       1.0  0.7682884450195004  0.026017909429476998  0.8362486752164032  1.0000
  C   C56       1.0  0.23171533281670512  0.9739849812936896  0.16375106084930016  1.0000
  C   C57       1.0  0.6776397739252644  0.0440249557239767  0.7683325037308464  1.0000
  C   C58       1.0  0.3223607938482117  0.9559763006648511  0.23166821843805244  1.0000
  C   C59       1.0  0.675478466026803  0.14394881501360152  0.797838423690223  1.0000
  C   C60       1.0  0.3245229110660118  0.8560524381413471  0.20216039654552986  1.0000
  C   C61       1.0  0.7608113474394499  0.2238920318679831  0.8922461564374728  1.0000
  C   C62       1.0  0.23918882627424407  0.7761084031282481  0.10775291951698314  1.0000
  C   C63       1.0  0.8516111562351225  0.2061794181861387  0.9593143809693386  1.0000
  C   C64       1.0  0.14839021785027018  0.7938218355942084  0.04068515290008887  1.0000
  C   C65       1.0  0.8569269898727399  0.1072454039909729  0.9312882617488825  1.0000
  C   C66       1.0  0.14307558759177388  0.8927566679480917  0.06871101640184206  1.0000
  C   C67       1.0  0.9391900010317399  0.06433092180738238  0.9786577620106839  1.0000
  C   C68       1.0  0.060808150961228824  0.9356687001401766  0.021345612496638418  1.0000
  C   C69       1.0  0.8956563326516545  0.9570843269743321  0.9106186050263928  1.0000
  C   C70       1.0  0.1043442321143999  0.0429169300398868  0.08938283077617369  1.0000
  C   C71       1.0  0.9552532057035632  0.8919510339417512  0.9306809833858479  1.0000
  C   C72       1.0  0.044748568456448395  0.10805103998040272  0.0693187694306729  1.0000
  C   C73       1.0  0.7995455075962282  0.7509300085754734  0.25842725843374836  1.0000
  C   C74       1.0  0.20045346589360943  0.24906796599533007  0.7415711606794345  1.0000
  C   C75       1.0  0.9790109559490217  0.777521616244343  0.2304671878197199  1.0000
  C   C76       1.0  0.020989220919936675  0.22247717648518522  0.7695309755747602  1.0000
  C   C77       1.0  0.8617723765128884  0.8846785265727207  0.1660804312831913  1.0000
  C   C78       1.0  0.13822579667987606  0.1153194493557876  0.833917748862099  1.0000
  N   N1        1.0  0.1227537260636211  0.43848822774491947  0.16063488107734972  1.0000
  N   N2        1.0  0.8772460295309158  0.5615113908618455  0.8393682577320617  1.0000
  N   N3        1.0  0.7027887921138642  0.1804091896583913  0.522882785437325  1.0000
  N   N4        1.0  0.2972113785924079  0.8195912459632383  0.47711700415080566  1.0000
  N   N5        1.0  0.791432177251124  0.9353786979996312  0.8265181488126033  1.0000
  N   N6        1.0  0.2085691908194249  0.0646225570314982  0.17348281232417412  1.0000
  N   N7        1.0  0.8774682825294349  0.8023895656488946  0.2188149956496729  1.0000
  N   N8        1.0  0.12253149426489776  0.1976084069388193  0.7811829487977135  1.0000
  O   O1        1.0  0.555118179688847  0.6339970255005696  0.28766084229361866  1.0000
  O   O2        1.0  0.4448811759789137  0.36600013132306947  0.7123418786424054  1.0000
  O   O3        1.0  0.4632325654649846  0.4897313342219718  0.34027943638913877  1.0000
  O   O4        1.0  0.5367639952517675  0.5102650052821858  0.659720921428793  1.0000
  O   O5        1.0  0.7022907668902362  0.4783305574687873  0.3797020043762771  1.0000
  O   O6        1.0  0.297709400808614  0.5216698787782335  0.6202984988455283  1.0000
  O   O7        1.0  0.6367484471177745  0.45570214605606907  0.5110053434263904  1.0000
  O   O8        1.0  0.36325172358849755  0.5442982895655534  0.4889944461617334  1.0000
  O   O9        1.0  0.7778274763488893  0.7285450944672149  0.5136865033177074  1.0000
  O   O10       1.0  0.22217069383645338  0.2714528820866846  0.486312390461265  1.0000
  O   O11       1.0  0.6127686612850238  0.6733668515779668  0.5518230978846502  1.0000
  O   O12       1.0  0.38723030890172777  0.32663440690087236  0.4481764327147956  1.0000
  O   O13       1.0  0.8075546756013379  0.6792290495690166  0.30485629950924675  1.0000
  O   O14       1.0  0.19244470097054733  0.3207697445182092  0.6951416249173477  1.0000
