data_image0
_chemical_formula_structural       Zn2H24C28O12
_chemical_formula_sum              "Zn2 H24 C28 O12"
_cell_length_a       6.2312633588096
_cell_length_b       7.090394449644209
_cell_length_c       15.613154853830917
_cell_angle_alpha    76.929097343867
_cell_angle_beta     84.94326693169376
_cell_angle_gamma    67.29696168412357

_space_group_name_H-M_alt    "P 1"
_space_group_IT_number       1

loop_
  _space_group_symop_operation_xyz
  'x, y, z'

loop_
  _atom_site_type_symbol
  _atom_site_label
  _atom_site_symmetry_multiplicity
  _atom_site_fract_x
  _atom_site_fract_y
  _atom_site_fract_z
  _atom_site_occupancy
  Zn  Zn1       1.0  0.9999902417830241  7.2451585424106495e-06  3.6882547504978685e-06  1.0000
  Zn  Zn2       1.0  0.49998487595602353  9.346643629716294e-06  4.356657044008291e-07  1.0000
  H   H1        1.0  0.8968733345782951  0.8872337931056933  0.2762499296215708  1.0000
  H   H2        1.0  0.6036039673037977  0.8341161800128842  0.2761083505235787  1.0000
  H   H3        1.0  0.10312416390395629  0.11274259766067742  0.7237580043528593  1.0000
  H   H4        1.0  0.3963713556646481  0.16589239512438067  0.7238925627835682  1.0000
  H   H5        1.0  0.8917094343724654  0.8137820671303045  0.43895698662972643  1.0000
  H   H6        1.0  0.6082964905955281  0.7459087174180253  0.43884515671656016  1.0000
  H   H7        1.0  0.10828454983489162  0.18620210390655254  0.5610495674656804  1.0000
  H   H8        1.0  0.3917037163347174  0.25409228341707285  0.5611555489976395  1.0000
  H   H9        1.0  0.9550079871092904  0.6292781896185669  0.5631452612921919  1.0000
  H   H10       1.0  0.5435669035160445  0.8093678267646  0.5629017611295379  1.0000
  H   H11       1.0  0.044997413089625043  0.37072989761948344  0.436852073954931  1.0000
  H   H12       1.0  0.4564455147018053  0.1906193091751546  0.4370977567287752  1.0000
  H   H13       1.0  0.9503400363574739  0.5587966302214514  0.7252950918980401  1.0000
  H   H14       1.0  0.5483465397528564  0.718411612419544  0.7250898229287726  1.0000
  H   H15       1.0  0.049687069378705866  0.4411742232363309  0.2747023302790906  1.0000
  H   H16       1.0  0.4516768923732003  0.2815706351038754  0.2749101477867909  1.0000
  H   H17       1.0  0.08501953099534626  0.2937123621195354  0.04438722042683449  1.0000
  H   H18       1.0  0.41507360537450916  0.6619429585195746  0.044402663100676365  1.0000
  H   H19       1.0  0.9149619839373457  0.7063039643947349  0.9556125451040314  1.0000
  H   H20       1.0  0.5849148383490927  0.33805908125488315  0.9555985778674482  1.0000
  H   H21       1.0  0.11311299165548412  0.3663925694791885  0.939770390104705  1.0000
  H   H22       1.0  0.38704768319772836  0.6937715940606638  0.939760463172213  1.0000
  H   H23       1.0  0.8868778390708487  0.6336137172671311  0.060229235864198864  1.0000
  H   H24       1.0  0.6129444657285319  0.3062352239201119  0.060239960698062596  1.0000
  C   C1        1.0  0.2500386403594419  0.9155426310150572  0.16820497928303974  1.0000
  C   C2        1.0  0.7499194977982453  0.08447386267618384  0.8317977832368655  1.0000
  C   C3        1.0  0.25019009089751176  0.8656244533474007  0.2662044964527651  1.0000
  C   C4        1.0  0.7498085991489845  0.13438565770629657  0.7337992747639956  1.0000
  C   C5        1.0  0.05156253836467786  0.855352581271667  0.31300604158604967  1.0000
  C   C6        1.0  0.4486853216131694  0.8293899537419658  0.3129068510954055  1.0000
  C   C7        1.0  0.9484299694145334  0.14464807531162185  0.6869930225083394  1.0000
  C   C8        1.0  0.5513131364891847  0.17059943879138478  0.687086187993671  1.0000
  C   C9        1.0  0.05133921223580981  0.8116111936492414  0.4042196353322466  1.0000
  C   C10       1.0  0.44864976670507445  0.782684757716225  0.40416875974832306  1.0000
  C   C11       1.0  0.9486580465462566  0.18836667852664857  0.5957792329415594  1.0000
  C   C12       1.0  0.5513495221676832  0.21732401966547615  0.5958256648305563  1.0000
  C   C13       1.0  0.24982318063457148  0.7735000268697899  0.4522603626442531  1.0000
  C   C14       1.0  0.7501890388994569  0.22649675052301893  0.5477430186179928  1.0000
  C   C15       1.0  0.24942243548862558  0.7257980898699755  0.549378877481196  1.0000
  C   C16       1.0  0.7506075779401372  0.27418851691917445  0.4506309376399002  1.0000
  C   C17       1.0  0.0821078824587573  0.6560951432244763  0.5974000887548241  1.0000
  C   C18       1.0  0.41640276965394196  0.748355966592733  0.5972850985416895  1.0000
  C   C19       1.0  0.9179279826413165  0.343894876301647  0.40259179652306176  1.0000
  C   C20       1.0  0.5836471062749382  0.2516382532899256  0.40272033971134386  1.0000
  C   C21       1.0  0.07966441008472465  0.6135176818625964  0.6886362235427582  1.0000
  C   C22       1.0  0.41878540515692436  0.7002286287788737  0.6885512697704711  1.0000
  C   C23       1.0  0.9203634371938351  0.3864792210020197  0.3113618769502509  1.0000
  C   C24       1.0  0.5812467758021783  0.29976739405556435  0.3114425868989911  1.0000
  C   C25       1.0  0.24922167346317536  0.633547273772699  0.7352571850945251  1.0000
  C   C26       1.0  0.7507956875191937  0.3664367300871875  0.2647463720118423  1.0000
  C   C27       1.0  0.24974789339107412  0.5839760813461228  0.8330830920360552  1.0000
  C   C28       1.0  0.7502639271075324  0.41602579125137135  0.16691515194303008  1.0000
  O   O1        1.0  0.0635568092192217  0.942015069280522  0.13026741703375674  1.0000
  O   O2        1.0  0.4360273494292461  0.9282718522656238  0.13024387729728196  1.0000
  O   O3        1.0  0.9364077982836961  0.05798747901885559  0.8697304643329884  1.0000
  O   O4        1.0  0.5639323189178355  0.07176851265152341  0.8697586404408425  1.0000
  O   O5        1.0  0.06508927304338376  0.5705820888367799  0.8725263235126375  1.0000
  O   O6        1.0  0.43492679354177705  0.5571415258036512  0.872350822154317  1.0000
  O   O7        1.0  0.9349268312563339  0.42941954063111615  0.12746703448250676  1.0000
  O   O8        1.0  0.5650452540180806  0.4428662543438619  0.12765134492891406  1.0000
  O   O9        1.0  0.14490566741127953  0.2370271016320658  0.9901350942584412  1.0000
  O   O10       1.0  0.35520162040622694  0.7727464416668538  0.9902478129305974  1.0000
  O   O11       1.0  0.8550741494068392  0.7629840735305888  0.009864078853212289  1.0000
  O   O12       1.0  0.644775790288378  0.22727020184576924  0.009747632414956794  1.0000
