data_image0
_chemical_formula_structural       Cu2H20C36N8O12
_chemical_formula_sum              "Cu2 H20 C36 N8 O12"
_cell_length_a       7.346698748402434
_cell_length_b       7.257787958223495
_cell_length_c       14.68731309719328
_cell_angle_alpha    89.99943359705763
_cell_angle_beta     89.99993881575541
_cell_angle_gamma    96.33865107967026

_space_group_name_H-M_alt    "P 1"
_space_group_IT_number       1

loop_
  _space_group_symop_operation_xyz
  'x, y, z'

loop_
  _atom_site_type_symbol
  _atom_site_label
  _atom_site_symmetry_multiplicity
  _atom_site_fract_x
  _atom_site_fract_y
  _atom_site_fract_z
  _atom_site_occupancy
  Cu  Cu1       1.0  2.6663580640967637e-06  0.5000051803006613  0.4999997099405959  1.0000
  Cu  Cu2       1.0  0.5000047082349468  0.49999624777387197  0.9999984580988864  1.0000
  H   H1        1.0  0.16092895168493734  0.12917295231589068  0.5125385959307494  1.0000
  H   H2        1.0  0.3390749402568005  0.8708219090988578  0.012536527628981298  1.0000
  H   H3        1.0  0.8390705983369033  0.8708311501024681  0.4874612545426728  1.0000
  H   H4        1.0  0.6609266941315541  0.129161454030239  0.9874694506314936  1.0000
  H   H5        1.0  0.2562108342856178  0.9114540473098315  0.3950747650989683  1.0000
  H   H6        1.0  0.24378627231287453  0.0885369585494686  0.895069498469546  1.0000
  H   H7        1.0  0.743788314810935  0.08854589651045329  0.604927808823497  1.0000
  H   H8        1.0  0.756211941287255  0.9114532818564527  0.1049412457932917  1.0000
  H   H9        1.0  0.23018712485060183  0.9908303853398265  0.22961409165684896  1.0000
  H   H10       1.0  0.2698205401151625  0.0091669534893981  0.7296105565835305  1.0000
  H   H11       1.0  0.76981368112002  0.0091585047452369  0.7703850779932182  1.0000
  H   H12       1.0  0.7301802126485485  0.9908496245676872  0.270396102456786  1.0000
  H   H13       1.0  0.03544053141095563  0.5499554038243986  0.0835680686143334  1.0000
  H   H14       1.0  0.46456506968988986  0.4500449315926929  0.5835684371750673  1.0000
  H   H15       1.0  0.9645546889536052  0.45003202857997593  0.9164304201809158  1.0000
  H   H16       1.0  0.5354359503748327  0.549974418943222  0.4164286898222969  1.0000
  H   H17       1.0  0.9515962299504255  0.7442049247101747  0.21146006212637755  1.0000
  H   H18       1.0  0.5484073648836656  0.2557893230633823  0.7114629377216557  1.0000
  H   H19       1.0  0.04840933319925971  0.2557909499691249  0.7885370649264658  1.0000
  H   H20       1.0  0.4515767913181322  0.7442104242156518  0.28853214674803235  1.0000
  C   C1        1.0  0.15052969352337442  0.15951017414562332  0.4402618609420657  1.0000
  C   C2        1.0  0.34947701642991563  0.8404827909693682  0.9402583611921074  1.0000
  C   C3        1.0  0.8494750411900471  0.8404912274048186  0.5597366278171165  1.0000
  C   C4        1.0  0.6505237895345317  0.159506099087416  0.0597435318968778  1.0000
  C   C5        1.0  0.20368766096184746  0.03878867885010349  0.3731743063577965  1.0000
  C   C6        1.0  0.29631526416963555  0.9612056255900256  0.8731709317599936  1.0000
  C   C7        1.0  0.7963151761930833  0.9612071600308099  0.6268275867139153  1.0000
  C   C8        1.0  0.7036780320322009  0.0387900881272927  0.1268350464727774  1.0000
  C   C9        1.0  0.1895263482746401  0.08339184188624668  0.2820683621266369  1.0000
  C   C10       1.0  0.3104799831707653  0.9166071623492228  0.7820631529974164  1.0000
  C   C11       1.0  0.8104723999058978  0.9166039433783693  0.7179328500864982  1.0000
  C   C12       1.0  0.689521197116278  0.08339973029518427  0.21793942090778273  1.0000
  C   C13       1.0  0.1220849395888024  0.25177037089060406  0.25621300559886606  1.0000
  C   C14       1.0  0.3779257316891816  0.748230609981988  0.7562092557583424  1.0000
  C   C15       1.0  0.8779196614802915  0.7482296444487061  0.7437875257428812  1.0000
  C   C16       1.0  0.6220667360887405  0.2517706306630245  0.24379263730293835  1.0000
  C   C17       1.0  0.10436105813365508  0.3247673003190314  0.16611398531669144  1.0000
  C   C18       1.0  0.395648257710711  0.675231374832201  0.6661119404388742  1.0000
  C   C19       1.0  0.8956413781067954  0.6752243800132832  0.8338858651859693  1.0000
  C   C20       1.0  0.6043463749035638  0.32477820085514253  0.33388722916284747  1.0000
  C   C21       1.0  0.04660056554953942  0.5004274262260752  0.1530294947218565  1.0000
  C   C22       1.0  0.45340349128120755  0.499572835262967  0.6530303108251515  1.0000
  C   C23       1.0  0.9534006413432723  0.4995656224429226  0.8469683131986299  1.0000
  C   C24       1.0  0.5465930388853906  0.5004423030656396  0.3469681779029514  1.0000
  C   C25       1.0  0.998391546903612  0.6097167631787386  0.22465952146072243  1.0000
  C   C26       1.0  0.5016137519991304  0.39028138697597836  0.7246624526104952  1.0000
  C   C27       1.0  0.0016170095094239028  0.39028191962933795  0.7753376055846103  1.0000
  C   C28       1.0  0.49837625708041594  0.6097225903282605  0.275336717005885  1.0000
  C   C29       1.0  0.008782817960906204  0.5461603202403751  0.3149391989214222  1.0000
  C   C30       1.0  0.4912285491325933  0.453835300545876  0.8149402167017783  1.0000
  C   C31       1.0  0.991221649477744  0.45383830895140415  0.6850572472653267  1.0000
  C   C32       1.0  0.5087688360652295  0.5461604668866968  0.1850569103533815  1.0000
  C   C33       1.0  0.07391420103375881  0.3668533328494305  0.32857110768827613  1.0000
  C   C34       1.0  0.4261018614378004  0.6331489894981672  0.8285692505662324  1.0000
  C   C35       1.0  0.9260933933033187  0.6331494906398589  0.6714273810667635  1.0000
  C   C36       1.0  0.5739000136488884  0.36685099009930167  0.1714305999165475  1.0000
  N   N1        1.0  0.08748843077078312  0.3180808743867089  0.4175153324855785  1.0000
  N   N2        1.0  0.4125227385604191  0.681915389006704  0.9175132469144529  1.0000
  N   N3        1.0  0.912517399658306  0.6819177726724561  0.5824817945605218  1.0000
  N   N4        1.0  0.5874757423438054  0.3180776238921794  0.0824866035859841  1.0000
  N   N5        1.0  0.145325194934216  0.22402958270322423  0.0869036781305752  1.0000
  N   N6        1.0  0.35467985649326284  0.7759651387332837  0.5869004869886254  1.0000
  N   N7        1.0  0.8546745153253711  0.7759620618943189  0.9130948106533978  1.0000
  N   N8        1.0  0.6453192660160455  0.22404864914722822  0.413098682601813  1.0000
  O   O1        1.0  0.9633764244397585  0.637515037941661  0.38577674749034674  1.0000
  O   O2        1.0  0.5366312709096804  0.3624839612274187  0.88577979519831  1.0000
  O   O3        1.0  0.036630902619464216  0.36248501317482607  0.6142210604117153  1.0000
  O   O4        1.0  0.46336664884386647  0.6375173509507519  0.1142186935627976  1.0000
  O   O5        1.0  0.16709568620544255  0.3093521552462377  0.0120231948763276  1.0000
  O   O6        1.0  0.3328973041356492  0.6906425738673577  0.5120217879180159  1.0000
  O   O7        1.0  0.8329044249747923  0.6906436479281766  0.9879746130377853  1.0000
  O   O8        1.0  0.6670922774298235  0.30937108889197157  0.48797738167511534  1.0000
  O   O9        1.0  0.15990807228688914  0.053880972319049585  0.0929970985524378  1.0000
  O   O10       1.0  0.3401078554571697  0.9461137656240624  0.5929910513962253  1.0000
  O   O11       1.0  0.840106764522595  0.9461122550803579  0.90700207108366  1.0000
  O   O12       1.0  0.65989535602035  0.05390007584447429  0.4070115224917004  1.0000
