data_image0
_chemical_formula_structural       Zn2H30C30N4O10
_chemical_formula_sum              "Zn2 H30 C30 N4 O10"
_cell_length_a       8.658608431910723
_cell_length_b       9.613745539905661
_cell_length_c       10.85402276024114
_cell_angle_alpha    110.0223720796184
_cell_angle_beta     97.7475502352343
_cell_angle_gamma    110.31067035555078

_space_group_name_H-M_alt    "P 1"
_space_group_IT_number       1

loop_
  _space_group_symop_operation_xyz
  'x, y, z'

loop_
  _atom_site_type_symbol
  _atom_site_label
  _atom_site_symmetry_multiplicity
  _atom_site_fract_x
  _atom_site_fract_y
  _atom_site_fract_z
  _atom_site_occupancy
  Zn  Zn1       1.0  0.1149027551837989  0.039856025789021005  0.19291182653652333  1.0000
  Zn  Zn2       1.0  0.8850982050390642  0.9601446612378057  0.8070883271283835  1.0000
  H   H1        1.0  0.3109885209438374  0.034096736693364015  0.45688297842576026  1.0000
  H   H2        1.0  0.689012430683029  0.9659039530686614  0.543118096426639  1.0000
  H   H3        1.0  0.6477489420373956  0.2705094058620219  0.607291623599302  1.0000
  H   H4        1.0  0.3522508529807454  0.7294912818694642  0.39270839721434214  1.0000
  H   H5        1.0  0.4895737874755568  0.50038426606163  0.2839287659252747  1.0000
  H   H6        1.0  0.5104271727473061  0.4996164209651894  0.7160713877396319  1.0000
  H   H7        1.0  0.35217054016441546  0.3012593316385832  0.154977683162393  1.0000
  H   H8        1.0  0.6478287109593737  0.6987401346799943  0.8450219108096776  1.0000
  H   H9        1.0  0.5784726689968239  0.3720118944653097  0.19215144214845037  1.0000
  H   H10       1.0  0.4215282912260394  0.6279887925615104  0.8078487115164564  1.0000
  H   H11       1.0  0.9517485980601421  0.5204656386560844  0.772533146477315  1.0000
  H   H12       1.0  0.04825119695799885  0.47953504907539485  0.22746687433632937  1.0000
  H   H13       1.0  0.38751523393860066  0.9137885064228971  0.10144982807867832  1.0000
  H   H14       1.0  0.6124840171851886  0.0862109598956806  0.8985497658933852  1.0000
  H   H15       1.0  0.7996236233474434  0.5749837901959796  0.5978508184186212  1.0000
  H   H16       1.0  0.20037616307470077  0.4250169002707055  0.4021501235825227  1.0000
  H   H17       1.0  0.7660034238189937  0.5560086161873131  0.4271712632645618  1.0000
  H   H18       1.0  0.23399636260315054  0.4439920742793718  0.5728296787365822  1.0000
  H   H19       1.0  0.8848254517151446  0.3459615466219504  0.36875950738337343  1.0000
  H   H20       1.0  0.11517550850771842  0.6540391404048691  0.6312406462815261  1.0000
  H   H21       1.0  0.9104956311324773  0.35710923356155183  0.537116999855961  1.0000
  H   H22       1.0  0.08950532909038601  0.6428914534652677  0.4628831538089457  1.0000
  H   H23       1.0  0.305402941628742  0.4126683995327909  0.9999587519989674  1.0000
  H   H24       1.0  0.6945963094950471  0.5873310667857867  4.084197310312266e-05  1.0000
  H   H25       1.0  0.6649430906843962  0.9360929273575282  0.16682846821498748  1.0000
  H   H26       1.0  0.33505670433374485  0.06390776037395803  0.833171552598664  1.0000
  H   H27       1.0  0.7316928921658248  0.8878746652944333  0.3036340850640046  1.0000
  H   H28       1.0  0.2683063589579646  0.11212480102414452  0.696365508908059  1.0000
  H   H29       1.0  0.5554308829025418  0.9461009704324045  0.297671818961071  1.0000
  H   H30       1.0  0.44456783292289254  0.05389727173806592  0.7023264269819195  1.0000
  C   C1        1.0  0.1071978862547881  0.8513204572328166  0.9166414227940297  1.0000
  C   C2        1.0  0.8928008295706463  0.14867778493765374  0.08335682314896083  1.0000
  C   C3        1.0  0.3940135600658792  0.1391800869877358  0.4442193439651875  1.0000
  C   C4        1.0  0.6059868562626319  0.8608193786261823  0.5557803828581314  1.0000
  C   C5        1.0  0.4705906539504597  0.3006028018087292  0.3386968743962839  1.0000
  C   C6        1.0  0.5294108415707585  0.6993991093661978  0.6613046272976961  1.0000
  C   C7        1.0  0.1661129377412537  0.7289825191257153  0.9338955299757574  1.0000
  C   C8        1.0  0.8338874871832472  0.2710169437529971  0.06610327566006902  1.0000
  C   C9        1.0  0.5578178309811577  0.2542353224203994  0.5179804200172813  1.0000
  C   C10       1.0  0.44218196403698334  0.7457653653110796  0.4820196007963703  1.0000
  C   C11       1.0  0.47287069091662903  0.3730183297881453  0.23791176435616282  1.0000
  C   C12       1.0  0.527130260710237  0.62698235997388  0.7620893104962364  1.0000
  C   C13       1.0  0.06921795855348728  0.5625280727676126  0.8518840226414214  1.0000
  C   C14       1.0  0.9307812925703018  0.4374713935509646  0.14811557133064213  1.0000
  C   C15       1.0  0.3154930112015892  0.7833182571660304  0.03900457373916324  1.0000
  C   C16       1.0  0.6845062399222002  0.21668120915254724  0.9609950202329004  1.0000
  C   C17       1.0  0.7723217748073452  0.48999582122985436  0.4912320690918293  1.0000
  C   C18       1.0  0.22767855550915073  0.5100060906497319  0.5087692997508952  1.0000
  C   C19       1.0  0.11899911112303846  0.44856414531445676  0.8766305304958381  1.0000
  C   C20       1.0  0.8810006924910992  0.5514365396818236  0.12336856913030661  1.0000
  C   C21       1.0  0.3664820841775481  0.669304634256861  0.06219271341684173  1.0000
  C   C22       1.0  0.63351834074696  0.33069482862185856  0.9378060922189848  1.0000
  C   C23       1.0  0.9120952542030382  0.4286294524408377  0.4763328571809497  1.0000
  C   C24       1.0  0.0879050847094548  0.5713724567035501  0.5236675904742826  1.0000
  C   C25       1.0  0.2668829696801468  0.5017732739286347  0.9815896924039936  1.0000
  C   C26       1.0  0.7331162900396393  0.49822618965473736  0.01840898038057054  1.0000
  C   C27       1.0  0.006089285230402214  0.269016128404985  0.793803053952324  1.0000
  C   C28       1.0  0.9939099572973903  0.7309833406487912  0.2061974612072391  1.0000
  C   C29       1.0  0.6207861364587046  0.881252387430479  0.2365204590850213  1.0000
  C   C30       1.0  0.37921428846579636  0.11874707544823343  0.763478346550805  1.0000
  N   N1        1.0  0.3409619298406525  0.16924793135281394  0.3334927715990973  1.0000
  N   N2        1.0  0.6590378565814917  0.830752759113871  0.6665081704020467  1.0000
  N   N3        1.0  0.6035594225059738  0.35490400745988643  0.4507258611502466  1.0000
  N   N4        1.0  0.3964415291208923  0.6450966823021319  0.5492752137021597  1.0000
  O   O1        1.0  0.17308008706134365  0.9962408510003655  0.01103311723390727  1.0000
  O   O2        1.0  0.8269214944718896  0.003758613908885903  0.9889667424406741  1.0000
  O   O3        1.0  0.9514243523952216  0.8257568842914013  0.16097348909186593  1.0000
  O   O4        1.0  0.04857659063564769  0.17424380820582286  0.83902850694804  1.0000
  O   O5        1.0  0.008675562339263431  0.19445582117265303  0.1939181395132721  1.0000
  O   O6        1.0  0.9913248625852447  0.8055436417060664  0.8060806661225541  1.0000
  O   O7        1.0  0.5102021028598713  0.7104418573307003  0.16102706026839542  1.0000
  O   O8        1.0  0.48979832206462953  0.28955760554801213  0.8389717453674238  1.0000
  O   O9        1.0  0.8825683300637905  0.2226393843002015  0.6929806660790376  1.0000
  O   O10       1.0  0.11743098128402364  0.7773576439583113  0.30702004943611894  1.0000
