data_image0
_chemical_formula_structural       Zn4H18C43N4O16F10
_chemical_formula_sum              "Zn4 H18 C43 N4 O16 F10"
_cell_length_a       9.713056847216189
_cell_length_b       11.068773142246359
_cell_length_c       22.099940925906907
_cell_angle_alpha    89.93964943152899
_cell_angle_beta     88.76674818468199
_cell_angle_gamma    89.54234434456578

_space_group_name_H-M_alt    "P 1"
_space_group_IT_number       1

loop_
  _space_group_symop_operation_xyz
  'x, y, z'

loop_
  _atom_site_type_symbol
  _atom_site_label
  _atom_site_symmetry_multiplicity
  _atom_site_fract_x
  _atom_site_fract_y
  _atom_site_fract_z
  _atom_site_occupancy
  Zn  Zn1       1.0  0.6393376443799782  0.4976823674584807  0.5022953863862654  1.0000
  Zn  Zn2       1.0  0.3587086001200532  0.508642184126508  0.4996117335924097  1.0000
  Zn  Zn3       1.0  0.3612296704533478  0.4980531031417359  0.0034792538689600995  1.0000
  Zn  Zn4       1.0  0.6430233274559002  0.5040487035173982  0.9990218346735986  1.0000
  H   H1        1.0  0.1454538103074015  0.33814744470031144  0.464496421824215  1.0000
  H   H2        1.0  0.8512272220641961  0.6726669694916583  0.5362285932036741  1.0000
  H   H3        1.0  0.2804549203951936  0.8774648838803079  0.4988487912735167  1.0000
  H   H4        1.0  0.6994196639927353  0.12882551524938896  0.502589055500188  1.0000
  H   H5        1.0  0.2786169330301291  0.4840808033999836  0.8100365553424922  1.0000
  H   H6        1.0  0.8134019086766742  0.5959247142483903  0.8038730643695258  1.0000
  H   H7        1.0  0.8261769990839979  0.43497826296640346  0.8032908755299958  1.0000
  H   H8        1.0  0.8221735802978075  0.4361521705447587  0.6893562836774763  1.0000
  H   H9        1.0  0.8085926337244018  0.5970199619984484  0.6899403929440239  1.0000
  H   H10       1.0  0.7372022783830373  0.49760885564725754  0.19229149017871797  1.0000
  H   H11       1.0  0.2980826117726707  0.501136873185743  0.3102904219353633  1.0000
  H   H12       1.0  0.8566754823700151  0.3389888211904051  0.04385840437477379  1.0000
  H   H13       1.0  0.14750912662621118  0.660425109826008  0.9594908958955344  1.0000
  H   H14       1.0  0.7059180521070587  0.8737937812140121  0.003679968814679999  1.0000
  H   H15       1.0  0.2850249397721996  0.1284602819282341  0.9995908149189887  1.0000
  H   H16       1.0  0.20292485562188736  0.5574583827363356  0.6661113987737224  1.0000
  H   H17       1.0  0.22902674454567776  0.4005190268187989  0.6602522382344986  1.0000
  H   H18       1.0  0.1510646028949978  0.46170386316252643  0.7274715272534421  1.0000
  C   C1        1.0  0.506131513432102  0.7389565115078868  0.4997423602241112  1.0000
  C   C2        1.0  0.5023236255709307  0.5018112168635157  0.6183229267470338  1.0000
  C   C3        1.0  0.4745546556580962  0.26729423707576677  0.5019283431199071  1.0000
  C   C4        1.0  0.5120214187584935  0.49868176470602793  0.3836536915087692  1.0000
  C   C5        1.0  0.48141661060604674  0.7371465410070716  0.0026317167738056997  1.0000
  C   C6        1.0  0.4966887995376581  0.5013940684666878  0.8836393972400174  1.0000
  C   C7        1.0  0.5087005493694009  0.2651043232751462  0.0012150220906831993  1.0000
  C   C8        1.0  0.5210199780033095  0.4998773196191665  0.11887290699634427  1.0000
  C   C9        1.0  0.9366412381935375  0.4091980566530821  0.47891749659644484  1.0000
  C   C10       1.0  0.060481661500389805  0.6019568103609887  0.521442880036055  1.0000
  C   C11       1.0  0.0798276341835233  0.41306487737026043  0.4795761462763721  1.0000
  C   C12       1.0  0.9172698875032095  0.5981904954798837  0.520745486612114  1.0000
  C   C13       1.0  0.4781611985346004  0.1315848170296761  0.5022094984194324  1.0000
  C   C14       1.0  0.5016396887566046  0.8745946507104065  0.501255489392257  1.0000
  C   C15       1.0  0.36181297905724114  0.057343034458853005  0.5013270755475715  1.0000
  C   C16       1.0  0.6179302820123738  0.9488535883716054  0.5026970721362217  1.0000
  C   C17       1.0  0.37269490401099864  0.9324460059504954  0.5004845747949033  1.0000
  C   C18       1.0  0.6071560153255079  0.07367473575614272  0.5026832806968357  1.0000
  C   C19       1.0  0.497722138096414  0.49872716074112594  0.8162317988782346  1.0000
  C   C20       1.0  0.494525375450067  0.4981970989303123  0.6857190822726124  1.0000
  C   C21       1.0  0.6185490510269744  0.504354272461434  0.7813715020144726  1.0000
  C   C22       1.0  0.3694638271338703  0.48931124056243663  0.7204427664050002  1.0000
  C   C23       1.0  0.6158468569864297  0.504304023912816  0.7183281253859802  1.0000
  C   C24       1.0  0.3748019428959993  0.490413003366996  0.7838614806019207  1.0000
  C   C25       1.0  0.7740392619758651  0.5132500097369005  0.7831349028539165  1.0000
  C   C26       1.0  0.7712794099915429  0.5136766918827008  0.7116137586440416  1.0000
  C   C27       1.0  0.5186459805543392  0.4982124095328402  0.31579100211157396  1.0000
  C   C28       1.0  0.516331323138104  0.4999055854721137  0.1867759810065337  1.0000
  C   C29       1.0  0.6412302575293084  0.49703936082654127  0.2807943994279967  1.0000
  C   C30       1.0  0.3938362609514456  0.5011043321029263  0.2218305012770258  1.0000
  C   C31       1.0  0.6404112390817929  0.4980993232090187  0.21807058815116415  1.0000
  C   C32       1.0  0.394774142815919  0.5001697316489883  0.28450577409990524  1.0000
  C   C33       1.0  0.064713359299418  0.41009700767447316  0.0299258437786776  1.0000
  C   C34       1.0  0.9397757470190129  0.588834738534871  0.9730718830667439  1.0000
  C   C35       1.0  0.9218226488341942  0.4105307280212287  0.025440449705662598  1.0000
  C   C36       1.0  0.08249529199207468  0.5886198438729907  0.9776614309262185  1.0000
  C   C37       1.0  0.5060843488528874  0.1295091344170203  0.0020690607462086  1.0000
  C   C38       1.0  0.48473288688786204  0.872731955220644  0.0023473456346962992  1.0000
  C   C39       1.0  0.6230749496023904  0.05441229960928951  0.0033658594474844  1.0000
  C   C40       1.0  0.367726495037644  0.9478774412657316  0.0011026874802552995  1.0000
  C   C41       1.0  0.6132057823763191  0.9296117840984479  0.0032586355613588983  1.0000
  C   C42       1.0  0.3776543547913747  0.07262198417311082  0.0008928243339382988  1.0000
  C   C43       1.0  0.23038440115834646  0.4765681002288958  0.6921698869869813  1.0000
  N   N1        1.0  0.8568407513061159  0.4989501626947046  0.49921408877499823  1.0000
  N   N2        1.0  0.1404514308096765  0.512057233161876  0.5013005560988546  1.0000
  N   N3        1.0  0.14354974081233246  0.4966287800983054  0.006535621363156  1.0000
  N   N4        1.0  0.8608649944170637  0.5024485743971497  0.9964878923189174  1.0000
  O   O1        1.0  0.6178704702685353  0.6849514856711991  0.5124497027151449  1.0000
  O   O2        1.0  0.39388931409637  0.6882151261352975  0.48582352506558374  1.0000
  O   O3        1.0  0.3927111733731152  0.5253926074107939  0.5895491486485014  1.0000
  O   O4        1.0  0.620807760179396  0.4823755263175117  0.5937153112649439  1.0000
  O   O5        1.0  0.3591602109788213  0.3214158723023318  0.508918532129286  1.0000
  O   O6        1.0  0.590692806936829  0.3180779942056943  0.4946777893151051  1.0000
  O   O7        1.0  0.6230383118887134  0.5179763691639607  0.4113826439048792  1.0000
  O   O8        1.0  0.39402996535009993  0.48068007590099876  0.40836255836627083  1.0000
  O   O9        1.0  0.365595961573149  0.6850324775829293  0.007947862488229897  1.0000
  O   O10       1.0  0.5982431962190375  0.6846418618617066  0.9977260676961847  1.0000
  O   O11       1.0  0.6135363915234464  0.49021017805578293  0.9086899879423456  1.0000
  O   O12       1.0  0.3809440124998247  0.51497979503317  0.9113002250022006  1.0000
  O   O13       1.0  0.6228271737543736  0.3182853977826809  0.008517841857298  1.0000
  O   O14       1.0  0.39291733309282506  0.31662797806993126  0.9931827218751366  1.0000
  O   O15       1.0  0.4072569661520263  0.48700131735288477  0.0922726608679696  1.0000
  O   O16       1.0  0.6386742146666222  0.5118853205057833  0.09301813839804399  1.0000
  F   F1        1.0  0.8749094159880428  0.3116978796622477  0.4572940428352155  1.0000
  F   F2        1.0  0.122222584516436  0.699039720348509  0.5437774702122481  1.0000
  F   F3        1.0  0.23245282965848446  0.10572264514273402  0.5001731388837243  1.0000
  F   F4        1.0  0.7472919678088986  0.900340737495327  0.5029635731555047  1.0000
  F   F5        1.0  0.766287836352447  0.49349282816468343  0.3072268553497892  1.0000
  F   F6        1.0  0.26852074786678065  0.5042213048541272  0.19575218413528006  1.0000
  F   F7        1.0  0.1270790765751428  0.3200194946125167  0.05890920488886309  1.0000
  F   F8        1.0  0.8772295243631234  0.6787743978175983  0.9438984517219211  1.0000
  F   F9        1.0  0.7519599756894734  0.10180121524640386  0.0041952379851864  1.0000
  F   F10       1.0  0.2388643322102411  0.9007074932618054  0.9992201652367213  1.0000
