data_image0
_chemical_formula_structural       Zn2H34C26S2N6O14
_chemical_formula_sum              "Zn2 H34 C26 S2 N6 O14"
_cell_length_a       7.483322015553504
_cell_length_b       10.108104209793794
_cell_length_c       13.062760998038316
_cell_angle_alpha    69.42722949671784
_cell_angle_beta     82.90167201456016
_cell_angle_gamma    68.60158665926636

_space_group_name_H-M_alt    "P 1"
_space_group_IT_number       1

loop_
  _space_group_symop_operation_xyz
  'x, y, z'

loop_
  _atom_site_type_symbol
  _atom_site_label
  _atom_site_symmetry_multiplicity
  _atom_site_fract_x
  _atom_site_fract_y
  _atom_site_fract_z
  _atom_site_occupancy
  Zn  Zn1       1.0  0.8765044944022264  0.34118827057652357  0.5306138387563377  1.0000
  Zn  Zn2       1.0  0.12656254991226487  0.7418668142411134  0.6075172194355074  1.0000
  H   H1        1.0  0.23935866917923934  0.3111269624351534  0.4825451659449767  1.0000
  H   H2        1.0  0.1907713185298903  0.349950643843492  0.5971219456817422  1.0000
  H   H3        1.0  0.755170142279333  0.8943198689374152  0.6469996223889966  1.0000
  H   H4        1.0  0.8324544859120168  0.9785123680337616  0.5292207050860042  1.0000
  H   H5        1.0  0.41038594517765853  0.08008426416053277  0.5828476446897566  1.0000
  H   H6        1.0  0.3140888726568745  0.9599349134380329  0.7771654764973092  1.0000
  H   H7        1.0  0.13999986585687196  0.14019410166681467  0.770863597791596  1.0000
  H   H8        1.0  0.5855023634942212  0.8244586919048371  0.5543475106758465  1.0000
  H   H9        1.0  0.7020228328863777  0.8188349747717112  0.359555329058999  1.0000
  H   H10       1.0  0.8647082697780277  0.9058570762468034  0.3713815638758787  1.0000
  H   H11       1.0  0.08578610832548608  0.20649076242263217  0.3604366819762035  1.0000
  H   H12       1.0  0.16923319562020814  0.2802078360582313  0.16535012576257196  1.0000
  H   H13       1.0  0.7658677576463475  0.7292363771221558  0.13075405151074188  1.0000
  H   H14       1.0  0.7052867704140127  0.6349643777586421  0.33037491196071034  1.0000
  H   H15       1.0  0.10708323115402862  0.3402807774499904  0.993508097381145  1.0000
  H   H16       1.0  0.16562715305403225  0.43420683821944533  0.7952437996936509  1.0000
  H   H17       1.0  0.00475423195222648  0.8733118300084324  0.7924516020604172  1.0000
  H   H18       1.0  0.9414194995583781  0.7993451072767143  0.9915056204410321  1.0000
  H   H19       1.0  0.601956981096869  0.26521139373770086  0.47841770666409617  1.0000
  H   H20       1.0  0.5369929218324642  0.3078754587149674  0.5871668516777646  1.0000
  H   H21       1.0  0.21694166048730767  0.783537669226675  0.3774992668053655  1.0000
  H   H22       1.0  0.2489383393874433  0.903796699432561  0.4198392091598322  1.0000
  H   H23       1.0  0.5148979745538823  0.5883131261091349  0.5829317697719673  1.0000
  H   H24       1.0  0.4221573438335822  0.47641495664854716  0.6703716568933586  1.0000
  H   H25       1.0  0.7767532607192394  0.32499271844423555  0.7527002723952947  1.0000
  H   H26       1.0  0.7796194130457935  0.17978558304095316  0.7256702376059037  1.0000
  H   H27       1.0  0.3579648276330259  0.4981033354709793  0.37227250200527345  1.0000
  H   H28       1.0  0.49211043222499024  0.38676078629400473  0.2268561588477666  1.0000
  H   H29       1.0  0.3586010092810383  0.8433762247423571  0.9984295042803027  1.0000
  H   H30       1.0  0.22959054843397525  0.9326704334441587  0.1546892459078677  1.0000
  H   H31       1.0  0.5045256031782656  0.31803130349106806  0.09510363846319339  1.0000
  H   H32       1.0  0.6439188962893924  0.2215918834213467  0.9440005324216469  1.0000
  H   H33       1.0  0.7043585272727243  0.6269439376978879  0.7515244666292559  1.0000
  H   H34       1.0  0.5679404049436982  0.7436381807433957  0.894227183317504  1.0000
  C   C1        1.0  0.1530105744838224  0.033723807622543206  0.5937740597251062  1.0000
  C   C2        1.0  0.26550019936884434  0.12222901021386426  0.6150249997857811  1.0000
  C   C3        1.0  0.27772117711476346  0.08214397486016617  0.7388422775721109  1.0000
  C   C4        1.0  0.8437739523819017  0.6414865832581211  0.5487085310311953  1.0000
  C   C5        1.0  0.7335255686273426  0.811875043057881  0.5250158117179993  1.0000
  C   C6        1.0  0.7285375872464426  0.8877855006960046  0.4004571852206026  1.0000
  C   C7        1.0  0.017585776675147692  0.32129234597405076  0.30687292421612256  1.0000
  C   C8        1.0  0.06179814477911091  0.3637224475893745  0.19635363893202398  1.0000
  C   C9        1.0  0.9744219402022126  0.5129206161494505  0.1290574275545282  1.0000
  C   C10       1.0  0.8435248348137847  0.6127781770541956  0.17843152629966844  1.0000
  C   C11       1.0  0.8079928950340047  0.5613092342286022  0.28974385730241886  1.0000
  C   C12       1.0  0.016813975019054794  0.5622238896191972  0.011204975390192834  1.0000
  C   C13       1.0  0.08337139011311477  0.4597746735907078  0.9535101856395726  1.0000
  C   C14       1.0  0.11534350929738221  0.5116131829506684  0.8417717132525266  1.0000
  C   C15       1.0  0.026280043829068213  0.7561407714905639  0.8403726353955746  1.0000
  C   C16       1.0  0.9896705060874142  0.7138699003135611  0.9518485054080299  1.0000
  C   C17       1.0  0.3551008579909121  0.5705172816204536  0.2874015059093438  1.0000
  C   C18       1.0  0.4313140936855928  0.5088299057079125  0.2049987053903948  1.0000
  C   C19       1.0  0.4350811234569532  0.6048425132910323  0.09726888428473052  1.0000
  C   C20       1.0  0.35967923651359257  0.760682285990029  0.07912823769177621  1.0000
  C   C21       1.0  0.28640283904462654  0.8121190378134666  0.16685295428472813  1.0000
  C   C22       1.0  0.5192010485082507  0.542485220607169  0.00828854955607743  1.0000
  C   C23       1.0  0.5453269324892958  0.3928229676015461  0.020723332230232882  1.0000
  C   C24       1.0  0.626800849426523  0.33669080317541483  0.9362306239174385  1.0000
  C   C25       1.0  0.6573900078094967  0.5624390922905531  0.828918837821824  1.0000
  C   C26       1.0  0.577976829023477  0.6281479367508421  0.9089830451602053  1.0000
  S   S1        1.0  0.4560866612492944  0.1294886146209677  0.7827712038177451  1.0000
  S   S2        1.0  0.536997277135157  0.06568498532551097  0.35335690634707356  1.0000
  N   N1        1.0  0.17425188050465573  0.28459992909883874  0.5567504492952792  1.0000
  N   N2        1.0  0.82699745913353  0.875644790779823  0.5785786212543867  1.0000
  N   N3        1.0  0.8946374239484737  0.418362188933912  0.3538678932144919  1.0000
  N   N4        1.0  0.08689036369950283  0.6575016363640173  0.7853988898410547  1.0000
  N   N5        1.0  0.28316810030241146  0.7194385444598055  0.26973820573758184  1.0000
  N   N6        1.0  0.6829924502796486  0.4190743094138013  0.8414612309526746  1.0000
  O   O1        1.0  0.9927255841893371  0.10468923487864856  0.544607703807003  1.0000
  O   O2        1.0  0.23305322098692458  0.8916250954583658  0.6310783179209236  1.0000
  O   O3        1.0  0.42791483645190453  0.10252860649188729  0.8997904641946874  1.0000
  O   O4        1.0  0.6460693323773298  0.03766359379152109  0.7528663201400289  1.0000
  O   O5        1.0  0.414642081656865  0.29189297530862746  0.7165339644553226  1.0000
  O   O6        1.0  0.015448418888219401  0.585110422675953  0.5815787432021862  1.0000
  O   O7        1.0  0.7506408068381136  0.568257506685299  0.5294840934037593  1.0000
  O   O8        1.0  0.3607657843475777  0.03313676143232409  0.3973748741027378  1.0000
  O   O9        1.0  0.5472250164106497  0.11503995873156465  0.23408719407366615  1.0000
  O   O10       1.0  0.5704809885483685  0.16763563489489286  0.4010086846800717  1.0000
  O   O11       1.0  0.5983519369114703  0.3368287786860477  0.5150929102540117  1.0000
  O   O12       1.0  0.8415530880107979  0.2560447775101052  0.7074215083394434  1.0000
  O   O13       1.0  0.17603404675141832  0.8346227677464665  0.43500722992536106  1.0000
  O   O14       1.0  0.40511587458228593  0.5832676162100509  0.6329768545590325  1.0000
