data_image0
_chemical_formula_structural       Zn8C80Br40O26
_chemical_formula_sum              "Zn8 C80 Br40 O26"
_cell_length_a       24.058857275298408
_cell_length_b       24.060248396578658
_cell_length_c       24.05863181236065
_cell_angle_alpha    66.46159499961317
_cell_angle_beta     72.52836906330793
_cell_angle_gamma    107.47997027270124

_space_group_name_H-M_alt    "P 1"
_space_group_IT_number       1

loop_
  _space_group_symop_operation_xyz
  'x, y, z'

loop_
  _atom_site_type_symbol
  _atom_site_label
  _atom_site_symmetry_multiplicity
  _atom_site_fract_x
  _atom_site_fract_y
  _atom_site_fract_z
  _atom_site_occupancy
  Zn  Zn1       1.0  0.05656924748751605  0.9575424086296707  0.4859048220550691  1.0000
  Zn  Zn2       1.0  0.056568339312193024  0.09902836350656945  0.4575416071988769  1.0000
  Zn  Zn3       1.0  0.9434298476123005  0.9859034640409521  0.4575332883376501  1.0000
  Zn  Zn4       1.0  0.9434447067219481  0.9575335886364587  0.5990317335144508  1.0000
  Zn  Zn5       1.0  0.9434366435794103  0.5424626050992671  0.01409502833210056  1.0000
  Zn  Zn6       1.0  0.05657103685119578  0.5141017112880348  0.042466758918692456  1.0000
  Zn  Zn7       1.0  0.9434361232110149  0.40097209496569525  0.04246189065160163  1.0000
  Zn  Zn8       1.0  0.05655196455479932  0.5424596677664438  0.9009695078478542  1.0000
  C   C1        1.0  0.1804487645186227  0.09023241017286664  0.4097782716453295  1.0000
  C   C2        1.0  0.9999980863748233  0.1369137720304893  0.36308657651941456  1.0000
  C   C3        1.0  0.9999866004906862  0.9097842986266614  0.4097788345130199  1.0000
  C   C4        1.0  0.8195552195550988  0.9097642042656776  0.5902420774141889  1.0000
  C   C5        1.0  8.162012320952095e-06  0.8630830887839308  0.636912625631915  1.0000
  C   C6        1.0  0.9999946355843007  0.09021579483800227  0.5902330878203939  1.0000
  C   C7        1.0  5.6189787329094595e-06  0.5902111509766358  0.09023267568217362  1.0000
  C   C8        1.0  1.1797124592754148e-05  0.36309263276335463  0.1369133409854726  1.0000
  C   C9        1.0  0.8195564611788765  0.40977659938108957  0.09021037542076032  1.0000
  C   C10       1.0  0.9999890453494442  0.4097595972748208  0.9097903688079184  1.0000
  C   C11       1.0  0.999994974719854  0.63691302129957  0.8630859498264414  1.0000
  C   C12       1.0  0.18044314873596062  0.5902214463714939  0.909758765840657  1.0000
  C   C13       1.0  7.1985780679888755e-06  0.805060947904309  0.6949403996379643  1.0000
  C   C14       1.0  0.9999988557654192  0.6949411819300625  0.805057814249146  1.0000
  C   C15       1.0  0.9573637485294878  0.7768757675315143  0.7657635385120757  1.0000
  C   C16       1.0  0.04264317664451036  0.7231272345733258  0.7342340664204202  1.0000
  C   C17       1.0  0.9573598659745811  0.7231254588374441  0.8195124852221838  1.0000
  C   C18       1.0  0.042649432243557196  0.7768804336940535  0.6804849188417847  1.0000
  C   C19       1.0  7.059734769727948e-07  0.19494185650475523  0.3050590307317904  1.0000
  C   C20       1.0  7.916104308832507e-06  0.305064475081153  0.19494022842685876  1.0000
  C   C21       1.0  0.9573640630159018  0.1804920030399657  0.2768623886186603  1.0000
  C   C22       1.0  0.042642446355500914  0.3195136107748128  0.22313802825277662  1.0000
  C   C23       1.0  0.9573675101555492  0.2342418755988049  0.22311374638586304  1.0000
  C   C24       1.0  0.04263943466480665  0.2657641782822679  0.27688470182706487  1.0000
  C   C25       1.0  0.9999962388340928  0.6279097588060336  0.1279369635428225  1.0000
  C   C26       1.0  0.9570227858785573  0.6574866086020923  0.13525900775609034  1.0000
  C   C27       1.0  0.9573527690265493  0.6923114525028498  0.1702624518998377  1.0000
  C   C28       1.0  0.9999912698493533  0.6995969100764299  0.19962841127338746  1.0000
  C   C29       1.0  0.04263520524532533  0.6702452149488565  0.19234126124904807  1.0000
  C   C30       1.0  0.04297033744231957  0.6352394660429183  0.15751903120057165  1.0000
  C   C31       1.0  0.9999835387418017  0.7347638345143894  0.2348054582731791  1.0000
  C   C32       1.0  0.9999737801025713  0.7651907839448737  0.2652450811674499  1.0000
  C   C33       1.0  0.9999688575133803  0.8003610418240755  0.3004187105043029  1.0000
  C   C34       1.0  0.9573460419846072  0.8297413097982871  0.30767876336194167  1.0000
  C   C35       1.0  0.9570162649651124  0.8647493137296111  0.3425005624564152  1.0000
  C   C36       1.0  0.9999737295235319  0.8720621999266883  0.3720970553621894  1.0000
  C   C37       1.0  0.04293059317809174  0.8424616196967564  0.36479959400145384  1.0000
  C   C38       1.0  0.04259414453255079  0.8076339172015923  0.32980089598816414  1.0000
  C   C39       1.0  7.262565333084954e-06  0.3720563694145725  0.8720939838675648  1.0000
  C   C40       1.0  0.04298934831429336  0.4077019539456472  0.7995463708643911  1.0000
  C   C41       1.0  0.04264773670890067  0.37236860580865994  0.765052356521501  1.0000
  C   C42       1.0  3.0023241066772257e-06  0.30037239312218134  0.8004028073585089  1.0000
  C   C43       1.0  0.9573659168747781  0.26502074639021334  0.8723998962279396  1.0000
  C   C44       1.0  0.9570369397085726  0.2995114667907688  0.9077379366505269  1.0000
  C   C45       1.0  0.9999945151324  0.2652051138075608  0.7652285287093716  1.0000
  C   C46       1.0  0.9999828319265087  0.23477480525153982  0.7347921271303335  1.0000
  C   C47       1.0  0.9999741277586764  0.19960435615693237  0.6996197687578061  1.0000
  C   C48       1.0  0.04259900193292048  0.23495982309581356  0.627619020742344  1.0000
  C   C49       1.0  0.04293483651550637  0.2004733788251229  0.592279709315939  1.0000
  C   C50       1.0  0.9999771379962468  0.12792041353662859  0.6279288828270636  1.0000
  C   C51       1.0  0.9570131409900213  0.09227172340010968  0.7004776849712685  1.0000
  C   C52       1.0  0.9573478740691571  0.12760645933152395  0.7349732196812795  1.0000
  C   C53       1.0  0.7441552995915328  0.3720699673196747  0.1279183574142594  1.0000
  C   C54       1.0  0.707252669034709  0.4077198335013251  0.13522757375690014  1.0000
  C   C55       1.0  0.6374246405018197  0.3723829645345447  0.17023196144720737  1.0000
  C   C56       1.0  0.6007769962279425  0.30038358819660976  0.1996037121308588  1.0000
  C   C57       1.0  0.6374212753898049  0.26502832425750716  0.19233628811965528  1.0000
  C   C58       1.0  0.7072509426068763  0.29951872850185896  0.15751525726594903  1.0000
  C   C59       1.0  0.5304329108975878  0.2652166911532846  0.2347670698978915  1.0000
  C   C60       1.0  0.46956807047319415  0.23479072885844934  0.26519148209175825  1.0000
  C   C61       1.0  0.3992247467708835  0.19962200500002325  0.3003565834013883  1.0000
  C   C62       1.0  0.36258455959909947  0.23497718305485904  0.30764234464223256  1.0000
  C   C63       1.0  0.2927555237398636  0.20048792174793553  0.34246564067256463  1.0000
  C   C64       1.0  0.25585012259611517  0.12793981291613926  0.3720458163611582  1.0000
  C   C65       1.0  0.2927489665437761  0.092293466023925  0.3647068306771359  1.0000
  C   C66       1.0  0.36257895368062515  0.12762710963362167  0.32970895395713745  1.0000
  C   C67       1.0  0.25584520087750917  0.6279129275548101  0.8720586149954953  1.0000
  C   C68       1.0  0.2927519140489565  0.6352138907354217  0.9077149896859353  1.0000
  C   C69       1.0  0.36257917001349665  0.6702168632343088  0.8723788298246332  1.0000
  C   C70       1.0  0.39922389491696453  0.699590381696048  0.8003783521016671  1.0000
  C   C71       1.0  0.3625750861947378  0.6923254110689497  0.7650182088791553  1.0000
  C   C72       1.0  0.29274351504679424  0.6575061785740743  0.7995087037392139  1.0000
  C   C73       1.0  0.4695653901507412  0.734759345434796  0.7652128749125422  1.0000
  C   C74       1.0  0.5304314721977761  0.7651932594943105  0.7347924103446103  1.0000
  C   C75       1.0  0.6007770386992701  0.8003678464802279  0.699626381664565  1.0000
  C   C76       1.0  0.6374257631167949  0.8076554885286883  0.7349808656154762  1.0000
  C   C77       1.0  0.7072540692549434  0.842476619302431  0.700492678077765  1.0000
  C   C78       1.0  0.7441541883390597  0.8720546142448952  0.6279445452300508  1.0000
  C   C79       1.0  0.707247842315063  0.8647297128342688  0.5922934167555522  1.0000
  C   C80       1.0  0.6374208915545264  0.8297301531024956  0.6276268814564575  1.0000
  Br  Br1       1.0  0.8972987430633735  0.808702342753918  0.7940060978592882  1.0000
  Br  Br2       1.0  0.10270556969490496  0.6912980513844006  0.7059895895293451  1.0000
  Br  Br3       1.0  0.8972862029056118  0.6912947373209737  0.91140718931873  1.0000
  Br  Br4       1.0  0.10273186923106428  0.8087235475905671  0.5885901288041138  1.0000
  Br  Br5       1.0  0.8972948218161391  0.08860035268302353  0.308679128103826  1.0000
  Br  Br6       1.0  0.1027035026821394  0.4114053287273123  0.19132871511027363  1.0000
  Br  Br7       1.0  0.8973047496508428  0.20600536095984273  0.19127154260220888  1.0000
  Br  Br8       1.0  0.10270330545586855  0.29400129255920154  0.3087242546154698  1.0000
  Br  Br9       1.0  0.8962230409678893  0.6536422903203842  0.0997533776710783  1.0000
  Br  Br10      1.0  0.10376539066218972  0.5997336620413664  0.15370340482716927  1.0000
  Br  Br11      1.0  0.0990106367973879  0.680448369776272  0.23174005465512681  1.0000
  Br  Br12      1.0  0.9009721600168132  0.7316942706867734  0.18045755028508376  1.0000
  Br  Br13      1.0  0.9009950162167399  0.8195672777749723  0.2682523162158005  1.0000
  Br  Br14      1.0  0.09894845346558173  0.7682185218494056  0.3196374729909691  1.0000
  Br  Br15      1.0  0.10367111857176059  0.8462258736897681  0.4003773253826139  1.0000
  Br  Br16      1.0  0.8962325985175635  0.9002701691814604  0.3462963860768725  1.0000
  Br  Br17      1.0  0.10381926257873177  0.5039909505305289  0.7425977990636811  1.0000
  Br  Br18      1.0  0.8962577403247565  0.242537856437778  0.004040782714611236  1.0000
  Br  Br19      1.0  0.9009890569019987  0.16925756605380832  0.918575283886547  1.0000
  Br  Br20      1.0  0.09902824948022737  0.4185391055741264  0.669289111543236  1.0000
  Br  Br21      1.0  0.09895311520941158  0.33072869610802513  0.5814386623193357  1.0000
  Br  Br22      1.0  0.9009955710974039  0.08142487455285172  0.8307419328500671  1.0000
  Br  Br23      1.0  0.8962160429847542  0.9959762497871197  0.7574383219283549  1.0000
  Br  Br24      1.0  0.10368701129713294  0.25745093962577675  0.49597120335756273  1.0000
  Br  Br25      1.0  0.7465857190274645  0.5040249719790068  0.09968706530525406  1.0000
  Br  Br26      1.0  0.7465773000079634  0.24253811031942266  0.15373877378850412  1.0000
  Br  Br27      1.0  0.5878307379922704  0.16925913447251867  0.23175229179827997  1.0000
  Br  Br28      1.0  0.5878370240878465  0.4185651379640589  0.18040475484573187  1.0000
  Br  Br29      1.0  0.41217376790098836  0.3307403278580594  0.268253667127766  1.0000
  Br  Br30      1.0  0.4121708170374347  0.0814570284541531  0.319496823554779  1.0000
  Br  Br31      1.0  0.2534069651991471  0.9960070002340728  0.40015641473311814  1.0000
  Br  Br32      1.0  0.2534287081410369  0.25746337508116574  0.34626551299712827  1.0000
  Br  Br33      1.0  0.2534265573661257  0.5996598153823173  0.004025502325035311  1.0000
  Br  Br34      1.0  0.25341321719265847  0.653721843950315  0.7425231372599727  1.0000
  Br  Br35      1.0  0.4121599782125286  0.7317410278056612  0.6692495797933374  1.0000
  Br  Br36      1.0  0.41216881811384104  0.6803877317305692  0.9185666118294051  1.0000
  Br  Br37      1.0  0.5878377177607773  0.7682651522254673  0.8307470482247509  1.0000
  Br  Br38      1.0  0.5878248820776973  0.8195177422523018  0.5814533684583836  1.0000
  Br  Br39      1.0  0.7465813208602227  0.9002168784335254  0.49599772791801655  1.0000
  Br  Br40      1.0  0.7465871557942377  0.8462802977400659  0.7574717953800273  1.0000
  O   O1        1.0  6.807561448001086e-07  3.031023133800058e-06  0.5000003410704537  1.0000
  O   O2        1.0  0.15101773095164356  0.02569241463547908  0.43463283574112677  1.0000
  O   O3        1.0  0.03937744943025476  0.15377680626841786  0.3855946781095057  1.0000
  O   O4        1.0  0.9602621342789633  0.9345899748991902  0.4143976186577799  1.0000
  O   O5        1.0  0.15101821921037836  0.12533788426542  0.414385203113831  1.0000
  O   O6        1.0  0.03973199543084846  0.9144309146780003  0.4345717979388298  1.0000
  O   O7        1.0  0.960619477778138  0.07503293031581376  0.3855973923623285  1.0000
  O   O8        1.0  0.8489879931003375  0.9346062742731082  0.5257000170513704  1.0000
  O   O9        1.0  0.9606358216451765  0.8855946128107419  0.6537772994154666  1.0000
  O   O10       1.0  0.8489907303316855  0.9143694967162903  0.625351265377304  1.0000
  O   O11       1.0  0.039372956244079306  0.8855887805208412  0.5750300683446953  1.0000
  O   O12       1.0  0.03972049875989818  0.1253166211268422  0.5256992403278815  1.0000
  O   O13       1.0  0.9602878573562066  0.025677192624861872  0.6253381409473775  1.0000
  O   O14       1.0  0.9999996460194182  0.4999984642679394  1.496558674326278e-06  1.0000
  O   O15       1.0  0.9602972793781462  0.5856110029166716  0.06539345775419032  1.0000
  O   O16       1.0  0.03939700155643773  0.4249733711820127  0.11439392901567666  1.0000
  O   O17       1.0  0.8489889880083508  0.37467264436964587  0.08558021382792459  1.0000
  O   O18       1.0  0.03971240668722919  0.5653836135066399  0.0856341391828508  1.0000
  O   O19       1.0  0.8489894513065507  0.47430293368152143  0.0654034632950413  1.0000
  O   O20       1.0  0.9606249674456107  0.34622883446479585  0.11441236425037728  1.0000
  O   O21       1.0  0.960285581640633  0.3746528802482487  0.974330796884864  1.0000
  O   O22       1.0  0.03936611800999396  0.6144028840215655  0.8462215011587944  1.0000
  O   O23       1.0  0.03967379653436621  0.4743052859504432  0.8746785068469407  1.0000
  O   O24       1.0  0.9606251081280632  0.6144038047803306  0.9249697731479074  1.0000
  O   O25       1.0  0.1510111207818808  0.5654245953355782  0.9742913597812121  1.0000
  O   O26       1.0  0.15100772226407602  0.5855934824995189  0.8746552371491418  1.0000
