data_image0
_chemical_formula_structural       Cd4H36C32N4O28
_chemical_formula_sum              "Cd4 H36 C32 N4 O28"
_cell_length_a       8.170225805
_cell_length_b       8.243293822613492
_cell_length_c       19.517
_cell_angle_alpha    90.0
_cell_angle_beta     90.0
_cell_angle_gamma    111.5055855678933

_space_group_name_H-M_alt    "P 1"
_space_group_IT_number       1

loop_
  _space_group_symop_operation_xyz
  'x, y, z'

loop_
  _atom_site_type_symbol
  _atom_site_label
  _atom_site_symmetry_multiplicity
  _atom_site_fract_x
  _atom_site_fract_y
  _atom_site_fract_z
  _atom_site_occupancy
  Cd  Cd1       1.0  0.30612562673518806  0.8039926581948436  0.7864953630168543  1.0000
  Cd  Cd2       1.0  0.6938767232397394  0.6960065275313951  0.2864948506430309  1.0000
  Cd  Cd3       1.0  0.6938710788683622  0.196002018058536  0.2135036122354848  1.0000
  Cd  Cd4       1.0  0.3061285134810987  0.3039946681275936  0.7135030998616613  1.0000
  H   H1        1.0  0.54929428576947  0.6521830830126518  0.8246431316288394  1.0000
  H   H2        1.0  0.45070513402561835  0.8478147988324665  0.3246436440026628  1.0000
  H   H3        1.0  0.4506987479649354  0.3478115932407277  0.1753558436235068  1.0000
  H   H4        1.0  0.549302068340907  0.1521850929454018  0.6753548188758529  1.0000
  H   H5        1.0  0.5485790422302016  0.7667942336582314  0.8898790797766054  1.0000
  H   H6        1.0  0.45142353058957946  0.7332088637113756  0.3898811292719202  1.0000
  H   H7        1.0  0.45142007470874285  0.2332069620007573  0.11011733360660259  1.0000
  H   H8        1.0  0.5485829300876404  0.2667923319476131  0.6101173336066026  1.0000
  H   H9        1.0  0.0765989375344773  0.8889170434490835  0.685073525644313  1.0000
  H   H10       1.0  0.9233978480803627  0.61107040734705  0.1850719885228287  1.0000
  H   H11       1.0  0.9233948378892336  0.1110763289231684  0.3149285238510018  1.0000
  H   H12       1.0  0.0766062012614697  0.3889242689063224  0.8149280114771712  1.0000
  H   H13       1.0  0.055947656867950044  0.6899095794037677  0.675915355843621  1.0000
  H   H14       1.0  0.9440574370193247  0.8100804791546139  0.17591381872213666  1.0000
  H   H15       1.0  0.944049531002676  0.3100864007307322  0.3240841317825484  1.0000
  H   H16       1.0  0.0559453883661263  0.18991419709875856  0.8240815699134103  1.0000
  H   H17       1.0  0.8102473712672804  0.859698371380631  0.6485991699544016  1.0000
  H   H18       1.0  0.18975041545908058  0.6402851677721344  0.14859609571143298  1.0000
  H   H19       1.0  0.18975055829265125  0.1402963048727415  0.3514028795409132  1.0000
  H   H20       1.0  0.8102486649024954  0.3597225472924634  0.8514013424194289  1.0000
  H   H21       1.0  0.9235496391326234  0.2346216730183954  0.4855505456781302  1.0000
  H   H22       1.0  0.07645533130943959  0.2653763170488546  0.9855413229492243  1.0000
  H   H23       1.0  0.0764577860787554  0.7653821304028412  0.514456627555461  1.0000
  H   H24       1.0  0.9235449730085177  0.7346313980157433  0.014456627555461  1.0000
  H   H25       1.0  0.6629914996147475  0.0301431237841285  0.42194548342470733  1.0000
  H   H26       1.0  0.3370185894976956  0.4698587779264898  0.9219408720602544  1.0000
  H   H27       1.0  0.33702056199992825  0.969863287399356  0.5780581031920916  1.0000
  H   H28       1.0  0.6629807502861027  0.5301463293758673  0.0780565660706074  1.0000
  H   H29       1.0  0.5905509817065491  0.5632088429927009  0.6207065635087332  1.0000
  H   H30       1.0  0.4094396841263901  0.9367786078034399  0.1207060511349098  1.0000
  H   H31       1.0  0.40945084256738074  0.4367897449040399  0.3792954859865745  1.0000
  H   H32       1.0  0.5905501600059536  0.0632173723310601  0.8792970231080587  1.0000
  H   H33       1.0  0.4124772473227835  0.5699851131850265  0.570406312445563  1.0000
  H   H34       1.0  0.587516052690404  0.9300127686600916  0.0704047753240786  1.0000
  H   H35       1.0  0.5875221290383763  0.4300134747117212  0.42959624942358227  1.0000
  H   H36       1.0  0.4124778724234303  0.0699975541667541  0.9295957370497518  1.0000
  C   C1        1.0  0.7857156672073274  0.9019232576435101  0.5980811600143454  1.0000
  C   C2        1.0  0.21428063614042972  0.5980628892715103  0.09807757339755338  1.0000
  C   C3        1.0  0.2142844874205068  0.0980675069665011  0.40192293897627707  1.0000
  C   C4        1.0  0.7857130661285436  0.4019435219119671  0.901919352359478  1.0000
  C   C5        1.0  0.8939723348316232  0.0572469006722898  0.5703566121842485  1.0000
  C   C6        1.0  0.10602265769190922  0.4427406583459828  0.0703504636983112  1.0000
  C   C7        1.0  0.1060275603739882  0.9427464716999623  0.4296469744325435  1.0000
  C   C8        1.0  0.8939710445770641  0.5572657528374947  0.9296454373110592  1.0000
  C   C9        1.0  0.8447433791291556  0.1070225625141035  0.5063780294102571  1.0000
  C   C10       1.0  0.1552557309532361  0.3929728197909057  0.0063729056719808  1.0000
  C   C11       1.0  0.15525844514477433  0.8929760253826444  0.49362606958036537  1.0000
  C   C12       1.0  0.8447391952721263  0.6070335913925717  0.993624532458881  1.0000
  C   C13       1.0  0.7017284452170214  0.9958287760677962  0.4716052672029534  1.0000
  C   C14       1.0  0.2982785411612028  0.5041730174206904  0.9716006558385003  1.0000
  C   C15       1.0  0.29828313413057816  0.0041763312345608  0.5283978070400153  1.0000
  C   C16       1.0  0.7017173495983117  0.4958360015250349  0.0283967822923614  1.0000
  C   C17       1.0  0.5940135703209961  0.8296582542051638  0.4991386995952212  1.0000
  C   C18       1.0  0.4059812130707884  0.6703370198777066  0.9991351129784292  1.0000
  C   C19       1.0  0.4059814290590893  0.17033511816708818  0.500863862273917  1.0000
  C   C20       1.0  0.5940141954216429  0.3296706951868913  0.0008623251524327  1.0000
  C   C21       1.0  0.0528313684959727  0.164701047837859  0.6093118819490684  1.0000
  C   C22       1.0  0.9471694843872385  0.3352891189426614  0.1093067582107921  1.0000
  C   C23       1.0  0.9471726808458527  0.8352936284155205  0.3906927294153846  1.0000
  C   C24       1.0  0.052831338775163855  0.6647133805974477  0.8906932417892078  1.0000
  C   C25       1.0  0.5210425730185548  0.6477081630010915  0.603812573653741  1.0000
  C   C26       1.0  0.47895172810615344  0.8522858072006583  0.10381154890608  1.0000
  C   C27       1.0  0.4789609574788257  0.3522917287767697  0.3961879387200895  1.0000
  C   C28       1.0  0.5210400450945087  0.1477153884583302  0.8961874263462589  1.0000
  C   C29       1.0  0.4474977666660819  0.7093947788946409  0.6661203053748038  1.0000
  C   C30       1.0  0.5524967938808488  0.7905965835448683  0.16611928062714298  1.0000
  C   C31       1.0  0.5525025742292372  0.2906064167643478  0.33388123174668033  1.0000
  C   C32       1.0  0.44749260456178763  0.2093915733029021  0.8338796946251961  1.0000
  N   N1        1.0  0.6403815966847475  0.7946829469819932  0.5652482451196406  1.0000
  N   N2        1.0  0.35961637630910553  0.7053110232197567  0.0652451708766719  1.0000
  N   N3        1.0  0.3596248639924724  0.2053182486769956  0.43475431674949755  1.0000
  N   N4        1.0  0.6403770665376527  0.2946979957259614  0.9347522672541898  1.0000
  O   O1        1.0  0.550365194168812  0.767159320372464  0.8376692114566779  1.0000
  O   O2        1.0  0.44964008598594774  0.7328411692349022  0.3376707485781623  1.0000
  O   O3        1.0  0.4496344416145703  0.2328366597620359  0.1623287390480073  1.0000
  O   O4        1.0  0.5503658924241961  0.2671587225429661  0.6623272019265228  1.0000
  O   O5        1.0  0.3613236549221739  0.5921145835918153  0.709782241123122  1.0000
  O   O6        1.0  0.6386686805568544  0.907880690491055  0.2097812163754682  1.0000
  O   O7        1.0  0.6386703433463906  0.407882700423805  0.2902182712507013  1.0000
  O   O8        1.0  0.361328766735994  0.092112681881197  0.7902172465030475  1.0000
  O   O9        1.0  0.06566729397562913  0.778836879703313  0.7100850540554403  1.0000
  O   O10       1.0  0.9343294916392111  0.7211505710928279  0.21008402930777947  1.0000
  O   O11       1.0  0.9343259991810057  0.2211551887878187  0.2899149459445595  1.0000
  O   O12       1.0  0.06567062641125429  0.2788467129227996  0.7899139211969057  1.0000
  O   O13       1.0  0.09902673785189357  0.0857601730536075  0.6594220423220776  1.0000
  O   O14       1.0  0.9009704431621797  0.4142299937269129  0.1594158938361403  1.0000
  O   O15       1.0  0.9009751229993979  0.9142318954375241  0.34058205666854485  1.0000
  O   O16       1.0  0.09903112168952792  0.5857712019320758  0.8405851309115135  1.0000
  O   O17       1.0  0.46314225192439556  0.7181868493019579  0.4701803555874377  1.0000
  O   O18       1.0  0.5368588375167818  0.7818188558298971  0.9701767689706386  1.0000
  O   O19       1.0  0.5368690680009819  0.2818208657626471  0.5298206691602161  1.0000
  O   O20       1.0  0.4631395011554886  0.2181901631158283  0.0298196444125622  1.0000
  O   O21       1.0  0.47019002913393143  0.8675360008064672  0.6745790849003441  1.0000
  O   O22       1.0  0.5298140636418224  0.6324579693952828  0.1745760106573755  1.0000
  O   O23       1.0  0.5298201034124332  0.1324651948525215  0.3254234769687939  1.0000
  O   O24       1.0  0.4701743336892932  0.3675340990958489  0.8254193779781716  1.0000
  O   O25       1.0  0.13539255116942428  0.3216948543621072  0.5948029922631548  1.0000
  O   O26       1.0  0.8646124924273761  0.1782900968939245  0.0947983808987019  1.0000
  O   O27       1.0  0.8646173951094482  0.678295910247904  0.4052005943536371  1.0000
  O   O28       1.0  0.1353924848712467  0.8217137065273121  0.905202643848952  1.0000
