data_image0
_chemical_formula_structural       Cu4H20C24N4Cl4O8
_chemical_formula_sum              "Cu4 H20 C24 N4 Cl4 O8"
_cell_length_a       3.692851932995956
_cell_length_b       5.984911790727245
_cell_length_c       30.63035273409041
_cell_angle_alpha    90.0008790966185
_cell_angle_beta     89.99975902209434
_cell_angle_gamma    93.13007691881648

_space_group_name_H-M_alt    "P 1"
_space_group_IT_number       1

loop_
  _space_group_symop_operation_xyz
  'x, y, z'

loop_
  _atom_site_type_symbol
  _atom_site_label
  _atom_site_symmetry_multiplicity
  _atom_site_fract_x
  _atom_site_fract_y
  _atom_site_fract_z
  _atom_site_occupancy
  Cu  Cu1       1.0  0.9405759975193391  0.8526852285253383  0.7802604539245125  1.0000
  Cu  Cu2       1.0  0.5594053658905764  0.6473369541035082  0.2802559642208351  1.0000
  Cu  Cu3       1.0  0.05944867749253999  0.14732387003093084  0.21974189376479808  1.0000
  Cu  Cu4       1.0  0.44054846220703325  0.3526670875022545  0.7197480158414891  1.0000
  H   H1        1.0  0.6250969030847031  0.8532641806209043  0.015173366221063097  1.0000
  H   H2        1.0  0.8748968044682783  0.6467993883901854  0.5151731861803839  1.0000
  H   H3        1.0  0.3749679335897723  0.146801830695189  0.9848208197726577  1.0000
  H   H4        1.0  0.12509589511861915  0.3531845940901234  0.48482720260825113  1.0000
  H   H5        1.0  0.6554083590771496  0.963006988338506  0.8668406345887831  1.0000
  H   H6        1.0  0.8445972149484929  0.5369528628042132  0.3668389867589496  1.0000
  H   H7        1.0  0.34456494686619266  0.036971964064313995  0.1331515923526823  1.0000
  H   H8        1.0  0.15537352857852935  0.463027761610192  0.6331623814471214  1.0000
  H   H9        1.0  0.9712067898259705  0.43359241202702475  0.9522308873110674  1.0000
  H   H10       1.0  0.528799572874661  0.06637668767176308  0.4522321792417543  1.0000
  H   H11       1.0  0.028875774966422782  0.5664284298416645  0.047769175079665195  1.0000
  H   H12       1.0  0.47116319223771086  0.9336056058643649  0.547770821338716  1.0000
  H   H13       1.0  0.17222236985967504  0.2290909928768698  0.8853073877880888  1.0000
  H   H14       1.0  0.32779814091234977  0.2708889632247633  0.3853083200411902  1.0000
  H   H15       1.0  0.8278982535160467  0.7709315422205517  0.1146943069648074  1.0000
  H   H16       1.0  0.6721406890130267  0.7290983376508462  0.6146959864534267  1.0000
  H   H17       1.0  0.09961948766157748  0.40496520563707594  0.8121918459360202  1.0000
  H   H18       1.0  0.40042779861843053  0.0949835974897297  0.3121904821572201  1.0000
  H   H19       1.0  0.9003998551295993  0.5950137709405112  0.1878098487261539  1.0000
  H   H20       1.0  0.599537820303759  0.9050003708450374  0.6878148037418725  1.0000
  C   C1        1.0  0.7697330759682898  0.8010524664875546  0.8721848645438682  1.0000
  C   C2        1.0  0.7302677871218037  0.6989174985182561  0.3721854597063086  1.0000
  C   C3        1.0  0.2302411046008004  0.19893652614498336  0.1278135654219597  1.0000
  C   C4        1.0  0.2697104973801459  0.30105643671681287  0.6278191732151583  1.0000
  C   C5        1.0  0.7967666220689651  0.7129766834687531  0.9142510625478764  1.0000
  C   C6        1.0  0.7032449892006127  0.7869771571236653  0.4142514955344012  1.0000
  C   C7        1.0  0.20323551382681873  0.2870223635226806  0.0857463880170215  1.0000
  C   C8        1.0  0.29675583453133214  0.21300682962483816  0.5857508520933763  1.0000
  C   C9        1.0  0.9449504876902636  0.5040472758660784  0.9197211752079469  1.0000
  C   C10       1.0  0.5550558874293969  0.9959417794244982  0.419722164584222  1.0000
  C   C11       1.0  0.05507447895845268  0.49596516939059393  0.08027725480773279  1.0000
  C   C12       1.0  0.4449152934027297  0.0040438651082724  0.5802827948443577  1.0000
  C   C13       1.0  0.053983109151495484  0.3911522480098029  0.8826702778461879  1.0000
  C   C14       1.0  0.44606837829618934  0.1088092803592247  0.3826719026690881  1.0000
  C   C15       1.0  0.946054898543217  0.6088233917353775  0.11732717264582251  1.0000
  C   C16       1.0  0.5538797420989495  0.8911914116866554  0.617332730332798  1.0000
  C   C17       1.0  0.01721051073666759  0.4892526276543591  0.8418427502045489  1.0000
  C   C18       1.0  0.48282293978751784  0.010735078791554999  0.3418448042800009  1.0000
  C   C19       1.0  0.98279543760529  0.5107280151714448  0.1581553532566602  1.0000
  C   C20       1.0  0.517127305522088  0.9892589212131709  0.6581595022296725  1.0000
  C   C21       1.0  0.6691182153969208  0.8430417070657654  0.9515934930749381  1.0000
  C   C22       1.0  0.8308466737028795  0.6569494565461368  0.4515951132987368  1.0000
  C   C23       1.0  0.33092416595462043  0.1569841335896527  0.048401672236806796  1.0000
  C   C24       1.0  0.1691294859467263  0.34303117070205486  0.5484059284323521  1.0000
  N   N1        1.0  0.8826972915568659  0.6937816592565796  0.8364791114915135  1.0000
  N   N2        1.0  0.6173232230659733  0.8061827844965918  0.3364810001628982  1.0000
  N   N3        1.0  0.11729724151476258  0.3061922843887075  0.1635118095365229  1.0000
  N   N4        1.0  0.3826378544836331  0.1938112211780307  0.6635229798703435  1.0000
  Cl  Cl1       1.0  0.9528822583362812  0.5946167272651762  0.7231529993498  1.0000
  Cl  Cl2       1.0  0.5470874379242475  0.9054364233671918  0.2231531768267558  1.0000
  Cl  Cl3       1.0  0.047076380940716  0.4054425352710496  0.276838574865657  1.0000
  Cl  Cl4       1.0  0.45290940540243696  0.09462620590684878  0.7768602711154599  1.0000
  O   O1        1.0  0.7327856543041805  0.7575870462135371  0.990365243778392  1.0000
  O   O2        1.0  0.7671806292196737  0.742434792935839  0.49036670736692395  1.0000
  O   O3        1.0  0.26724047878315105  0.24243878589380327  0.0096243714873196  1.0000
  O   O4        1.0  0.2328066542239284  0.257549186720034  0.509635313790902  1.0000
  O   O5        1.0  0.5120535683299038  0.021306469048198596  0.9462038463403387  1.0000
  O   O6        1.0  0.987943611059002  0.4786792724004911  0.4462123462587044  1.0000
  O   O7        1.0  0.48803828707203684  0.9787277639276794  0.0537877277718266  1.0000
  O   O8        1.0  0.012054504650478692  0.5213047129135973  0.5537877160549343  1.0000
