data_image0
_chemical_formula_structural       Zn8H44C58O30F4
_chemical_formula_sum              "Zn8 H44 C58 O30 F4"
_cell_length_a       18.369402126367692
_cell_length_b       18.42079314395587
_cell_length_c       18.405813954519424
_cell_angle_alpha    90.24631395534738
_cell_angle_beta     119.58172645929234
_cell_angle_gamma    119.74495644117312

_space_group_name_H-M_alt    "P 1"
_space_group_IT_number       1

loop_
  _space_group_symop_operation_xyz
  'x, y, z'

loop_
  _atom_site_type_symbol
  _atom_site_label
  _atom_site_symmetry_multiplicity
  _atom_site_fract_x
  _atom_site_fract_y
  _atom_site_fract_z
  _atom_site_occupancy
  Zn  Zn1       1.0  0.9113272045234027  0.20267557621041732  0.6215991353874415  1.0000
  Zn  Zn2       1.0  0.09093626186756149  0.798047973768746  0.2087225782312672  1.0000
  Zn  Zn3       1.0  0.9122098415803067  0.20378948089955887  0.795799178585966  1.0000
  Zn  Zn4       1.0  0.909597808320953  0.79189958788821  0.2036744693932847  1.0000
  Zn  Zn5       1.0  0.085613406204466  0.3760497488609644  0.7931811136225376  1.0000
  Zn  Zn6       1.0  0.08629285998137708  0.7934226293473118  0.37729980306637856  1.0000
  Zn  Zn7       1.0  0.9102191449432269  0.6204687106005622  0.20243906602735964  1.0000
  Zn  Zn8       1.0  0.08794847646455389  0.20448815715194257  0.7970469675119387  1.0000
  H   H1        1.0  0.8962850863778725  0.4356959216865021  0.34176126253166933  1.0000
  H   H2        1.0  0.39918505763082385  0.5651923310311986  0.9510728503135722  1.0000
  H   H3        1.0  0.13120385877225957  0.965606488069227  0.5633961239641394  1.0000
  H   H4        1.0  0.13158130274123175  0.5647153249849522  0.9646807015894577  1.0000
  H   H5        1.0  0.40164059003983976  0.9513186412346716  0.5695556514261496  1.0000
  H   H6        1.0  0.40832360885435287  0.9514016167743334  0.33878371859583467  1.0000
  H   H7        1.0  0.4056535671549213  0.3344989580780506  0.9501120100283343  1.0000
  H   H8        1.0  0.8689863750315469  0.9389729084090277  0.3379809295838569  1.0000
  H   H9        1.0  0.8811395950742167  0.34137264918209803  0.4360974835343683  1.0000
  H   H10       1.0  0.873227330534007  0.33875220823214386  0.9436773375046597  1.0000
  H   H11       1.0  0.5998460195850014  0.04834162516091569  0.4376011544195961  1.0000
  H   H12       1.0  0.5972378935297937  0.43374510899576535  0.0474119566959033  1.0000
  H   H13       1.0  0.8726760467390592  0.034287025622091995  0.43954749803347687  1.0000
  H   H14       1.0  0.8771400826228162  0.44063589516017754  0.038664463699269874  1.0000
  H   H15       1.0  0.09390349956618846  0.24108259638240528  0.023848432541605284  1.0000
  H   H16       1.0  0.1411312838219203  0.23426106184317064  0.1328076402935778  1.0000
  H   H17       1.0  0.9845306636869113  0.2781287393963794  0.0314010853869038  1.0000
  H   H18       1.0  0.026182043599199296  0.2681803771340369  0.1379810905612544  1.0000
  H   H19       1.0  0.2072144329494989  0.39606446562383  0.19742401100701557  1.0000
  H   H20       1.0  0.12206454906239364  0.4284275935207233  0.14834462251765496  1.0000
  H   H21       1.0  0.16613970846183435  0.40602269338626945  0.09046337834683985  1.0000
  H   H22       1.0  0.06047038176063779  0.1563614810049572  0.21796649790752545  1.0000
  H   H23       1.0  0.14040254725208  0.12448795025667889  0.22411317754228574  1.0000
  H   H24       1.0  0.0007866641283413963  0.0442302658627227  0.2884389141369538  1.0000
  H   H25       1.0  0.0808691081167154  0.014708921702990098  0.29472429352098567  1.0000
  H   H26       1.0  0.2367249044962136  0.16818294442301607  0.3987316118620327  1.0000
  H   H27       1.0  0.16202863339513837  0.11871846814916148  0.4411630943130404  1.0000
  H   H28       1.0  0.15754355624933683  0.20034660242080093  0.3920951681156025  1.0000
  H   H29       1.0  0.9064611280997568  0.9774151137956153  0.7591952806744473  1.0000
  H   H30       1.0  0.8575065924284074  0.8683886177046033  0.7662471017631772  1.0000
  H   H31       1.0  0.014616733370715226  0.9672752991367373  0.7219212538450747  1.0000
  H   H32       1.0  0.03598711789981483  0.5941622158357874  0.5125077803103153  1.0000
  H   H33       1.0  0.970706320381595  0.8604472076878339  0.731639616412643  1.0000
  H   H34       1.0  0.7903901512360606  0.8028606701145549  0.6044645843718897  1.0000
  H   H35       1.0  0.8752498699335618  0.8502589380305424  0.5714773417382373  1.0000
  H   H36       1.0  0.8333875717457389  0.910005226440262  0.5945474104542326  1.0000
  H   H37       1.0  0.937954972463352  0.7819074465474073  0.8439920711005368  1.0000
  H   H38       1.0  0.8584804824472911  0.7756954434799894  0.8766250429011676  1.0000
  H   H39       1.0  0.9981881569639414  0.7117631315167899  0.9557973745691868  1.0000
  H   H40       1.0  0.9193532318236632  0.7060443986033746  0.9868066003302685  1.0000
  H   H41       1.0  0.7620442521506378  0.6018130269552628  0.834158470967779  1.0000
  H   H42       1.0  0.8359813974656733  0.5588193258779057  0.8826728445745005  1.0000
  H   H43       1.0  0.06981928657244658  0.5118625575060777  0.594246817487395  1.0000
  H   H44       1.0  0.8396858859129495  0.6072825282941422  0.8004536985647517  1.0000
  C   C1        1.0  0.27636336316215454  0.3856741856033069  0.8876340780722103  1.0000
  C   C2        1.0  0.4464251587551402  0.4062405929218897  0.971716406315018  1.0000
  C   C3        1.0  0.9481453950625749  0.9061857529502361  0.7121992191093937  1.0000
  C   C4        1.0  0.8568463720543489  0.8651078218890619  0.6154876880522197  1.0000
  C   C5        1.0  0.9288430540949335  0.7800351381125663  0.8990409059599073  1.0000
  C   C6        1.0  0.924916762134046  0.7026490037431473  0.9301956747314006  1.0000
  C   C7        1.0  0.8358113969017892  0.6128690427469153  0.8577850439291834  1.0000
  C   C8        1.0  0.0748202513629224  0.2263804185502849  0.07260916944879629  1.0000
  C   C9        1.0  0.05024531345372907  0.2878866252411143  0.09312765340197868  1.0000
  C   C10       1.0  0.14139368512114456  0.38481076424228877  0.13461025331528728  1.0000
  C   C11       1.0  0.0700136732038246  0.101623578956783  0.2200059847416824  1.0000
  C   C12       1.0  0.0743110547332293  0.0707143129061265  0.2976220640660116  1.0000
  C   C13       1.0  0.9264927889604878  0.9656888997985008  0.409118064039184  1.0000
  C   C14       1.0  0.1624854730262655  0.14361970810321623  0.38716802887163476  1.0000
  C   C15       1.0  0.9243025155054098  0.9279828265229498  0.7738475307676325  1.0000
  C   C16       1.0  0.9302309055954866  0.41000972243199396  0.9693334640785666  1.0000
  C   C17       1.0  0.4490858254694387  0.9728037348590914  0.41049506815355113  1.0000
  C   C18       1.0  0.5550267019190827  0.026516720268482202  0.4652761630068195  1.0000
  C   C19       1.0  0.5523851536092438  0.4612482306441521  0.02551639519001017  1.0000
  C   C20       1.0  0.9285802023026833  0.018305621616150295  0.4653565560945552  1.0000
  C   C21       1.0  0.27891438081977776  0.8871672740574114  0.3899452384524835  1.0000
  C   C22       1.0  0.9325129300766053  0.4664103064807108  0.021931374818670777  1.0000
  C   C23       1.0  0.6085743456070531  0.0547559298010896  0.5580998539721305  1.0000
  C   C24       1.0  0.6059615951636985  0.5540828563825357  0.053959293312779225  1.0000
  C   C25       1.0  0.00226158432008819  0.052787884639641895  0.5574413257918279  1.0000
  C   C26       1.0  0.005762421863650484  0.5587071328711346  0.055629528469623296  1.0000
  C   C27       1.0  0.0013513945562165612  0.38628099666419746  0.8915679082310674  1.0000
  C   C28       1.0  0.9946178006244111  0.06993925284464811  0.01962587518065818  1.0000
  C   C29       1.0  0.9937498795308672  0.015436456771610093  0.07298575209591013  1.0000
  C   C30       1.0  0.004220721624307027  0.9806260051380278  0.9301972219866383  1.0000
  C   C31       1.0  0.005128516230527571  0.9273031615743716  0.9847731178867531  1.0000
  C   C32       1.0  0.9996300292092073  0.8899955314348132  0.38560499827035943  1.0000
  C   C33       1.0  0.9994518714150968  0.9448645983490067  0.05543562301576789  1.0000
  C   C34       1.0  0.9993732518309102  0.05221213188987409  0.9479483914019725  1.0000
  C   C35       1.0  0.7227167540709162  0.1119496983125856  0.6137292588290393  1.0000
  C   C36       1.0  0.720127360685339  0.6099722907701306  0.11188028762916953  1.0000
  C   C37       1.0  0.9996468915730645  0.108108507866163  0.6145215477394641  1.0000
  C   C38       1.0  0.003365323029520074  0.6155858802676449  0.11153522042805261  1.0000
  C   C39       1.0  0.9998083451812576  0.10991631780435542  0.890858154133326  1.0000
  C   C40       1.0  0.9997445209104541  0.8877900306932176  0.11300911610766201  1.0000
  C   C41       1.0  0.0010881074655628403  0.3838217022660969  0.6118245033691778  1.0000
  C   C42       1.0  0.993338001417179  0.611531758203853  0.38425057299803467  1.0000
  C   C43       1.0  0.9410478245273027  0.4681781925451104  0.41301900461341035  1.0000
  C   C44       1.0  0.9399469471282772  0.4125934647450009  0.4685687627695999  1.0000
  C   C45       1.0  0.9919677998182551  0.5570569647635821  0.4427434348348242  1.0000
  C   C46       1.0  0.006984072641159828  0.44222069089829574  0.5573242817200564  1.0000
  C   C47       1.0  0.5501987070625703  0.026288414504250596  0.5933904512267532  1.0000
  C   C48       1.0  0.5476544284416607  0.5892979263152399  0.025401505480736913  1.0000
  C   C49       1.0  0.07463815136952687  0.0324686468347579  0.5905418840986911  1.0000
  C   C50       1.0  0.07697592610215047  0.5918191094754306  0.03373155163878748  1.0000
  C   C51       1.0  0.44419858100422954  0.9723216287411703  0.5398092990461477  1.0000
  C   C52       1.0  0.4416603629805778  0.5354948565785165  0.971753007071065  1.0000
  C   C53       1.0  0.07397151113489998  0.9800174385816404  0.535585103609641  1.0000
  C   C54       1.0  0.07552947273305216  0.5366826733524307  0.9806160322132698  1.0000
  C   C55       1.0  0.3932167030740031  0.9453273451066619  0.4478930308530237  1.0000
  C   C56       1.0  0.39061518246876387  0.44349423910353636  0.9447832402349758  1.0000
  C   C57       1.0  0.9995290518119121  0.9463213749962024  0.44438496762978025  1.0000
  C   C58       1.0  0.002035705133877653  0.44529786772523744  0.9483548220569202  1.0000
  O   O1        1.0  0.9990167894504297  0.24641828677469138  0.7514505443475628  1.0000
  O   O2        1.0  0.23339365512064336  0.8656473964483309  0.4288041650083088  1.0000
  O   O3        1.0  0.05806787436834066  0.42455755248162313  0.8642876369792772  1.0000
  O   O4        1.0  0.06527799336279827  0.8719358493508125  0.424351118976027  1.0000
  O   O5        1.0  0.7650829749381672  0.12395896554011188  0.5726446455264947  1.0000
  O   O6        1.0  0.7630025386141812  0.5691505626765406  0.12631285860012303  1.0000
  O   O7        1.0  0.9438654164561628  0.13575007161097113  0.5741910449380754  1.0000
  O   O8        1.0  0.9379956046718189  0.5741999877224727  0.1298613202724112  1.0000
  O   O9        1.0  0.9989855863957616  0.7502016188056686  0.2479379688720444  1.0000
  O   O10       1.0  0.05147261381677028  0.12222231472152599  0.6975152543300138  1.0000
  O   O11       1.0  0.06496334117527867  0.6991694240624537  0.13538657839324486  1.0000
  O   O12       1.0  0.7686836332951897  0.14420860955018358  0.696686900060669  1.0000
  O   O13       1.0  0.7655439885456374  0.692979931736005  0.1424363579728762  1.0000
  O   O14       1.0  0.9445972698705278  0.3031138850355434  0.8755860640736941  1.0000
  O   O15       1.0  0.9348152712647675  0.8654603171558152  0.3024370900828899  1.0000
  O   O16       1.0  0.2333288517137078  0.3024185340966952  0.8603570866735878  1.0000
  O   O17       1.0  0.23664408820594227  0.8640115773055186  0.3067653789806855  1.0000
  O   O18       1.0  0.07291275654516484  0.14421841821060613  0.8812716900725306  1.0000
  O   O19       1.0  0.07864181428145374  0.886617081832945  0.15538001371532317  1.0000
  O   O20       1.0  0.9272498534576742  0.12009246447943411  0.8568168544210548  1.0000
  O   O21       1.0  0.9211887240338043  0.8453588026974187  0.11488074901035385  1.0000
  O   O22       1.0  0.06659163732494733  0.42375623993170564  0.6954966717329469  1.0000
  O   O23       1.0  0.0535963203458606  0.6953338911101382  0.42449466333375335  1.0000
  O   O24       1.0  0.9330650929748215  0.3005235459866143  0.57291272517255  1.0000
  O   O25       1.0  0.23159506217777448  0.42472525845474957  0.8712083892898761  1.0000
  O   O26       1.0  0.9364273742410916  0.5722730413941334  0.30074025234567614  1.0000
  O   O27       1.0  0.9864406632761559  0.1366950286918893  0.03837492551704739  1.0000
  O   O28       1.0  0.9832043272600969  0.0269960049724745  0.13990298210546837  1.0000
  O   O29       1.0  0.01250568469472296  0.9619343395062785  0.8634751765004437  1.0000
  O   O30       1.0  0.01579769243423345  0.8605577497242577  0.9732592992951722  1.0000
  F   F1        1.0  0.5952140970147042  0.0497232694323984  0.6819023526752446  1.0000
  F   F2        1.0  0.5925161390764232  0.6778075156048757  0.04866740511243257  1.0000
  F   F3        1.0  0.14964062120099442  0.0647210363353423  0.6781587721488405  1.0000
  F   F4        1.0  0.15085534396384753  0.6796006202188494  0.06401172198443564  1.0000
