data_image0
_chemical_formula_structural       Cd2H36C50S2N12O12
_chemical_formula_sum              "Cd2 H36 C50 S2 N12 O12"
_cell_length_a       8.223185920466227
_cell_length_b       8.223136173120327
_cell_length_c       20.678832635458612
_cell_angle_alpha    93.27629946070265
_cell_angle_beta     93.27562617297689
_cell_angle_gamma    107.5539142268898

_space_group_name_H-M_alt    "P 1"
_space_group_IT_number       1

loop_
  _space_group_symop_operation_xyz
  'x, y, z'

loop_
  _atom_site_type_symbol
  _atom_site_label
  _atom_site_symmetry_multiplicity
  _atom_site_fract_x
  _atom_site_fract_y
  _atom_site_fract_z
  _atom_site_occupancy
  Cd  Cd1       1.0  0.5152084001238606  0.2431139589369877  0.2189647378273775  1.0000
  Cd  Cd2       1.0  0.2431175268577732  0.515210308410083  0.7189659117541181  1.0000
  H   H1        1.0  0.1794668870366039  0.1166999703314247  0.2936413363678198  1.0000
  H   H2        1.0  0.11670341826496157  0.17947355100199755  0.7936440523721654  1.0000
  H   H3        1.0  0.944150609835539  0.2586048622695571  0.42484177538749174  1.0000
  H   H4        1.0  0.2586117615021237  0.9441504731275855  0.9248386060742886  1.0000
  H   H5        1.0  0.20578838566356683  0.4701248655180165  0.4601724157934796  1.0000
  H   H6        1.0  0.4701361937859332  0.20579257399368336  0.9601706138730743  1.0000
  H   H7        1.0  0.7279048538106636  0.312129907625085  0.5093961063245017  1.0000
  H   H8        1.0  0.3121288322654151  0.7279025891289875  0.009395106505571994  1.0000
  H   H9        1.0  0.5103951351159282  0.6131742793646565  0.4398757769680015  1.0000
  H   H10       1.0  0.6131913875371495  0.5103979987329907  0.9398724984688867  1.0000
  H   H11       1.0  0.6347121521885697  0.5022604770578384  0.3442254404427699  1.0000
  H   H12       1.0  0.502268323150453  0.634720708951278  0.8442255365027406  1.0000
  H   H13       1.0  0.5915211907850589  0.8539674989767149  0.2904091444357063  1.0000
  H   H14       1.0  0.8539664065750043  0.5915238286938019  0.790411429924276  1.0000
  H   H15       1.0  0.2924350239071956  0.7845772809968353  0.3255508348706754  1.0000
  H   H16       1.0  0.7845795999783078  0.2924306694482013  0.8255505878033416  1.0000
  H   H17       1.0  0.24571817063542056  0.9436099284644043  0.4285021178137355  1.0000
  H   H18       1.0  0.9436160727899362  0.24572074635251076  0.9285020882832096  1.0000
  H   H19       1.0  0.3605024018639114  0.3415520964392371  0.6017355462564067  1.0000
  H   H20       1.0  0.3415462227933403  0.3604993462017774  0.10173400851397928  1.0000
  H   H21       1.0  0.6558184888931038  0.7257255085980462  0.7362611113790078  1.0000
  H   H22       1.0  0.7257166567636659  0.655813733641054  0.23625927874830666  1.0000
  H   H23       1.0  0.925806003943542  0.7300651447341054  0.6833259110349201  1.0000
  H   H24       1.0  0.7300708383891389  0.9258001981191483  0.18332204870619506  1.0000
  H   H25       1.0  0.9069899854062626  0.5330036951853004  0.5858327221448361  1.0000
  H   H26       1.0  0.5330093940668164  0.9069888055549882  0.08582887598615227  1.0000
  H   H27       1.0  0.05549986847433531  0.3313661323125531  0.1523624450876895  1.0000
  H   H28       1.0  0.3313703109448269  0.055506936917637986  0.6523648869552757  1.0000
  H   H29       1.0  0.1202366521054898  0.331302912598531  0.23619830328323832  1.0000
  H   H30       1.0  0.33130263287449674  0.12023924326221899  0.7362012054944953  1.0000
  H   H31       1.0  0.736490732626393  0.48218696012639123  0.03378202546780779  1.0000
  H   H32       1.0  0.482190678194371  0.7364963905519559  0.5337861355458527  1.0000
  H   H33       1.0  0.8183179645583961  0.7763861984940873  0.9917998722378126  1.0000
  H   H34       1.0  0.7763848471463105  0.818320111077469  0.4918009933210639  1.0000
  H   H35       1.0  0.0629774711573177  0.0078099770715241  0.05356401413002489  1.0000
  H   H36       1.0  0.007807745941512693  0.06298487039262568  0.5535651662955557  1.0000
  C   C1        1.0  0.24624352105725933  0.2285185253236293  0.32620786201203333  1.0000
  C   C2        1.0  0.22852356950509287  0.2462485510912344  0.8262090226642012  1.0000
  C   C3        1.0  0.16517643257678571  0.2845161799102343  0.3773413130043152  1.0000
  C   C4        1.0  0.2845234758417021  0.165181158424403  0.8773407447497942  1.0000
  C   C5        1.0  0.2626631299510933  0.4252576996789869  0.4190612654278708  1.0000
  C   C6        1.0  0.42526724078686584  0.2626653774580987  0.91905962579861  1.0000
  C   C7        1.0  0.4323925929147732  0.5043714734486642  0.408068723940154  1.0000
  C   C8        1.0  0.5043841265483592  0.43239916593820027  0.9080664692483463  1.0000
  C   C9        1.0  0.5024747145258246  0.4446699503719387  0.3553594476836536  1.0000
  C   C10       1.0  0.44467707806458623  0.50248160692216  0.8553602931504893  1.0000
  C   C11       1.0  0.8742989198832091  0.0808794055547679  0.3490846824586597  1.0000
  C   C12       1.0  0.08088001223120495  0.8743069472411661  0.8490851831302209  1.0000
  C   C13       1.0  0.6955111699463857  0.043728147466254086  0.37038425782741047  1.0000
  C   C14       1.0  0.04373041086830646  0.6955180031310632  0.8703854085890722  1.0000
  C   C15       1.0  0.5634479884085123  0.9178049961294333  0.33391853370035557  1.0000
  C   C16       1.0  0.917807374689147  0.5634521889144182  0.8339197374581244  1.0000
  C   C17       1.0  0.3981556218137711  0.8790702209615233  0.35397632763967823  1.0000
  C   C18       1.0  0.8790743307656256  0.3981556122542783  0.853978159422297  1.0000
  C   C19       1.0  0.37104073003385457  0.9670600805599322  0.40970208639379274  1.0000
  C   C20       1.0  0.9670629773079398  0.3710431877968503  0.9097027100934124  1.0000
  C   C21       1.0  0.5098430699529359  0.09373220424756566  0.4423813446407576  1.0000
  C   C22       1.0  0.09373449423883774  0.5098465413881711  0.9423818883920345  1.0000
  C   C23       1.0  0.47534394991068746  0.19142893316875123  0.5009652815263337  1.0000
  C   C24       1.0  0.191427780828981  0.47534312164475523  0.0009625534360467031  1.0000
  C   C25       1.0  0.6310095802238961  0.4224072363327451  0.5852714731209119  1.0000
  C   C26       1.0  0.4224070476494717  0.631004700199604  0.08526996292214048  1.0000
  C   C27       1.0  0.4872479176560561  0.42566498746382553  0.6182271773311214  1.0000
  C   C28       1.0  0.42566320717048717  0.48724619017008314  0.11822632604028627  1.0000
  C   C29       1.0  0.6537164713797239  0.6391024198925094  0.6940542243207017  1.0000
  C   C30       1.0  0.6390992321059129  0.6537123567397173  0.19405174071920325  1.0000
  C   C31       1.0  0.8022031871360155  0.6429801579174212  0.6641059788114204  1.0000
  C   C32       1.0  0.6429775507546367  0.8021982465621846  0.16410382342857588  1.0000
  C   C33       1.0  0.7913162038801501  0.5332567468584415  0.6092264671119663  1.0000
  C   C34       1.0  0.5332612562939261  0.7913153776387318  0.10922330517973927  1.0000
  C   C35       1.0  0.8591451197204947  0.3238907163104514  0.21819789551725677  1.0000
  C   C36       1.0  0.3238986291725112  0.8591480140880067  0.7181992946261458  1.0000
  C   C37       1.0  0.044644406265163555  0.38150810799436385  0.20159013434953715  1.0000
  C   C38       1.0  0.3815105360517989  0.044649831302137996  0.7015933375320386  1.0000
  C   C39       1.0  0.04672371033545626  0.6718608464136722  0.14426057927234837  1.0000
  C   C40       1.0  0.6718609105899701  0.0467271882336746  0.6442644864127727  1.0000
  C   C41       1.0  0.8409987922732824  0.5879833390114158  0.05807038156398648  1.0000
  C   C42       1.0  0.5879862447043178  0.8410014717215403  0.5580739318567253  1.0000
  C   C43       1.0  0.885592605261685  0.7504545923249992  0.03506763742039709  1.0000
  C   C44       1.0  0.7504614765380849  0.885596970234893  0.5350681238135236  1.0000
  C   C45       1.0  0.019792139509256373  0.878015554019882  0.06905055839112607  1.0000
  C   C46       1.0  0.8780157092198378  0.019796953107189097  0.5690539564036569  1.0000
  C   C47       1.0  0.10282800138429586  0.841259268804876  0.12470903293426254  1.0000
  C   C48       1.0  0.8412572604878504  0.10283345895094699  0.6247131610707795  1.0000
  C   C49       1.0  0.24799871828381007  0.9781632733417069  0.15958259181797266  1.0000
  C   C50       1.0  0.9781651079532026  0.24800681340425978  0.659584445895909  1.0000
  S   S1        1.0  0.14655717682285296  0.6104266292328618  0.21203581323325682  1.0000
  S   S2        1.0  0.6104286221678876  0.1465618949623462  0.7120382183068442  1.0000
  N   N1        1.0  0.4094983991690312  0.30979176406766123  0.3156243749834714  1.0000
  N   N2        1.0  0.3097980963007387  0.4095097115888962  0.8156263541780006  1.0000
  N   N3        1.0  0.9942101168463537  0.2075768117053087  0.3876476436963045  1.0000
  N   N4        1.0  0.20758486790957414  0.9942151797860105  0.8876467643973668  1.0000
  N   N5        1.0  0.6696112871562434  0.13249994503407692  0.4233821557317368  1.0000
  N   N6        1.0  0.13249906121396285  0.6696137934069383  0.9233819309086896  1.0000
  N   N7        1.0  0.6181811555902782  0.31130377989764924  0.5301943600828167  1.0000
  N   N8        1.0  0.311302218394097  0.6181810438360316  0.030193625348672988  1.0000
  N   N9        1.0  0.5000443336677306  0.5313428655752901  0.6713944776576568  1.0000
  N   N10       1.0  0.5313368258718327  0.5000375394617079  0.17139323247908317  1.0000
  N   N11       1.0  0.9189721581049922  0.5491694605513686  0.11073166204280938  1.0000
  N   N12       1.0  0.549175723954228  0.918972775937462  0.6107345389705043  1.0000
  O   O1        1.0  0.7558817816967576  0.2006969852110316  0.18160203464948668  1.0000
  O   O2        1.0  0.20070709108814097  0.755883268632637  0.6816015602559486  1.0000
  O   O3        1.0  0.8133474760912377  0.3965402975152302  0.2666352341317476  1.0000
  O   O4        1.0  0.39653652031377357  0.8133534387641533  0.7666386122939668  1.0000
  O   O5        1.0  0.3211314062394948  0.108087061465973  0.12911265899559504  1.0000
  O   O6        1.0  0.1080928426382428  0.32113447157414043  0.6291152129350903  1.0000
  O   O7        1.0  0.29562790828617835  0.9616961239556474  0.21800250864397694  1.0000
  O   O8        1.0  0.9616948132488116  0.29564413515500815  0.7180046065717745  1.0000
  O   O9        1.0  0.9057098910340001  0.001237260518465194  0.3014335867210604  1.0000
  O   O10       1.0  0.0012353457470198673  0.9057157190659169  0.8014347355961389  1.0000
  O   O11       1.0  0.3285425071145768  0.1631624275636483  0.5183678356156134  1.0000
  O   O12       1.0  0.16316651791566977  0.32853947308406356  0.01836537685810669  1.0000
