data_image0
_chemical_formula_structural       Ni2H56C54N8O14
_chemical_formula_sum              "Ni2 H56 C54 N8 O14"
_cell_length_a       9.560147966598073
_cell_length_b       12.104134893264039
_cell_length_c       12.263688938244732
_cell_angle_alpha    102.13789993656239
_cell_angle_beta     92.6862700704294
_cell_angle_gamma    88.8116903852549

_space_group_name_H-M_alt    "P 1"
_space_group_IT_number       1

loop_
  _space_group_symop_operation_xyz
  'x, y, z'

loop_
  _atom_site_type_symbol
  _atom_site_label
  _atom_site_symmetry_multiplicity
  _atom_site_fract_x
  _atom_site_fract_y
  _atom_site_fract_z
  _atom_site_occupancy
  Ni  Ni1       1.0  0.16773991413693784  0.3659390635532703  0.5894517487786215  1.0000
  Ni  Ni2       1.0  0.8322496618406134  0.6340395410281304  0.41053655706770786  1.0000
  H   H1        1.0  0.37022795495239796  0.25845612390855177  0.710913261268068  1.0000
  H   H2        1.0  0.629730520199189  0.7415407713817573  0.2890876492000132  1.0000
  H   H3        1.0  0.21704016281360342  0.5661528104242353  0.6434258643338351  1.0000
  H   H4        1.0  0.7829672829819786  0.43381373592622213  0.3565776300989682  1.0000
  H   H5        1.0  0.1446493134473954  0.5621156788924041  0.5176845483723866  1.0000
  H   H6        1.0  0.8553073090338615  0.43782372874145653  0.48229071109978605  1.0000
  H   H7        1.0  0.37254163132381996  0.0921778247146676  0.803274528925861  1.0000
  H   H8        1.0  0.6274446203187907  0.9078482660864611  0.19675191253340066  1.0000
  H   H9        1.0  0.2537551301002027  0.017568211649276605  0.9204597115468968  1.0000
  H   H10       1.0  0.7462358238362157  0.9824407904525004  0.0795340237900177  1.0000
  H   H11       1.0  0.4118047094593891  0.7257431287461175  0.8259768742515514  1.0000
  H   H12       1.0  0.5881841210746472  0.27426926686908365  0.1740117831412107  1.0000
  H   H13       1.0  0.984130007429975  0.9884384705408283  0.6210415771403885  1.0000
  H   H14       1.0  0.0158984915509777  0.0115614500886068  0.37894651541606794  1.0000
  H   H15       1.0  0.9922139315878128  0.16497791088660563  0.5420952199234178  1.0000
  H   H16       1.0  0.007761563945720701  0.8349931949556011  0.4578585233071805  1.0000
  H   H17       1.0  0.1824537898548826  0.775279213900902  0.8858239073131954  1.0000
  H   H18       1.0  0.8175403254929848  0.22472300661508632  0.11417669130163689  1.0000
  H   H19       1.0  0.1471901482004867  0.969432285060322  0.08843819352807715  1.0000
  H   H20       1.0  0.8528047850814389  0.0305673225080696  0.9115447712556343  1.0000
  H   H21       1.0  0.012757831607061102  0.8889086259237048  0.006503052222889544  1.0000
  H   H22       1.0  0.9872359593335603  0.11108760154589703  0.9934742963445796  1.0000
  H   H23       1.0  0.06217866285774681  0.8260141103297303  0.18754514289009447  1.0000
  H   H24       1.0  0.9378079117935909  0.17399069179153062  0.8124353746502987  1.0000
  H   H25       1.0  0.09819482282573941  0.7160023385560169  0.07296074701766746  1.0000
  H   H26       1.0  0.9017823847462978  0.2840043187394415  0.927023135672513  1.0000
  H   H27       1.0  0.29351138485029793  0.7326092062276287  0.2183513394360616  1.0000
  H   H28       1.0  0.706463899723687  0.2674042737498183  0.7816420338544102  1.0000
  H   H29       1.0  0.3184262884096826  0.8751879777862754  0.2095271919936366  1.0000
  H   H30       1.0  0.6815500920990872  0.12481792145981535  0.7904760825680126  1.0000
  H   H31       1.0  0.34289113369241164  0.6682451550336881  0.017773538403425035  1.0000
  H   H32       1.0  0.6570998961022455  0.3317689224693013  0.9822228660130319  1.0000
  H   H33       1.0  0.48783916437235336  0.7424172936268508  0.09131703332095502  1.0000
  H   H34       1.0  0.5121415278233883  0.2575978373722735  0.9086898831781692  1.0000
  H   H35       1.0  0.4152590567415757  0.9155393488637391  0.02649712580157636  1.0000
  H   H36       1.0  0.5847225207690485  0.08446982145945729  0.973500445540672  1.0000
  H   H37       1.0  0.44823592663778566  0.7768658187693163  0.66908123106149  1.0000
  H   H38       1.0  0.5517753140623255  0.2231505563506603  0.33094070001780546  1.0000
  H   H39       1.0  0.5545111099634638  0.6967165921283469  0.48675308559238306  1.0000
  H   H40       1.0  0.4455083097199335  0.3032785347559114  0.5132680107301864  1.0000
  H   H41       1.0  0.9498387162284488  0.6824703589177619  0.6383646310577048  1.0000
  H   H42       1.0  0.0501720983394236  0.3175130464543657  0.3616456653092327  1.0000
  H   H43       1.0  0.8607194335091606  0.7644038065594431  0.826807854039046  1.0000
  H   H44       1.0  0.13931679711753023  0.23559611670260955  0.17321471539944608  1.0000
  H   H45       1.0  0.5144185476168772  0.5868017308568839  0.943394464778521  1.0000
  H   H46       1.0  0.4855936249132712  0.413218802395221  0.05661447968136461  1.0000
  H   H47       1.0  0.6664966240530745  0.625324464113554  0.10142631998418492  1.0000
  H   H48       1.0  0.3335071606120509  0.3747054650761684  0.8985745102826922  1.0000
  H   H49       1.0  0.8305826724972006  0.6759170678373608  0.07252086211473598  1.0000
  H   H50       1.0  0.16942862200048128  0.3241271114632696  0.9274847283909647  1.0000
  H   H51       1.0  0.8185504834622322  0.5403935274769581  0.10253239170345554  1.0000
  H   H52       1.0  0.18148354171164272  0.45965270915679934  0.8974457459448428  1.0000
  H   H53       1.0  0.9521278885698693  0.5076587827445211  0.9005583300776221  1.0000
  H   H54       1.0  0.04787667109911101  0.4923306279603708  0.09944974636970018  1.0000
  H   H55       1.0  0.6576194090685448  0.4237442084812388  0.6215590639534339  1.0000
  H   H56       1.0  0.3423706231447667  0.5762564282864986  0.3784516922940994  1.0000
  C   C1        1.0  0.28684083189672555  0.1962694621436043  0.6945714197654308  1.0000
  C   C2        1.0  0.7131179749445239  0.8037511115656885  0.30544004163895977  1.0000
  C   C3        1.0  0.2864984315652991  0.10364639983906443  0.7449859863752619  1.0000
  C   C4        1.0  0.7134835358866098  0.8963797301778345  0.2550321826178958  1.0000
  C   C5        1.0  0.1756763762557441  0.027644168072718907  0.7204015601030772  1.0000
  C   C6        1.0  0.8243280010500699  0.9723502395017224  0.2795871445343323  1.0000
  C   C7        1.0  0.0706596083183939  0.0471754775100877  0.6431033200000582  1.0000
  C   C8        1.0  0.9293551811409415  0.9528330562346031  0.3568698185254958  1.0000
  C   C9        1.0  0.07544998487480828  0.14303593175943521  0.5979049338651945  1.0000
  C   C10       1.0  0.9245290021303063  0.8569647012474209  0.4020565696937267  1.0000
  C   C11       1.0  0.16601590864796378  0.9258447069027371  0.771915837104096  1.0000
  C   C12       1.0  0.8339874396693576  0.07415730176312962  0.22806868056681395  1.0000
  C   C13       1.0  0.219037060758005  0.8529301324442218  0.943283971247311  1.0000
  C   C14       1.0  0.7809621843195272  0.14707786485510613  0.0567032790662694  1.0000
  C   C15       1.0  0.12056869604421651  0.8840650841284587  0.04081468877695472  1.0000
  C   C16       1.0  0.8794220866136868  0.11593712944210217  0.9591695013728125  1.0000
  C   C17       1.0  0.1325735206946064  0.8003350327807868  0.11824852219281472  1.0000
  C   C18       1.0  0.8674098840678752  0.19966812779671272  0.8817307516643637  1.0000
  C   C19       1.0  0.2840722663410631  0.7916936188224002  0.16159793697035957  1.0000
  C   C20       1.0  0.7159176305674109  0.20831792351246756  0.8383930239667021  1.0000
  C   C21       1.0  0.37814890549341845  0.7520892700659803  0.06339678649300143  1.0000
  C   C22       1.0  0.6218368798065015  0.2479189957507089  0.9366031702738337  1.0000
  C   C23       1.0  0.37167659129821823  0.8337046554458855  0.9831015745355882  1.0000
  C   C24       1.0  0.6283090982555067  0.1663044233071105  0.016889575346468202  1.0000
  C   C25       1.0  0.5877032169654015  0.8204863702715671  0.8770314467438777  1.0000
  C   C26       1.0  0.4123034461093694  0.17950637727950192  0.1229749262499595  1.0000
  C   C27       1.0  0.646146156916032  0.7750509019267542  0.7643087130422258  1.0000
  C   C28       1.0  0.3538805920835557  0.2249491575623424  0.23570871277997438  1.0000
  C   C29       1.0  0.5599653939439547  0.757488244383481  0.6666536631177278  1.0000
  C   C30       1.0  0.44005024484283695  0.24253486260045787  0.33338118763938235  1.0000
  C   C31       1.0  0.6174608126020119  0.7133913085447434  0.5646597693866156  1.0000
  C   C32       1.0  0.3825493252068028  0.2866124358676957  0.43536689030974424  1.0000
  C   C33       1.0  0.8395181092840716  0.7046118257426318  0.6489839211814257  1.0000
  C   C34       1.0  0.1604908113029282  0.2953758849709304  0.351040245550699  1.0000
  C   C35       1.0  0.7889065749463455  0.7501830521274475  0.7538149022633076  1.0000
  C   C36       1.0  0.21111403478850121  0.24981631142060226  0.24621524832930664  1.0000
  C   C37       1.0  0.4238763140922757  0.50612404594375  0.7268143126932782  1.0000
  C   C38       1.0  0.5761630835987503  0.4938994114365586  0.27319276702616685  1.0000
  C   C39       1.0  0.5702811012199263  0.5085614890255317  0.7771019821382977  1.0000
  C   C40       1.0  0.42974572244290954  0.4914529081078386  0.22291103324710798  1.0000
  C   C41       1.0  0.5997860555596829  0.552709964901368  0.8903759258747638  1.0000
  C   C42       1.0  0.4002280906118045  0.44728186763714467  0.10964434303328828  1.0000
  C   C43       1.0  0.7361862797230999  0.5527537400697897  0.9372935208133625  1.0000
  C   C44       1.0  0.2638341468881293  0.44725651450249165  0.06271275282257699  1.0000
  C   C45       1.0  0.764333696610848  0.6006313065668039  0.059262263123343914  1.0000
  C   C46       1.0  0.23567973943900714  0.39941706323642734  0.9407442456534408  1.0000
  C   C47       1.0  0.8442582194564139  0.5078618548334504  0.8674872933165215  1.0000
  C   C48       1.0  0.1557505768017577  0.4921258180685798  0.13252626113549576  1.0000
  C   C49       1.0  0.8157117403662111  0.4614954045200507  0.7542242637658132  1.0000
  C   C50       1.0  0.18429812183184419  0.5384947831900392  0.24578901986092916  1.0000
  C   C51       1.0  0.6786084138341623  0.4613325635161873  0.7094071605731215  1.0000
  C   C52       1.0  0.32140154215466044  0.5386719676553329  0.29060334527529347  1.0000
  C   C53       1.0  0.92829094375238  0.4095634681118697  0.6791529107078912  1.0000
  C   C54       1.0  0.07168800064843592  0.5903967332914705  0.3208354036397764  1.0000
  N   N1        1.0  0.181510543632136  0.21727737327674393  0.6243637975375619  1.0000
  N   N2        1.0  0.81846746502778  0.7827089827899345  0.3756143341033109  1.0000
  N   N3        1.0  0.7547547078727135  0.6858818382939519  0.5558619039533211  1.0000
  N   N4        1.0  0.24525519366672197  0.31409994082948606  0.44416108091431983  1.0000
  N   N5        1.0  0.21607766236465406  0.9409868753706195  0.8787759263485242  1.0000
  N   N6        1.0  0.7839299215641448  0.059020973691254114  0.12120827699553158  1.0000
  N   N7        1.0  0.45329985371218134  0.7933371196419972  0.8849657331169494  1.0000
  N   N8        1.0  0.5467005444654021  0.20666499842164407  0.11503502925845048  1.0000
  O   O1        1.0  0.3867310419188925  0.4118060374544471  0.6672331955599942  1.0000
  O   O2        1.0  0.6133533167498298  0.5882090871251081  0.33277513580375023  1.0000
  O   O3        1.0  0.1461327482547006  0.5277526094578352  0.5852264510978882  1.0000
  O   O4        1.0  0.8538711124958029  0.4721683822223427  0.4147733479697137  1.0000
  O   O5        1.0  0.0543508584270995  0.410580867390806  0.7212225242461441  1.0000
  O   O6        1.0  0.9456538910098402  0.589382161781515  0.2787320612273305  1.0000
  O   O7        1.0  0.8982510064848412  0.3659776483591771  0.5775534620174267  1.0000
  O   O8        1.0  0.10167552763867602  0.6339522345446938  0.4224524026019906  1.0000
  O   O9        1.0  0.34781555315775853  0.5956853349402567  0.7445192811662193  1.0000
  O   O10       1.0  0.6522046634853852  0.40432148755488145  0.25547160759604276  1.0000
  O   O11       1.0  0.1140795456364998  0.8368356742457552  0.7169801214379274  1.0000
  O   O12       1.0  0.8859135791951684  0.16317247495177878  0.28302084271214767  1.0000
  O   O13       1.0  0.6609247775171241  0.8801304322044248  0.9537553771167848  1.0000
  O   O14       1.0  0.33909661515580325  0.11984104609882004  0.0462731820995828  1.0000
