data_image0
_chemical_formula_structural       Tl4H28C32O12
_chemical_formula_sum              "Tl4 H28 C32 O12"
_cell_length_a       7.460560187706766
_cell_length_b       10.381603115619768
_cell_length_c       11.844004103899918
_cell_angle_alpha    105.4373608504407
_cell_angle_beta     89.94968965154312
_cell_angle_gamma    111.15503506728464

_space_group_name_H-M_alt    "P 1"
_space_group_IT_number       1

loop_
  _space_group_symop_operation_xyz
  'x, y, z'

loop_
  _atom_site_type_symbol
  _atom_site_label
  _atom_site_symmetry_multiplicity
  _atom_site_fract_x
  _atom_site_fract_y
  _atom_site_fract_z
  _atom_site_occupancy
  Tl  Tl1       1.0  0.726556880547882  0.9673921251133492  0.41434238058332085  1.0000
  Tl  Tl2       1.0  0.24102733548737365  0.9673706161212151  0.9141331914779728  1.0000
  Tl  Tl3       1.0  0.2734426865971287  0.03260837294058659  0.5856568950771434  1.0000
  Tl  Tl4       1.0  0.7589730485468068  0.0326288392342988  0.08586754251423662  1.0000
  H   H1        1.0  0.842628704475608  0.6873999062722689  0.991376330291679  1.0000
  H   H2        1.0  0.8448788339840831  0.6870616338619938  0.4913387587174896  1.0000
  H   H3        1.0  0.15736897420836726  0.3125994965895202  0.00862185961723578  1.0000
  H   H4        1.0  0.155123161372927  0.31294103681398155  0.5086618404839882  1.0000
  H   H5        1.0  0.3287528322676393  0.5597994737008917  0.7847377576986716  1.0000
  H   H6        1.0  0.23132993373071992  0.559937998806319  0.2844793398555439  1.0000
  H   H7        1.0  0.671246726947288  0.4402010073838695  0.2152606698026673  1.0000
  H   H8        1.0  0.7686704503034606  0.4400614565491948  0.7155213941366726  1.0000
  H   H9        1.0  0.3475394174600339  0.4578184039429587  0.8796496200418816  1.0000
  H   H10       1.0  0.11016350036680932  0.45780776238659376  0.3793633319937798  1.0000
  H   H11       1.0  0.6524590622529515  0.5421799222820453  0.12034833188053538  1.0000
  H   H12       1.0  0.8898425569805468  0.5421949955145707  0.6206415074122164  1.0000
  H   H13       1.0  0.5340544696855503  0.6268189538349772  0.8902380879681715  1.0000
  H   H14       1.0  0.09286437515474685  0.6266620128478664  0.3900351750681921  1.0000
  H   H15       1.0  0.46594511331961996  0.3731815781573289  0.1097628840105358  1.0000
  H   H16       1.0  0.9071373496594148  0.3733374433007413  0.6099655587269909  1.0000
  H   H17       1.0  0.5002559562717579  0.7177261554067086  0.10669303555498996  1.0000
  H   H18       1.0  0.21762148610087442  0.7180978066800136  0.6063851567482956  1.0000
  H   H19       1.0  0.49974253137130387  0.2822721877874769  0.8933057645265521  1.0000
  H   H20       1.0  0.7823821205789727  0.28190807931641604  0.3936153076624436  1.0000
  H   H21       1.0  0.021156441824778834  0.5801208458639593  0.8409130367394438  1.0000
  H   H22       1.0  0.5592433491357126  0.5801624761938127  0.340727027803787  1.0000
  H   H23       1.0  0.9788417845402504  0.4198796513968972  0.15908623911804648  1.0000
  H   H24       1.0  0.4407597177931634  0.4198423323727453  0.6592731988174948  1.0000
  H   H25       1.0  0.23652043433205708  0.8701088822555222  0.3182249345859418  1.0000
  H   H26       1.0  0.633523085779096  0.8698446314180615  0.8180912397997134  1.0000
  H   H27       1.0  0.7634737604282122  0.12988624403202206  0.6817740006803916  1.0000
  H   H28       1.0  0.36648186827608253  0.1301559207157936  0.1819105795499922  1.0000
  C   C1        1.0  0.9872195098379848  0.6936230199637449  0.01534537967977907  1.0000
  C   C2        1.0  0.7065044507744886  0.693401072704546  0.5152191555022299  1.0000
  C   C3        1.0  0.012778977805083974  0.3063753232304335  0.9846534204017631  1.0000
  C   C4        1.0  0.29349888536251  0.3066015987645159  0.4847814435022216  1.0000
  C   C5        1.0  0.9598325764190887  0.8243458777453582  0.22309903077552917  1.0000
  C   C6        1.0  0.8644229204643422  0.8238623203899635  0.7230434556350361  1.0000
  C   C7        1.0  0.0401626819829559  0.17565136946357282  0.7768986837514831  1.0000
  C   C8        1.0  0.13557828045900777  0.17613609226713578  0.2769587366889255  1.0000
  C   C9        1.0  0.2729880485639741  0.6401490601123286  0.9629075370981042  1.0000
  C   C10       1.0  0.36731619075012373  0.6402848252562305  0.4626560811382987  1.0000
  C   C11       1.0  0.7270082893400199  0.35985034195636695  0.03709065300783717  1.0000
  C   C12       1.0  0.6326855433288543  0.3597199994864155  0.5373449938391275  1.0000
  C   C13       1.0  0.37686956122392706  0.5679179190340449  0.8747019483353498  1.0000
  C   C14       1.0  0.19116054345066386  0.5679645381121217  0.37445618466229286  1.0000
  C   C15       1.0  0.6231291969619904  0.4320836386875015  0.1252967171524801  1.0000
  C   C16       1.0  0.808840912155375  0.4320370551339749  0.6255441767497203  1.0000
  C   C17       1.0  0.2573818691158676  0.7727340338885466  0.1635272038301494  1.0000
  C   C18       1.0  0.5154236514966398  0.772719666058819  0.6633428712297587  1.0000
  C   C19       1.0  0.7426141982452705  0.22726215365278077  0.8364711208694972  1.0000
  C   C20       1.0  0.4845802323214059  0.22728409980931022  0.3366588137232682  1.0000
  C   C21       1.0  0.356825943498066  0.710801689500556  0.07898797954871373  1.0000
  C   C22       1.0  0.35412950617646993  0.7110219274471133  0.5787133520182124  1.0000
  C   C23       1.0  0.6431706636140504  0.2891955754706573  0.9210105829403972  1.0000
  C   C24       1.0  0.6458741084334535  0.288983975518498  0.42128796055164497  1.0000
  C   C25       1.0  0.0681934329403758  0.7630868091917832  0.1326758267016501  1.0000
  C   C26       1.0  0.694894520245036  0.7628007464740775  0.6325596853265694  1.0000
  C   C27       1.0  0.9318031741717333  0.23691045577943012  0.8673227357874608  1.0000
  C   C28       1.0  0.3051082920011509  0.23720088150347599  0.3674423722066607  1.0000
  C   C29       1.0  0.08742428514637605  0.6340695169021301  0.9312496305796926  1.0000
  C   C30       1.0  0.5468421475287357  0.6340590072062537  0.4310629666920818  1.0000
  C   C31       1.0  0.912572853786628  0.36592880852978027  0.0687483215397577  1.0000
  C   C32       1.0  0.45316172835922686  0.36594474169269375  0.5689378701018271  1.0000
  O   O1        1.0  0.0406880841176473  0.8790012691731804  0.3307687045763501  1.0000
  O   O2        1.0  0.8381145739805685  0.8784683122466885  0.8307127765275482  1.0000
  O   O3        1.0  0.9593071822144877  0.1209959950049395  0.6692298581097873  1.0000
  O   O4        1.0  0.16188849954365742  0.1215311616641941  0.1692888052297263  1.0000
  O   O5        1.0  0.7938463215496652  0.8207437399348618  0.19398237137342983  1.0000
  O   O6        1.0  0.0268600227548246  0.8201863644578608  0.6939508274388118  1.0000
  O   O7        1.0  0.2061508173833388  0.17925458549704837  0.8060155807460205  1.0000
  O   O8        1.0  0.9731406463476375  0.1798109877385414  0.30605197525481037  1.0000
  O   O9        1.0  0.3432127393219417  0.8412543294277555  0.2748597162045455  1.0000
  O   O10       1.0  0.4980550465446214  0.8411903077172909  0.7746702650739294  1.0000
  O   O11       1.0  0.656784676749254  0.15874187587584743  0.7251394564571925  1.0000
  O   O12       1.0  0.5019464169915011  0.1588113024979876  0.22533094449720892  1.0000
