data_image0
_chemical_formula_structural       Zn2H22C54N2O28
_chemical_formula_sum              "Zn2 H22 C54 N2 O28"
_cell_length_a       13.919773553360894
_cell_length_b       15.111129436445463
_cell_length_c       15.963493264645397
_cell_angle_alpha    90.49114432033741
_cell_angle_beta     89.96738947041567
_cell_angle_gamma    90.98886106838339

_space_group_name_H-M_alt    "P 1"
_space_group_IT_number       1

loop_
  _space_group_symop_operation_xyz
  'x, y, z'

loop_
  _atom_site_type_symbol
  _atom_site_label
  _atom_site_symmetry_multiplicity
  _atom_site_fract_x
  _atom_site_fract_y
  _atom_site_fract_z
  _atom_site_occupancy
  Zn  Zn1       1.0  0.400304260819901  0.5048678923199432  0.4926752100669917  1.0000
  Zn  Zn2       1.0  0.6063479618389281  0.4964532979697722  0.508841467688768  1.0000
  H   H1        1.0  0.07820662848720868  0.7112345008772819  0.41033214616953734  1.0000
  H   H2        1.0  0.7490284073939435  0.6177984731833348  0.46888625992011873  1.0000
  H   H3        1.0  0.5149331389572039  0.7490357526266608  0.846743146254454  1.0000
  H   H4        1.0  0.4702488826049631  0.24798356549339928  0.15640743704815926  1.0000
  H   H5        1.0  0.8279811294964291  0.6957270998074064  0.3986410800329239  1.0000
  H   H6        1.0  0.1789728216340976  0.307518531174388  0.6068331620290408  1.0000
  H   H7        1.0  0.7983856548839653  0.5706812499288533  0.09227686898331912  1.0000
  H   H8        1.0  0.19680528231688746  0.434753565580962  0.9105641060078824  1.0000
  H   H9        1.0  0.8843588382165423  0.120889250332894  0.43694292843711224  1.0000
  H   H10       1.0  0.1091910836226475  0.8824485766018738  0.558395160776584  1.0000
  H   H11       1.0  0.8492015513943157  0.8402186913913778  0.4338044739560801  1.0000
  H   H12       1.0  0.9285046213097772  0.2929036557126423  0.595159507829571  1.0000
  H   H13       1.0  0.1499198127211798  0.16209521397467347  0.5677975270308123  1.0000
  H   H14       1.0  0.2244826377732707  0.7069837861727066  0.4372648995465482  1.0000
  H   H15       1.0  0.781839908483235  0.2955136142329308  0.5628976028772782  1.0000
  H   H16       1.0  0.3860915280622875  0.6007552493456456  0.062270662234645606  1.0000
  H   H17       1.0  0.6112665225172051  0.39467145113454893  0.9385910222828288  1.0000
  H   H18       1.0  0.33019545869770883  0.21411284286111246  0.4833838321986193  1.0000
  H   H19       1.0  0.6649051179907983  0.7865838397672675  0.5095796079547981  1.0000
  H   H20       1.0  0.6353795632430916  0.23581420132339295  0.4855167743922095  1.0000
  H   H21       1.0  0.3599246327151063  0.7648187274583761  0.5161897826587422  1.0000
  H   H22       1.0  0.2578630036282448  0.387178101157268  0.5384869090984666  1.0000
  C   C1        1.0  0.5175179319046989  0.6700580579077948  0.5202483327925053  1.0000
  C   C2        1.0  0.5002583986349264  0.9535188345909233  0.5001262194039668  1.0000
  C   C3        1.0  0.402800641589323  0.08837153875617079  0.49503658159424196  1.0000
  C   C4        1.0  0.5922983266543298  0.9123578539163403  0.5006018459586059  1.0000
  C   C5        1.0  0.6727716972296135  0.05779287763829901  0.4928635990552125  1.0000
  C   C6        1.0  0.3222267544465253  0.9430393343888994  0.5043164436250437  1.0000
  C   C7        1.0  0.6780575776787643  0.9668705329057659  0.4948116352084924  1.0000
  C   C8        1.0  0.3170926706387362  0.0340210618066195  0.5017387378684646  1.0000
  C   C9        1.0  0.20897280012278688  0.43995432659463757  0.5220338497767898  1.0000
  C   C10       1.0  0.7979017853398246  0.5647621448687447  0.4847749496383856  1.0000
  C   C11       1.0  0.2024921162012205  0.582436175284016  0.4662173448498805  1.0000
  C   C12       1.0  0.47885035464439335  0.3310240294310133  0.4791523360710458  1.0000
  C   C13       1.0  0.8043883663530379  0.4212536156634242  0.5382064094148262  1.0000
  C   C14       1.0  0.10037817123632208  0.5822690303925171  0.46951390984175123  1.0000
  C   C15       1.0  0.9065287600889532  0.4221189623182582  0.5365325606465776  1.0000
  C   C16       1.0  0.48385083752047814  0.47947555734064207  0.6602054873384448  1.0000
  C   C17       1.0  0.5283624038788872  0.5188180336723319  0.3409921146558333  1.0000
  C   C18       1.0  0.0543108998529505  0.505169894963096  0.5020737366679171  1.0000
  C   C19       1.0  0.9526506213513811  0.49958760604631175  0.5048074248493393  1.0000
  C   C20       1.0  0.10964326726401198  0.43288152143052366  0.5305738234145636  1.0000
  C   C21       1.0  0.8972795584735705  0.5718746104946175  0.4764525647803383  1.0000
  C   C22       1.0  0.044283042300271795  0.6531736556638563  0.4384875086291231  1.0000
  C   C23       1.0  0.4825879741028415  0.23185441022521047  0.48289338863386183  1.0000
  C   C24       1.0  0.96253357355652  0.3512084308287554  0.5674985634128762  1.0000
  C   C25       1.0  0.9459846818439032  0.6475716473953385  0.44128237439283424  1.0000
  C   C26       1.0  0.060887872958495785  0.35697227357722733  0.5653600650770798  1.0000
  C   C27       1.0  0.4367527638040514  0.554365975411038  0.03483000144566971  1.0000
  C   C28       1.0  0.5607817886422879  0.4409524771077712  0.9664096973181772  1.0000
  C   C29       1.0  0.5118630900843968  0.5787724194445188  0.9653278491983671  1.0000
  C   C30       1.0  0.48588726223913875  0.4164798638480888  0.035901659225544315  1.0000
  C   C31       1.0  0.476117285693661  0.47932640903027846  0.7504774552670953  1.0000
  C   C32       1.0  0.5291868740804659  0.5171385959923994  0.2504958111904116  1.0000
  C   C33       1.0  0.40743393406483347  0.4675779649291626  0.9856777863902693  1.0000
  C   C34       1.0  0.5126599730109476  0.768965668641563  0.514390051315381  1.0000
  C   C35       1.0  0.590194167092278  0.5276498781206553  0.015535676507610702  1.0000
  C   C36       1.0  0.48302535690484655  0.4914892490661912  0.9144950284536435  1.0000
  C   C37       1.0  0.5145469166407679  0.503985891949945  0.08676638722181451  1.0000
  C   C38       1.0  0.4742763624360933  0.4843850518198207  0.8265431695909911  1.0000
  C   C39       1.0  0.5255064900784062  0.5111789196819244  0.1745515888754028  1.0000
  C   C40       1.0  0.39868618883042467  0.18062836000260768  0.4865885470858586  1.0000
  C   C41       1.0  0.596426076233712  0.8201514428884593  0.5083659385572192  1.0000
  C   C42       1.0  0.5275038770099697  0.671915606708559  0.9381630632074335  1.0000
  C   C43       1.0  0.4695012660810107  0.3233399706816016  0.0629441299269899  1.0000
  C   C44       1.0  0.6917883433230045  0.5594279415805088  0.020028928857364306  1.0000
  C   C45       1.0  0.5723672377584209  0.19239712216129592  0.4866889027552902  1.0000
  C   C46       1.0  0.30585114953156284  0.4360597230515851  0.9806432102454681  1.0000
  C   C47       1.0  0.7630695640235954  0.11300965711679818  0.4912023768795706  1.0000
  C   C48       1.0  0.231833259648532  0.8881905210044322  0.5063095316461032  1.0000
  C   C49       1.0  0.7744255107858035  0.9230384162642336  0.4959872527665398  1.0000
  C   C50       1.0  0.2213059315827337  0.07908191143287979  0.5022498140594466  1.0000
  C   C51       1.0  0.4227280488519155  0.808245613929685  0.5120784407570298  1.0000
  C   C52       1.0  0.5806591264563251  0.10053130339858998  0.4926496593909064  1.0000
  C   C53       1.0  0.4142954626560709  0.9000451508836562  0.5042541135879972  1.0000
  C   C54       1.0  0.4946970853358721  0.0470413879586857  0.4958478769895649  1.0000
  N   N1        1.0  0.2529127848046214  0.5122417689461329  0.49082982827847144  1.0000
  N   N2        1.0  0.753921605825262  0.4917488990945386  0.5145014974163686  1.0000
  O   O1        1.0  0.4383484649319769  0.6293997149027319  0.5325393106804271  1.0000
  O   O2        1.0  0.5022039747929481  0.6860875124300916  0.8575097087356625  1.0000
  O   O3        1.0  0.44714435479096437  0.2645139080240567  0.0133926972247238  1.0000
  O   O4        1.0  0.4833898601661204  0.3109352353489782  0.14595586074685946  1.0000
  O   O5        1.0  0.893930545110706  0.7158939503953332  0.4091386603929763  1.0000
  O   O6        1.0  0.11251741512194259  0.2883239754256125  0.5972632844571777  1.0000
  O   O7        1.0  0.7350189962434895  0.5890979707058005  0.9596166747535122  1.0000
  O   O8        1.0  0.731645763878177  0.5493308285860151  0.0968796224966155  1.0000
  O   O9        1.0  0.2643116970186695  0.398936263804316  0.0382180019030542  1.0000
  O   O10       1.0  0.2636025808746041  0.45607588044607883  0.9066142107659021  1.0000
  O   O11       1.0  0.7813210585198007  0.17597526886400056  0.538072165567364  1.0000
  O   O12       1.0  0.5593684287435109  0.37070051023378175  0.48740802502791075  1.0000
  O   O13       1.0  0.8245612855499828  0.08604920253289809  0.4310089852021193  1.0000
  O   O14       1.0  0.2139729837208293  0.8239349819992157  0.4608207962270257  1.0000
  O   O15       1.0  0.16907540716413647  0.9171144041918423  0.5645714273738704  1.0000
  O   O16       1.0  0.8337694257244052  0.9331313603220719  0.5517028775624766  1.0000
  O   O17       1.0  0.7870936287775834  0.8702408392029497  0.4281571593819535  1.0000
  O   O18       1.0  0.16136400897405417  0.07203194720327129  0.4467102983069396  1.0000
  O   O19       1.0  0.21082574399539306  0.1298614430446889  0.5717338008915791  1.0000
  O   O20       1.0  0.25625832810145244  0.6491105346833235  0.4363038383233402  1.0000
  O   O21       1.0  0.7504017199990328  0.3534191181508247  0.5655015706516338  1.0000
  O   O22       1.0  0.5993394963260101  0.6349620927922857  0.5111084286641586  1.0000
  O   O23       1.0  0.39771343479720406  0.3669115460308988  0.4697967430767633  1.0000
  O   O24       1.0  0.4070180897186688  0.4673645920518793  0.6181626560745386  1.0000
  O   O25       1.0  0.6081947692955721  0.5109703999575856  0.37843008556686203  1.0000
  O   O26       1.0  0.5683571568355958  0.49288220446058517  0.6317936123379937  1.0000
  O   O27       1.0  0.4455878327675364  0.5273943727509548  0.374265817790473  1.0000
  O   O28       1.0  0.5579748898465198  0.7294800930339206  0.9858072742562529  1.0000
