data_image0
_chemical_formula_structural       Ag4H48C56S6O8F8
_chemical_formula_sum              "Ag4 H48 C56 S6 O8 F8"
_cell_length_a       10.900161737419596
_cell_length_b       11.896924753625425
_cell_length_c       12.96270778788735
_cell_angle_alpha    107.11472146038682
_cell_angle_beta     111.44063604648224
_cell_angle_gamma    94.7350722215667

_space_group_name_H-M_alt    "P 1"
_space_group_IT_number       1

loop_
  _space_group_symop_operation_xyz
  'x, y, z'

loop_
  _atom_site_type_symbol
  _atom_site_label
  _atom_site_symmetry_multiplicity
  _atom_site_fract_x
  _atom_site_fract_y
  _atom_site_fract_z
  _atom_site_occupancy
  Ag  Ag1       1.0  0.8783431133325337  0.47440268962539994  0.2025729415627567  1.0000
  Ag  Ag2       1.0  0.12165829835617367  0.5255973192739348  0.7974291854807163  1.0000
  Ag  Ag3       1.0  0.8679008428948051  0.3639967186849447  0.8728399586728343  1.0000
  Ag  Ag4       1.0  0.1320993834366959  0.6360023949572522  0.12715924265508244  1.0000
  H   H1        1.0  0.9198515570301566  0.5811942098401274  0.49887331457961875  1.0000
  H   H2        1.0  0.08014810593247293  0.41880670041560814  0.5011269707777686  1.0000
  H   H3        1.0  0.06326486581899365  0.6397865568056675  0.4810714858673393  1.0000
  H   H4        1.0  0.9367336021858463  0.3602134536828743  0.5189274124736513  1.0000
  H   H5        1.0  0.0729952565933658  0.8833322417316083  0.507381154142692  1.0000
  H   H6        1.0  0.9270042022399991  0.11666777273725165  0.49261728173329533  1.0000
  H   H7        1.0  0.06757717368087407  0.0768954278494434  0.6425136030783989  1.0000
  H   H8        1.0  0.9324225036826091  0.9231054891713769  0.3574843742302392  1.0000
  H   H9        1.0  0.9084961331909722  0.8880217068060858  0.818514298953623  1.0000
  H   H10       1.0  0.09150396683187981  0.11198100855356333  0.1814850692690584  1.0000
  H   H11       1.0  0.9115108198371189  0.6934211626711858  0.6810950629771284  1.0000
  H   H12       1.0  0.08848884312550351  0.3065797475845501  0.318905222380252  1.0000
  H   H13       1.0  0.057740425102750195  0.1793365629972783  0.8581256746586091  1.0000
  H   H14       1.0  0.9422580429020897  0.8206634474912633  0.14187322368238145  1.0000
  H   H15       1.0  0.9216291954856713  0.10223456354005124  0.8701563010738694  1.0000
  H   H16       1.0  0.07836906358962649  0.8977645489065867  0.12984151713530429  1.0000
  H   H17       1.0  0.6540256888786403  0.0888900467808256  0.7166890866723534  1.0000
  H   H18       1.0  0.3459762861789386  0.9111081655049703  0.283311956341656  1.0000
  H   H19       1.0  0.6238904888332611  0.1591806959487982  0.608976257804528  1.0000
  H   H20       1.0  0.3761083144097555  0.8408166108641882  0.39102355377351466  1.0000
  H   H21       1.0  0.6321655763148044  0.8758301450770248  0.6564247102302829  1.0000
  H   H22       1.0  0.36783498525487346  0.1241662648896167  0.34357540433468603  1.0000
  H   H23       1.0  0.6363523592190675  0.6826676942223815  0.5201496324842552  1.0000
  H   H24       1.0  0.36364645842481746  0.31732961935569653  0.4798478710450382  1.0000
  H   H25       1.0  0.6927318104964115  0.8634680780481006  0.29259183170668007  1.0000
  H   H26       1.0  0.3072684110347979  0.13653103333906813  0.7074081389708197  1.0000
  H   H27       1.0  0.6866017654899464  0.0555769878452281  0.42729885328999007  1.0000
  H   H28       1.0  0.31339823751114443  0.9444212209899803  0.5727015759548593  1.0000
  H   H29       1.0  0.6684435213963553  0.5685403845912234  0.3487687862457279  1.0000
  H   H30       1.0  0.33155593743701667  0.43145962987763653  0.6512296496302596  1.0000
  H   H31       1.0  0.6379838932655629  0.6251582985636261  0.23063033371856526  1.0000
  H   H32       1.0  0.3620165515960494  0.37484171763052393  0.769368409041995  1.0000
  H   H33       1.0  0.6224905519690722  0.3032637134737897  0.22470594002296448  1.0000
  H   H34       1.0  0.37750890206400817  0.6967362987400422  0.7752932652026059  1.0000
  H   H35       1.0  0.773422006298162  0.2637920480555849  0.30404055509068684  1.0000
  H   H36       1.0  0.22657765666446045  0.7362088622001508  0.6959597302667007  1.0000
  H   H37       1.0  0.4351764889669596  0.16625584718556752  0.20062917636304428  1.0000
  H   H38       1.0  0.5648241600239104  0.8337450647954583  0.7993714158789159  1.0000
  H   H39       1.0  0.2970119237591505  0.959127572706784  0.11281775406602891  1.0000
  H   H40       1.0  0.7029875206733536  0.0408724349969916  0.8871829898587008  1.0000
  H   H41       1.0  0.631956725274776  0.8198809609815499  0.0647553512270207  1.0000
  H   H42       1.0  0.3680441374459207  0.18012085129640812  0.9352455517971662  1.0000
  H   H43       1.0  0.7676031516111195  0.028089353242172908  0.1470930530899324  1.0000
  H   H44       1.0  0.23239673468190605  0.9719124618205515  0.8529060043505153  1.0000
  H   H45       1.0  0.6866914782903847  0.2768619661694274  0.9363696867757411  1.0000
  H   H46       1.0  0.3133101519284409  0.7231389452818674  0.06363198170038226  1.0000
  H   H47       1.0  0.572168802105452  0.3162541817998132  0.003101202492054315  1.0000
  H   H48       1.0  0.4278326191838317  0.6837458316095777  0.9968993858522593  1.0000
  C   C1        1.0  0.9678975788786842  0.6580948707344376  0.48644634715299145  1.0000
  C   C2        1.0  0.03210187515439603  0.3419051414794013  0.513552858072579  1.0000
  C   C3        1.0  0.9873222153189403  0.7748932241439732  0.5821903947094781  1.0000
  C   C4        1.0  0.012677452443966824  0.22510768836679065  0.4178091212983189  1.0000
  C   C5        1.0  0.03679031476048782  0.8840729582126272  0.5755996019954422  1.0000
  C   C6        1.0  0.9632091440728772  0.11592705625623272  0.424398833880545  1.0000
  C   C7        1.0  0.033015985225930064  0.9927470736749483  0.6509892729164902  1.0000
  C   C8        1.0  0.9669836921375534  0.007253843345871802  0.3490087043921477  1.0000
  C   C9        1.0  0.9808461031923982  0.9952951475978865  0.735616166935344  1.0000
  C   C10       1.0  0.019153787900918904  0.004706669719865899  0.2643821211555206  1.0000
  C   C11       1.0  0.9447066843576765  0.8874351745343746  0.7502406978093105  1.0000
  C   C12       1.0  0.05529320193534912  0.11256664052834961  0.24975835963113713  1.0000
  C   C13       1.0  0.9473349368513979  0.7777458727395371  0.6735558763098409  1.0000
  C   C14       1.0  0.052665167971745995  0.2222568448751474  0.3264427225632573  1.0000
  C   C15       1.0  0.9623208142667536  0.11198236240205972  0.8067413692998356  1.0000
  C   C16       1.0  0.03767963539514349  0.888017656047126  0.19325660411114853  1.0000
  C   C17       1.0  0.6832818995157054  0.09981664166063811  0.6472223455073588  1.0000
  C   C18       1.0  0.316718108285677  0.9001815694295984  0.3527773143879074  1.0000
  C   C19       1.0  0.6658309782202423  0.9808502564866188  0.5552378974864425  1.0000
  C   C20       1.0  0.334169034381425  0.019147956858645905  0.4447609930592477  1.0000
  C   C21       1.0  0.6447670587033016  0.8735053576054171  0.5762191732021121  1.0000
  C   C22       1.0  0.3552337261967793  0.12649195716821277  0.423779713445917  1.0000
  C   C23       1.0  0.6468299421178826  0.7642080697429707  0.49893738730648335  1.0000
  C   C24       1.0  0.353168861125134  0.23578923707001567  0.5010624242715593  1.0000
  C   C25       1.0  0.6708318901379117  0.75972463053926  0.3990913110096486  1.0000
  C   C26       1.0  0.3291673549656267  0.24027448363267473  0.6009068140841123  1.0000
  C   C27       1.0  0.679785689369247  0.8655387627992966  0.37252563915431114  1.0000
  C   C28       1.0  0.32021396399279917  0.13446214294638287  0.6274761849022354  1.0000
  C   C29       1.0  0.6767310148693539  0.9743176863437105  0.44907462553791794  1.0000
  C   C30       1.0  0.32326997415998443  0.025680524216795703  0.5509261105915115  1.0000
  C   C31       1.0  0.6942703595498116  0.6464926276549222  0.3260989370701425  1.0000
  C   C32       1.0  0.30572986678168956  0.35350648598727474  0.6739002642577745  1.0000
  C   C33       1.0  0.6871741188329422  0.2383038839845639  0.21776028355475305  1.0000
  C   C34       1.0  0.3128267438877543  0.7616979282933941  0.7822406194694338  1.0000
  C   C35       1.0  0.6107757649003175  0.11150102100373968  0.17956032863298785  1.0000
  C   C36       1.0  0.3892258701187927  0.8884998927025834  0.8204405704935522  1.0000
  C   C37       1.0  0.47969071466494023  0.0902177903847061  0.17358686678725377  1.0000
  C   C38       1.0  0.5203081759992684  0.9097840184426645  0.8264134224677804  1.0000
  C   C39       1.0  0.40247049163393467  0.9733965478182328  0.1251342772520374  1.0000
  C   C40       1.0  0.5975289623991457  0.0266034643956061  0.874864927973533  1.0000
  C   C41       1.0  0.4550777606821867  0.8751851881025842  0.08248983344443415  1.0000
  C   C42       1.0  0.5449219070807273  0.12481572440817965  0.9175096825633631  1.0000
  C   C43       1.0  0.5891792173460643  0.8960249628355186  0.09565713633391235  1.0000
  C   C44       1.0  0.41082121791497167  0.10397504884858223  0.9043431451258143  1.0000
  C   C45       1.0  0.6659205096662645  0.012812794638406901  0.14339406491419027  1.0000
  C   C46       1.0  0.3340791580966497  0.9871881178723572  0.856605451093607  1.0000
  C   C47       1.0  0.6316416745553752  0.24913799268843217  0.9843621286008499  1.0000
  C   C48       1.0  0.3683579884072473  0.7508629175673038  0.015638156756530536  1.0000
  C   C49       1.0  0.10139892132360019  0.36931384488687496  0.13864483594657878  1.0000
  C   C50       1.0  0.8986022814355649  0.6306852659705627  0.8613562109650842  1.0000
  C   C51       1.0  0.24297810347167825  0.33897793006439514  0.15732932782812267  1.0000
  C   C52       1.0  0.7570228855576601  0.6610202804961105  0.8426714083013068  1.0000
  C   C53       1.0  0.333850900511564  0.42537810166428613  0.1321601360190812  1.0000
  C   C54       1.0  0.6661493210196453  0.5746210097228825  0.8678398346584187  1.0000
  C   C55       1.0  0.26498584993768054  0.43133576355523223  0.005738824753564132  1.0000
  C   C56       1.0  0.7350139393335838  0.5686615449830441  0.9942612937090587  1.0000
  S   S1        1.0  0.8690035860168095  0.6601780148742051  0.3382087142383483  1.0000
  S   S2        1.0  0.1309958632159791  0.3398219950845985  0.6617912603367982  1.0000
  S   S3        1.0  0.857469622296307  0.1904236569814586  0.7162415789703546  1.0000
  S   S4        1.0  0.14252884570853297  0.8095763535070828  0.2837573193706361  1.0000
  S   S5        1.0  0.7702632531838134  0.2592251090404218  0.12279588893822789  1.0000
  S   S6        1.0  0.22973695874681968  0.7407739978366905  0.8772056204384313  1.0000
  O   O1        1.0  0.103627387966938  0.460593350541366  0.22096523369521043  1.0000
  O   O2        1.0  0.8963733825322819  0.5394039574671794  0.7790359610015755  1.0000
  O   O3        1.0  0.004763920641622112  0.30284833971011693  0.0454558101732232  1.0000
  O   O4        1.0  0.9952353148613398  0.6971507699517618  0.9545438536196967  1.0000
  O   O5        1.0  0.2991984442479989  0.3724385225977684  0.928519992668754  1.0000
  O   O6        1.0  0.7007999315353571  0.6275569836213606  0.07147919734482842  1.0000
  O   O7        1.0  0.17523105714762008  0.49590346722180106  0.9936397652364943  1.0000
  O   O8        1.0  0.8247699366820028  0.504094745593733  0.006360201543351815  1.0000
  F   F1        1.0  0.22972856710644857  0.2238699119834706  0.08302797114185982  1.0000
  F   F2        1.0  0.7702724219228897  0.7761282985770281  0.9169727649875696  1.0000
  F   F3        1.0  0.3114378346775196  0.34109993569824587  0.2716137145404858  1.0000
  F   F4        1.0  0.6885647911701226  0.6589009819883956  0.7283867221210443  1.0000
  F   F5        1.0  0.36862510323428666  0.5384778374346127  0.2176938642785372  1.0000
  F   F6        1.0  0.6313743507987936  0.4615221747792192  0.7823053409470261  1.0000
  F   F7        1.0  0.45316784498367463  0.3870115145413635  0.14652047731089363  1.0000
  F   F8        1.0  0.5468333577754905  0.6129875963160673  0.8534805696007622  1.0000
