data_image0
_chemical_formula_structural       Ni3H46C60N12O16
_chemical_formula_sum              "Ni3 H46 C60 N12 O16"
_cell_length_a       11.28372140902823
_cell_length_b       12.07746422770322
_cell_length_c       12.576846103159891
_cell_angle_alpha    102.37444248277251
_cell_angle_beta     108.80231004968756
_cell_angle_gamma    108.72841393865367

_space_group_name_H-M_alt    "P 1"
_space_group_IT_number       1

loop_
  _space_group_symop_operation_xyz
  'x, y, z'

loop_
  _atom_site_type_symbol
  _atom_site_label
  _atom_site_symmetry_multiplicity
  _atom_site_fract_x
  _atom_site_fract_y
  _atom_site_fract_z
  _atom_site_occupancy
  Ni  Ni1       1.0  7.935465831000003e-07  3.7386881644000004e-06  4.9731417917e-06  1.0000
  Ni  Ni2       1.0  0.01523728802539643  0.28233006775117536  0.4449014530951629  1.0000
  Ni  Ni3       1.0  0.9847604097547418  0.717666374120441  0.555097453748701  1.0000
  H   H1        1.0  0.9524615300674101  0.10576357386145936  0.20007478283504548  1.0000
  H   H2        1.0  0.047543890372857334  0.8942553110196557  0.7999389385195883  1.0000
  H   H3        1.0  0.7877641413495553  0.28593123552938243  0.3779276145627861  1.0000
  H   H4        1.0  0.21223783142502853  0.7140736750947597  0.6220448646059964  1.0000
  H   H5        1.0  0.868011095525766  0.2785146300800463  0.7625662688124565  1.0000
  H   H6        1.0  0.13199205296753297  0.7214874032954341  0.23743539137714717  1.0000
  H   H7        1.0  0.43982803832447104  0.0250532433544919  0.6318990260163063  1.0000
  H   H8        1.0  0.5601733348784139  0.9749450486792955  0.3681021408443003  1.0000
  H   H9        1.0  0.5484641672694509  0.37667246422643813  0.5735921561251731  1.0000
  H   H10       1.0  0.45154027557866544  0.6233304834136038  0.42641802490940256  1.0000
  H   H11       1.0  0.907216294620561  0.18766003238629742  0.8900917666280038  1.0000
  H   H12       1.0  0.09278186751788564  0.8123495138094088  0.10992187785510059  1.0000
  H   H13       1.0  0.6833468227215536  0.8029774692076617  0.8038519161159244  1.0000
  H   H14       1.0  0.3166570708709671  0.1970282940962065  0.1961594719202822  1.0000
  H   H15       1.0  0.5141835620534677  0.8867728176000683  0.6628449477837179  1.0000
  H   H16       1.0  0.4858262499492128  0.11322731158421823  0.3371503441440851  1.0000
  H   H17       1.0  0.34416387293446604  0.3531516609794566  0.5667268608739989  1.0000
  H   H18       1.0  0.6558327865799143  0.6468447680188875  0.4332820729382619  1.0000
  H   H19       1.0  0.2401717763221143  0.963332293884406  0.46702527817494394  1.0000
  H   H20       1.0  0.7598320543432634  0.03666129276599152  0.5329756559209784  1.0000
  H   H21       1.0  0.004814835819388499  0.0015116023711670003  0.3806406867959566  1.0000
  H   H22       1.0  0.9951847055711553  0.9984829381011838  0.6193655338912549  1.0000
  H   H23       1.0  0.7269937189771626  0.4858233763606849  0.5272802403653715  1.0000
  H   H24       1.0  0.2730070322990771  0.5141777181972601  0.47272926555406514  1.0000
  H   H25       1.0  0.979871918677901  0.49143422945552123  0.863164924356326  1.0000
  H   H26       1.0  0.02013439759653585  0.5085705922388827  0.1368406273045579  1.0000
  H   H27       1.0  0.11681360760590564  0.6993362059362269  0.8178621662093448  1.0000
  H   H28       1.0  0.8831893930629632  0.30066957077369955  0.18214498468083917  1.0000
  H   H29       1.0  0.3628968610975323  0.5142637290426678  0.14945044410379896  1.0000
  H   H30       1.0  0.637106468759619  0.48573268203133335  0.8505469422889433  1.0000
  H   H31       1.0  0.07474723972376304  0.22407928600901533  0.8095417521055452  1.0000
  H   H32       1.0  0.9252522333467967  0.7759208972042873  0.1904576480673228  1.0000
  H   H33       1.0  0.30252114468788716  0.5913760857465606  0.820522903793169  1.0000
  H   H34       1.0  0.6974774863887135  0.40862035001881497  0.17947627794270463  1.0000
  H   H35       1.0  0.6060161244830697  0.6539091284911083  0.16518424031157516  1.0000
  H   H36       1.0  0.3939897996759285  0.34609288218575074  0.8348206219064735  1.0000
  H   H37       1.0  0.314020318220493  0.7769081436482923  0.9707610642085103  1.0000
  H   H38       1.0  0.6859718387851429  0.2230845754667571  0.02923941954149714  1.0000
  H   H39       1.0  0.7792648576593849  0.8752558266008988  0.27496961595043967  1.0000
  H   H40       1.0  0.2207361128711796  0.12474342256915354  0.725022880504291  1.0000
  H   H41       1.0  0.4821988957362464  0.998009160461514  0.09030373055881556  1.0000
  H   H42       1.0  0.5177989082543561  0.0019854155827304016  0.9096892611315539  1.0000
  H   H43       1.0  0.8818815279951693  0.4325569316494651  0.4183740397258191  1.0000
  H   H44       1.0  0.11812804736289464  0.567446924809673  0.5816354598613743  1.0000
  H   H45       1.0  0.06746670556156434  0.1981486968250153  0.17183291209568105  1.0000
  H   H46       1.0  0.9325284515281356  0.8018562054441322  0.8281653786070323  1.0000
  C   C1        1.0  0.7588132825610786  0.25707906134785224  0.7202584475710126  1.0000
  C   C2        1.0  0.24119267513733442  0.7429210703619661  0.2797476315507553  1.0000
  C   C3        1.0  0.6578617117738402  0.14374105263813422  0.7050265750181951  1.0000
  C   C4        1.0  0.3421390382612376  0.8562619267267029  0.29497854419432923  1.0000
  C   C5        1.0  0.5177581425982397  0.11126509931318652  0.6397285039086071  1.0000
  C   C6        1.0  0.4822436562594917  0.888734124771105  0.36027456929854657  1.0000
  C   C7        1.0  0.4793219642759753  0.19552402182192452  0.5925763455677213  1.0000
  C   C8        1.0  0.5206751519503214  0.8044752298736668  0.40742693808096675  1.0000
  C   C9        1.0  0.5785609507485533  0.31060997677334273  0.6092300648675677  1.0000
  C   C10       1.0  0.4214403901560858  0.6893883094205863  0.3907742717962393  1.0000
  C   C11       1.0  0.7178940801940358  0.3404132021652373  0.6738472030278971  1.0000
  C   C12       1.0  0.28210897016336395  0.6595906984975813  0.32615957986440247  1.0000
  C   C13       1.0  0.8254860307105718  0.09413919653755443  0.8469914368585236  1.0000
  C   C14       1.0  0.17451173123787825  0.9058675371806405  0.15302231063254382  1.0000
  C   C15       1.0  0.704079527603142  0.8958405350898746  0.8006130925271722  1.0000
  C   C16       1.0  0.29592533158408685  0.10416522794759692  0.19939540059784383  1.0000
  C   C17       1.0  0.6209549471160402  0.9355093041798171  0.727827839973969  1.0000
  C   C18       1.0  0.37905394090590505  0.06448894776379183  0.2721707713179384  1.0000
  C   C19       1.0  0.2834319641668159  0.2531211713162095  0.523320808032004  1.0000
  C   C20       1.0  0.7165620203000955  0.7468696434796485  0.4766885744629549  1.0000
  C   C21       1.0  0.22757955769874627  0.04935601122879522  0.47384353578770094  1.0000
  C   C22       1.0  0.7724195822606391  0.9506376015729291  0.5261584012005543  1.0000
  C   C23       1.0  0.11116490750372783  0.06925584655849093  0.4310396923462108  1.0000
  C   C24       1.0  0.8888356087972441  0.9307368103005444  0.5689672276859242  1.0000
  C   C25       1.0  0.8124770615554056  0.5200349635905682  0.614437364358821  1.0000
  C   C26       1.0  0.1875282313612204  0.4799717329573739  0.3855722426619438  1.0000
  C   C27       1.0  0.9494101695684236  0.521224619653566  0.7874310813650213  1.0000
  C   C28       1.0  0.05059932939509087  0.4787848780865717  0.21257239015862692  1.0000
  C   C29       1.0  0.015615464288231354  0.6232829021201454  0.764159651797236  1.0000
  C   C30       1.0  0.9843880682459345  0.37672194081291394  0.23584349028600843  1.0000
  C   C31       1.0  0.17774390133482854  0.2691643618890964  0.0477982562187407  1.0000
  C   C32       1.0  0.8222570542877748  0.7308329995541457  0.9522002118445132  1.0000
  C   C33       1.0  0.21510872681280097  0.36050758855506615  0.9860238670960797  1.0000
  C   C34       1.0  0.7848936119847922  0.6394907032123244  0.013974404853343107  1.0000
  C   C35       1.0  0.3132226983250846  0.48416077571587135  0.05170827855990727  1.0000
  C   C36       1.0  0.686780207118396  0.5158328185007337  0.9482915881932003  1.0000
  C   C37       1.0  0.14816540933512817  0.32115904974218523  0.8608948822234198  1.0000
  C   C38       1.0  0.8518346788286807  0.6788364446801154  0.13910135804832893  1.0000
  C   C39       1.0  0.178533955975368  0.4043476017171345  0.8014935248401188  1.0000
  C   C40       1.0  0.8214651249797601  0.5956497704786303  0.19850518588990715  1.0000
  C   C41       1.0  0.3454497195354521  0.5689111231729316  0.9932502523907801  1.0000
  C   C42       1.0  0.6545521948484705  0.4310843517370629  0.006750499919000692  1.0000
  C   C43       1.0  0.2774369491846969  0.5276773772235828  0.8677033458396295  1.0000
  C   C44       1.0  0.7225644737067257  0.4723190387630894  0.13229745302308518  1.0000
  C   C45       1.0  0.10906835105562611  0.3592563176608224  0.6679560767370846  1.0000
  C   C46       1.0  0.890920365502524  0.6407429889909652  0.33204473288348174  1.0000
  C   C47       1.0  0.4480604804283459  0.7001817633911573  0.06106684693799027  1.0000
  C   C48       1.0  0.5519372508912072  0.2998127995134255  0.9389332768095927  1.0000
  C   C49       1.0  0.579357450183963  0.7294585701130318  0.14802311147860797  1.0000
  C   C50       1.0  0.42063844684091123  0.27053601084388396  0.8519732926817412  1.0000
  C   C51       1.0  0.4157429106466851  0.7981692055811112  0.03784817699222036  1.0000
  C   C52       1.0  0.5842483385273384  0.20182163921317914  0.9621540412202949  1.0000
  C   C53       1.0  0.6766764891926941  0.8532618525799125  0.20901530535829246  1.0000
  C   C54       1.0  0.32332022436128943  0.14673835625194445  0.7909793078845271  1.0000
  C   C55       1.0  0.5099675565766617  0.9219065888136557  0.10326106542657258  1.0000
  C   C56       1.0  0.490025114903986  0.07808707841148531  0.8967326077111865  1.0000
  C   C57       1.0  0.6416240851347794  0.9506597104809347  0.18916889463415032  1.0000
  C   C58       1.0  0.35836946063807323  0.04933771003199892  0.8108218271373886  1.0000
  C   C59       1.0  0.7360934253192611  0.08464881190948861  0.26541816259275214  1.0000
  C   C60       1.0  0.2639067560157856  0.9153523544530274  0.734555408148637  1.0000
  N   N1        1.0  0.8314208152055048  0.9956186797586003  0.8742183458237494  1.0000
  N   N2        1.0  0.16857916507849072  0.0043908454648331  0.1258006031481855  1.0000
  N   N3        1.0  0.6989399226509859  0.06204931937062242  0.7570765598009929  1.0000
  N   N4        1.0  0.3010632674562927  0.9379508364977838  0.2429255248415245  1.0000
  N   N5        1.0  0.1473397548461861  0.1965363408758806  0.462796355940526  1.0000
  N   N6        1.0  0.8526569636724517  0.8034563287284299  0.5372158041299642  1.0000
  N   N7        1.0  0.33761914338663257  0.16705688534401025  0.5319269468323498  1.0000
  N   N8        1.0  0.6623763708385368  0.8329330012484422  0.4680723621412782  1.0000
  N   N9        1.0  0.9293373130310985  0.621302572933864  0.656144948411992  1.0000
  N   N10       1.0  0.07066801218377355  0.3787041294539294  0.3438614888055725  1.0000
  N   N11       1.0  0.8199608611398973  0.4557570192233842  0.6915508113539062  1.0000
  N   N12       1.0  0.18004493941835165  0.5442487391678057  0.30845716421232083  1.0000
  O   O1        1.0  0.1144721244214608  0.1541265709638324  0.977773329888656  1.0000
  O   O2        1.0  0.8855358141548989  0.8458716841660915  0.022226591412845664  1.0000
  O   O3        1.0  0.20752095965314515  0.31093825229694977  0.15859610220366702  1.0000
  O   O4        1.0  0.7924738469351028  0.6890619614475855  0.8414019235091248  1.0000
  O   O5        1.0  0.007829835824232112  0.25236472424631273  0.609328813364968  1.0000
  O   O6        1.0  0.9921520507686524  0.7476439966249591  0.39067666670574414  1.0000
  O   O7        1.0  0.15643035739326197  0.42803535748461746  0.6124577056550962  1.0000
  O   O8        1.0  0.8435634916748428  0.5719648579862736  0.387542422518088  1.0000
  O   O9        1.0  0.6796704420876338  0.15823102800915484  0.28253057433074963  1.0000
  O   O10       1.0  0.3203298125460351  0.8417814617943123  0.7174087516611254  1.0000
  O   O11       1.0  0.8668588069841335  0.11546244020979662  0.31115406533480444  1.0000
  O   O12       1.0  0.1331371801020824  0.8845302719998219  0.6888380085736473  1.0000
  O   O13       1.0  0.9760654095814515  0.12538949867249735  0.1356774669592014  1.0000
  O   O14       1.0  0.023932375349517167  0.8746191242324743  0.8643295164725445  1.0000
  O   O15       1.0  0.8731471624541456  0.3606638299774333  0.44518826881537177  1.0000
  O   O16       1.0  0.12684383187198736  0.6393242286186834  0.5547997882906942  1.0000
