data_image0
_chemical_formula_structural       Cd2H22C26N18
_chemical_formula_sum              "Cd2 H22 C26 N18"
_cell_length_a       8.075687175342152
_cell_length_b       9.980617451100082
_cell_length_c       10.150025741605397
_cell_angle_alpha    91.01771348327357
_cell_angle_beta     83.78288040608741
_cell_angle_gamma    87.65140726598665

_space_group_name_H-M_alt    "P 1"
_space_group_IT_number       1

loop_
  _space_group_symop_operation_xyz
  'x, y, z'

loop_
  _atom_site_type_symbol
  _atom_site_label
  _atom_site_symmetry_multiplicity
  _atom_site_fract_x
  _atom_site_fract_y
  _atom_site_fract_z
  _atom_site_occupancy
  Cd  Cd1       1.0  0.6985224015839576  0.41063086747883654  0.46071022261817524  1.0000
  Cd  Cd2       1.0  0.3014853659285349  0.5893677838181546  0.5392873218005505  1.0000
  H   H1        1.0  0.4481688045947437  0.24362605067934603  0.6267389212934447  1.0000
  H   H2        1.0  0.5518349551303031  0.7563796594925803  0.3732571250015511  1.0000
  H   H3        1.0  0.47446416688366355  0.21558790488490584  0.4640270430094305  1.0000
  H   H4        1.0  0.5255372634658784  0.7844148672825567  0.5359712272202088  1.0000
  H   H5        1.0  0.8201668355957779  0.9306745809996997  0.2085141906620223  1.0000
  H   H6        1.0  0.17983485165424903  0.0693232167848876  0.7914869919762991  1.0000
  H   H7        1.0  0.5293506268408592  0.07920769069153978  0.7695155675430669  1.0000
  H   H8        1.0  0.47064311230225536  0.920800200955824  0.23048161227552552  1.0000
  H   H9        1.0  0.927235241773296  0.8836951809638478  0.4038535734034383  1.0000
  H   H10       1.0  0.07275926822486412  0.11630082176669994  0.5961543252245107  1.0000
  H   H11       1.0  0.8564707791723337  0.9987210957107423  0.9286176526054319  1.0000
  H   H12       1.0  0.1435283622517574  0.0012757172736215005  0.0713818412988374  1.0000
  H   H13       1.0  0.8907992637713634  0.7692897429914679  0.6178099692092616  1.0000
  H   H14       1.0  0.10918888204594883  0.23071138331802388  0.3821986615418425  1.0000
  H   H15       1.0  0.6899369883481582  0.8661904394091663  0.8013307726570104  1.0000
  H   H16       1.0  0.3100507517398015  0.13381662483215  0.1986720080277706  1.0000
  H   H17       1.0  0.7721925784588848  0.4633072110196751  0.1364337862748144  1.0000
  H   H18       1.0  0.2278202533803794  0.5366883441226378  0.863563178757623  1.0000
  H   H19       1.0  0.8231947458067099  0.43009227420571233  0.8914377014414114  1.0000
  H   H20       1.0  0.17681681319638193  0.5699043056523863  0.1085594100156584  1.0000
  H   H21       1.0  0.8592707685490879  0.20342793421554006  0.789070063214247  1.0000
  H   H22       1.0  0.1407321373477046  0.7965678100384181  0.21092900404061513  1.0000
  C   C1        1.0  0.7874483891235046  0.248941077176795  0.16989360295652733  1.0000
  C   C2        1.0  0.21253922884630327  0.751059879441378  0.8301022705917518  1.0000
  C   C3        1.0  0.6293332855166369  0.099060684632633  0.5659805130700661  1.0000
  C   C4        1.0  0.3706743470599251  0.9009460144385671  0.4340190444931693  1.0000
  C   C5        1.0  0.7663198275557053  0.10535903743318188  0.33160410707773735  1.0000
  C   C6        1.0  0.23368302430527174  0.8946387122377432  0.6683949728016003  1.0000
  C   C7        1.0  0.6155997381372414  0.0356080363878064  0.6884724243251483  1.0000
  C   C8        1.0  0.3843954090851582  0.9643968512331613  0.3115265590909289  1.0000
  C   C9        1.0  0.8352335584506533  0.9245412786317433  0.48231853436170974  1.0000
  C   C10       1.0  0.16476192687954236  0.07545866071270518  0.5176853241096353  1.0000
  C   C11       1.0  0.743036959482538  0.043175027540151206  0.46094965153184114  1.0000
  C   C12       1.0  0.2569647277674889  0.9568227702444358  0.5390515311064803  1.0000
  C   C13       1.0  0.8148663811931415  0.11921197273799317  0.11070634471169426  1.0000
  C   C14       1.0  0.18512020740882923  0.8807870526832388  0.8892935816176717  1.0000
  C   C15       1.0  0.8408720790237966  0.09885839614426568  0.9735447024723598  1.0000
  C   C16       1.0  0.15912077927315949  0.9011405322936098  0.0264555046183474  1.0000
  C   C17       1.0  0.817503876770843  0.8608540474489176  0.6035730839727051  1.0000
  C   C18       1.0  0.18248793887970996  0.13914800249395398  0.3964341514301779  1.0000
  C   C19       1.0  0.7069718093540374  0.917305715762893  0.7071480902099267  1.0000
  C   C20       1.0  0.2930172305879992  0.0826993210541502  0.2928545377379805  1.0000
  C   C21       1.0  0.791811019728108  0.3631254251814084  0.0916420531145548  1.0000
  C   C22       1.0  0.20818924570328082  0.6368713266361112  0.9083543567074486  1.0000
  C   C23       1.0  0.821521387340816  0.3432103056102491  0.9549822425354151  1.0000
  C   C24       1.0  0.1784875986648444  0.6567832579243101  0.0450112049165412  1.0000
  C   C25       1.0  0.8438084555042948  0.21343021764456435  0.8969236501085119  1.0000
  C   C26       1.0  0.156188112922365  0.7865635790162597  0.1030721797906438  1.0000
  N   N1        1.0  0.9621950720968544  0.6181164373074849  0.3817419259087558  1.0000
  N   N2        1.0  0.0378041505345479  0.38188040178323485  0.6182595306420993  1.0000
  N   N3        1.0  0.5333370029933775  0.21643903085163874  0.5482418481463824  1.0000
  N   N4        1.0  0.46666681076748523  0.783564673903328  0.4517541855241234  1.0000
  N   N5        1.0  0.3892920030584008  0.41932754736597383  0.271631119719224  1.0000
  N   N6        1.0  0.6107199352705168  0.580676234195998  0.7283797744496567  1.0000
  N   N7        1.0  0.829054016271144  0.5893011691284257  0.3532180809536598  1.0000
  N   N8        1.0  0.17095631049942747  0.41069644849864756  0.6467801582513388  1.0000
  N   N9        1.0  0.7561745214661003  0.23634195247166903  0.30637315518593766  1.0000
  N   N10       1.0  0.2438234147433818  0.7636548955731824  0.6936274601540191  1.0000
  N   N11       1.0  0.8031235306186489  0.0319151554787993  0.21553291596501373  1.0000
  N   N12       1.0  0.19687180572908153  0.9680827131827956  0.784466023265381  1.0000
  N   N13       1.0  0.44374243416401526  0.46031624379614294  0.370413004397939  1.0000
  N   N14       1.0  0.556263925269185  0.5396854115272447  0.6295827364233091  1.0000
  N   N15       1.0  0.09323342223120079  0.6540293912031885  0.4061377744563615  1.0000
  N   N16       1.0  0.9067732350133255  0.34597337125410377  0.593865823263485  1.0000
  N   N17       1.0  0.33760854179693217  0.3790978646632155  0.17642195462460816  1.0000
  N   N18       1.0  0.6623967473575831  0.620895777946444  0.8235728944878102  1.0000
