data_image0
_chemical_formula_structural       CoH30C26N4O8
_chemical_formula_sum              "Co1 H30 C26 N4 O8"
_cell_length_a       7.308189584363355
_cell_length_b       9.338413214628705
_cell_length_c       9.910206854412504
_cell_angle_alpha    112.88370884338696
_cell_angle_beta     92.80293412033365
_cell_angle_gamma    97.44076581394862

_space_group_name_H-M_alt    "P 1"
_space_group_IT_number       1

loop_
  _space_group_symop_operation_xyz
  'x, y, z'

loop_
  _atom_site_type_symbol
  _atom_site_label
  _atom_site_symmetry_multiplicity
  _atom_site_fract_x
  _atom_site_fract_y
  _atom_site_fract_z
  _atom_site_occupancy
  Co  Co1       1.0  0.4999989453096632  0.5000011715519221  3.087371830193596e-06  1.0000
  H   H1        1.0  0.8951598220403413  0.544278939528816  0.07783226983924864  1.0000
  H   H2        1.0  0.10484060690295385  0.4557178883579524  0.9221661344689239  1.0000
  H   H3        1.0  0.37116782861389197  0.6650256277676618  0.2728958005637096  1.0000
  H   H4        1.0  0.6288368910420346  0.33497944199675794  0.7271078165275497  1.0000
  H   H5        1.0  0.4137867106099264  0.7559863460249261  0.16692742176257983  1.0000
  H   H6        1.0  0.5862109107871376  0.2440175085374392  0.8330745863125486  1.0000
  H   H7        1.0  0.4883783886830386  0.0875292895084598  0.254646345277706  1.0000
  H   H8        1.0  0.511625450481759  0.9124710800929279  0.7453544721331654  1.0000
  H   H9        1.0  0.10673671677082548  0.4866808906076159  0.2484340932866118  1.0000
  H   H10       1.0  0.8932643601701854  0.5133124455250879  0.7515599788724074  1.0000
  H   H11       1.0  0.9672045030796781  0.36330228148283794  0.4133020880729178  1.0000
  H   H12       1.0  0.032799103591713674  0.6366898962014673  0.5866915975084197  1.0000
  H   H13       1.0  0.42831609843446466  0.36887065098841276  0.2205549318897653  1.0000
  H   H14       1.0  0.571685017260549  0.6311367136186375  0.7794525070481484  1.0000
  H   H15       1.0  0.4167032957248722  0.11455701756755589  0.5486491578184953  1.0000
  H   H16       1.0  0.5832989222261559  0.8854492000886224  0.4513558517704724  1.0000
  H   H17       1.0  0.3223878615641381  0.9624219618677256  0.37637804767242494  1.0000
  H   H18       1.0  0.6776194999240985  0.03758190722170699  0.6236292065212723  1.0000
  H   H19       1.0  0.09745894049950012  0.13098878043604154  0.3458499855685774  1.0000
  H   H20       1.0  0.9025442312905908  0.869008066682234  0.6541484806020038  1.0000
  H   H21       1.0  0.19872649713758514  0.28500576336511324  0.5145424597313095  1.0000
  H   H22       1.0  0.801271374049854  0.7149922335267005  0.4854553252345184  1.0000
  H   H23       1.0  0.1056086048926943  0.11248758311826627  0.6495313348581391  1.0000
  H   H24       1.0  0.8943906377181463  0.8875104233893083  0.350466481038886  1.0000
  H   H25       1.0  0.9165517231519899  0.15338213587079957  0.5619140384758198  1.0000
  H   H26       1.0  0.08344889088223784  0.8466158802525284  0.4380838083524168  1.0000
  H   H27       1.0  0.055060754217457486  0.779871893357523  0.07074786969082685  1.0000
  H   H28       1.0  0.9449286192622567  0.2201248892731229  0.9292472694076326  1.0000
  H   H29       1.0  0.3167113941765719  0.9318535881463178  0.009522948383562347  1.0000
  H   H30       1.0  0.6832754495727685  0.0681443529327268  0.9904725772925785  1.0000
  C   C1        1.0  0.8409435840846912  0.4905350836564962  0.1501195915265541  1.0000
  C   C2        1.0  0.15905727109143442  0.5094640995901045  0.8498797096617992  1.0000
  C   C3        1.0  0.9573192907565868  0.4581742237266937  0.24612197850684228  1.0000
  C   C4        1.0  0.042683398749716196  0.5418202891450363  0.7538735789434982  1.0000
  C   C5        1.0  0.8800675492217638  0.3901344709635027  0.3369725600658739  1.0000
  C   C6        1.0  0.11993717908264044  0.6098635740071001  0.6630253795559682  1.0000
  C   C7        1.0  0.6869741944954272  0.3554598469448678  0.3272805428864985  1.0000
  C   C8        1.0  0.31302808815505045  0.6445393248041994  0.6727208010731189  1.0000
  C   C9        1.0  0.5788630997942407  0.3907065463389828  0.22808300218778754  1.0000
  C   C10       1.0  0.4211373205005771  0.6092973063416026  0.7719210795898094  1.0000
  C   C11       1.0  0.592280913441428  0.2926126579947804  0.4280533393812291  1.0000
  C   C12       1.0  0.40771886750415826  0.707387661646045  0.5719493970760964  1.0000
  C   C13       1.0  0.3480338030584917  0.0903844284038655  0.43916914013303204  1.0000
  C   C14       1.0  0.6519717047225626  0.9096170968232683  0.5608351744092276  1.0000
  C   C15       1.0  0.1656248333679002  0.15612618910919454  0.45609267149318106  1.0000
  C   C16       1.0  0.8343814794763063  0.8438730431570818  0.5439057474999557  1.0000
  C   C17       1.0  0.0348163855601484  0.08857836511513278  0.5402658506882718  1.0000
  C   C18       1.0  0.9651857849883996  0.9114208488605229  0.4597314695912189  1.0000
  C   C19       1.0  0.6883298857563673  0.8186020288585424  0.06323970075909098  1.0000
  C   C20       1.0  0.3116645665610989  0.1813994511124619  0.9367613485734552  1.0000
  C   C21       1.0  0.8512046680601985  0.9135880426343448  0.03421993323613039  1.0000
  C   C22       1.0  0.148789764880263  0.08640642309948991  0.965774432706965  1.0000
  C   C23       1.0  0.03026903700422418  0.8756668272073752  0.03901753858142598  1.0000
  C   C24       1.0  0.9697216798734019  0.1243299755956713  0.960976625528204  1.0000
  C   C25       1.0  0.17762755053994536  0.9610459760537535  0.004444328796658638  1.0000
  C   C26       1.0  0.8223640274517974  0.0389485126751552  0.9955459516039155  1.0000
  N   N1        1.0  0.65357819279739  0.45774555075482937  0.1404168967228685  1.0000
  N   N2        1.0  0.3464244880604284  0.5422559869107245  0.8595843381968961  1.0000
  N   N3        1.0  0.4728605478338608  0.15734058614596338  0.36120939181777345  1.0000
  N   N4        1.0  0.52714216104944  0.8426609409629436  0.6387928490220177  1.0000
  O   O1        1.0  0.6936006928149184  0.6698618446517912  0.015545712353223015  1.0000
  O   O2        1.0  0.3063953271043189  0.3301395710384512  0.9844624093507406  1.0000
  O   O3        1.0  0.3380670206679426  0.662183767126912  0.17366227601787904  1.0000
  O   O4        1.0  0.6619347710502694  0.3378200951694268  0.8263418366909222  1.0000
  O   O5        1.0  0.5569686534502266  0.8852011885158856  0.12581214378654682  1.0000
  O   O6        1.0  0.4430259559326757  0.11480149024833247  0.8741873421460299  1.0000
  O   O7        1.0  0.6219820713253267  0.3687777790052705  0.5646860515515258  1.0000
  O   O8        1.0  0.3780256323192716  0.631228477113936  0.435319081762259  1.0000
