data_image0
_chemical_formula_structural       Zn6H60C67O26
_chemical_formula_sum              "Zn6 H60 C67 O26"
_cell_length_a       18.622987819271327
_cell_length_b       18.601977064363563
_cell_length_c       18.74817434874566
_cell_angle_alpha    109.18296946014526
_cell_angle_beta     109.82886490986745
_cell_angle_gamma    109.22792723491463

_space_group_name_H-M_alt    "P 1"
_space_group_IT_number       1

loop_
  _space_group_symop_operation_xyz
  'x, y, z'

loop_
  _atom_site_type_symbol
  _atom_site_label
  _atom_site_symmetry_multiplicity
  _atom_site_fract_x
  _atom_site_fract_y
  _atom_site_fract_z
  _atom_site_occupancy
  Zn  Zn1       1.0  0.9250925006758947  0.9921063405820264  0.43377463908167585  1.0000
  Zn  Zn2       1.0  0.05396550637347275  0.9945071035672868  0.5579881629737143  1.0000
  Zn  Zn3       1.0  0.056902279480695574  0.5542765940344341  0.9961271324937326  1.0000
  Zn  Zn4       1.0  0.9281950165215705  0.4314503877187904  0.9944112126210739  1.0000
  Zn  Zn5       1.0  0.4989510490346092  0.569371467011429  0.5666462758439863  1.0000
  Zn  Zn6       1.0  0.4960893211307109  0.43712753495943707  0.447492510172104  1.0000
  H   H1        1.0  0.7523198204602863  0.7442714849426653  0.37200558004636275  1.0000
  H   H2        1.0  0.7812648975966069  0.5534164390794558  0.9119696594894148  1.0000
  H   H3        1.0  0.6602516993044745  0.5646380436397892  0.813284813042294  1.0000
  H   H4        1.0  0.7578001035432108  0.5347762851440407  0.6336560142028345  1.0000
  H   H5        1.0  0.8879236130350562  0.5405080594410879  0.7399897619886459  1.0000
  H   H6        1.0  0.08892460980673193  0.8101856446149969  0.15124033939771675  1.0000
  H   H7        1.0  0.9816714101001408  0.7689686313368187  0.06363506718754043  1.0000
  H   H8        1.0  0.9662146115674585  0.8849680720975427  0.16467530136774386  1.0000
  H   H9        1.0  0.9009087225644308  0.8284805750017626  0.6443627910735543  1.0000
  H   H10       1.0  0.7749187709003991  0.7062003118769339  0.6275333758443862  1.0000
  H   H11       1.0  0.6328051786158468  0.6132319880649817  0.35167231348131617  1.0000
  H   H12       1.0  0.09529800857770003  0.23341714518501536  0.7394729906844757  1.0000
  H   H13       1.0  0.9582873503616227  0.7372189448130372  0.5298414252602368  1.0000
  H   H14       1.0  0.9110509974952734  0.6230976052251548  0.46081166022614173  1.0000
  H   H15       1.0  0.025270902401743563  0.687772307793054  0.5388357262727652  1.0000
  H   H16       1.0  0.0069626897964809665  0.6587834331810639  0.39293014986611746  1.0000
  H   H17       1.0  0.04592006802198512  0.7713005766769783  0.4576034916674984  1.0000
  H   H18       1.0  0.8928345242559177  0.7462053174931145  0.3851730645974812  1.0000
  H   H19       1.0  0.853159257159305  0.6334806238273671  0.32156867667446676  1.0000
  H   H20       1.0  0.35579780647915976  0.11400141121868759  0.576212904686457  1.0000
  H   H21       1.0  0.3684859062787352  0.10867858414585642  0.4839645534340348  1.0000
  H   H22       1.0  0.30304557604716814  0.010208165196921502  0.4793441623668355  1.0000
  H   H23       1.0  0.09852820511062525  0.34463470022152615  0.8625401787260996  1.0000
  H   H24       1.0  0.11144435918468788  0.2795468460744956  0.34459833849741967  1.0000
  H   H25       1.0  0.07762355463937351  0.35648246687115664  0.38146397527641074  1.0000
  H   H26       1.0  0.11765600951289196  0.3574147448061852  0.30835527773674437  1.0000
  H   H27       1.0  0.23263524440297795  0.4800723647522105  0.4601552457441541  1.0000
  H   H28       1.0  0.2665189945976394  0.4064307874076434  0.41957348620658047  1.0000
  H   H29       1.0  0.1921603000504959  0.40493094422118503  0.5418176483782559  1.0000
  H   H30       1.0  0.30518027127654074  0.46051709946359415  0.5773080768848968  1.0000
  H   H31       1.0  0.9798191309056037  0.2630525760671176  0.5687544686272117  1.0000
  H   H32       1.0  0.03246591637773833  0.36426901571510234  0.5729052047712669  1.0000
  H   H33       1.0  0.9301755867992582  0.27753154474998365  0.4794158073591603  1.0000
  H   H34       1.0  0.8157517487305482  0.21107882355057944  0.7228352741696681  1.0000
  H   H35       1.0  0.053855817223471505  0.2891473327872021  0.4493180359482379  1.0000
  H   H36       1.0  0.001403506570070998  0.18789021292229788  0.443237093752927  1.0000
  H   H37       1.0  0.11599920414281678  0.23995407104946764  0.5903320276133782  1.0000
  H   H38       1.0  0.1664693760371279  0.3470286988330074  0.6087714049571387  1.0000
  H   H39       1.0  0.3051018959770672  0.23825154490159414  0.23653931144623636  1.0000
  H   H40       1.0  0.20567968908937934  0.18684132449028826  0.13674842802775802  1.0000
  H   H41       1.0  0.30701165262831853  0.21609189445549506  0.13757484883185359  1.0000
  H   H42       1.0  0.25886960379158097  0.32567481908353096  0.12655362155614816  1.0000
  H   H43       1.0  0.3569642950698935  0.376663727881983  0.22655460073192302  1.0000
  H   H44       1.0  0.2677268749392425  0.3532803230228582  0.30030763096284824  1.0000
  H   H45       1.0  0.8133961875115502  0.10875080146658433  0.5940039683103605  1.0000
  H   H46       1.0  0.1711273349937983  0.30695887260584703  0.20046087379090946  1.0000
  H   H47       1.0  0.2577488244227411  0.8188007543002913  0.24494336254717552  1.0000
  H   H48       1.0  0.34001201386355717  0.8730604817291692  0.3561945683150681  1.0000
  H   H49       1.0  0.3706603287111037  0.8719226043035704  0.27595216131933836  1.0000
  H   H50       1.0  0.3909550504342718  0.7620012201451446  0.3190119219410974  1.0000
  H   H51       1.0  0.30876519718236756  0.7084272160268841  0.2082883993369364  1.0000
  H   H52       1.0  0.19267989492105647  0.6795724346688489  0.2511046568370361  1.0000
  H   H53       1.0  0.2750527472197533  0.7295612823453724  0.3609972107123696  1.0000
  H   H54       1.0  0.08134445402357929  0.0259444565388236  0.21430130415969012  1.0000
  H   H55       1.0  0.14289475697580667  0.9748699609388469  0.18911615516732652  1.0000
  H   H56       1.0  0.3552954709816091  0.2133744578177855  0.46124134211274276  1.0000
  H   H57       1.0  0.18875886149010768  0.060983698638544616  0.2978224227731728  1.0000
  H   H58       1.0  0.14154561229325685  0.38743608754511893  0.1300226981939971  1.0000
  H   H59       1.0  0.9076581609404358  0.583076727494998  0.22192333865327646  1.0000
  H   H60       1.0  0.359996927414663  0.6617332729557149  0.409594728078126  1.0000
  C   C1        1.0  0.9013274873367009  0.8713668703394789  0.5183312311664492  1.0000
  C   C2        1.0  0.8329336650145364  0.7938046737871077  0.5092314219702203  1.0000
  C   C3        1.0  0.03477066348085602  0.23076603630227052  0.735801702680689  1.0000
  C   C4        1.0  0.9618814882121569  0.8717477198974279  0.3567388185630519  1.0000
  C   C5        1.0  0.03644056452668565  0.291406343740043  0.8044067431751926  1.0000
  C   C6        1.0  0.9573196259412454  0.2838410717538551  0.7998818690701481  1.0000
  C   C7        1.0  0.8767433403645768  0.21668959872732074  0.7251247780287784  1.0000
  C   C8        1.0  0.8753959989001385  0.1593893047824793  0.6537633719649276  1.0000
  C   C9        1.0  0.9543729807486585  0.16553665330153683  0.659443842644144  1.0000
  C   C10       1.0  0.25025516727088604  0.16283667606278837  0.4873441017235363  1.0000
  C   C11       1.0  0.3084364041659242  0.22468617943214753  0.4788529075082194  1.0000
  C   C12       1.0  0.9825759353606568  0.7377888667251755  0.1694731195955086  1.0000
  C   C13       1.0  0.3073996227371865  0.30299688866887925  0.4928269980793515  1.0000
  C   C14       1.0  0.2465340855531082  0.32072170414392803  0.5138976752289962  1.0000
  C   C15       1.0  0.1891718116176406  0.2586377921677681  0.5246577415522038  1.0000
  C   C16       1.0  0.1263183698612522  0.11110083350117612  0.5154451541311076  1.0000
  C   C17       1.0  0.19123326227406778  0.1802102651925495  0.5106588585641985  1.0000
  C   C18       1.0  0.1295157378568703  0.5204093733706402  0.1211902286250819  1.0000
  C   C19       1.0  0.961558247252853  0.5860302941207891  0.10478716787944348  1.0000
  C   C20       1.0  0.9078766921171564  0.5319931834795784  0.8872354393371679  1.0000
  C   C21       1.0  0.962220117535807  0.35169736850107813  0.8742195712168763  1.0000
  C   C22       1.0  0.38306797791628355  0.5284504449637452  0.41009302967122335  1.0000
  C   C23       1.0  0.020653894888773963  0.7930353028792608  0.13381353082682076  1.0000
  C   C24       1.0  0.6199325962286508  0.5857900326565686  0.48206650105785087  1.0000
  C   C25       1.0  0.6220403259953998  0.538671737641842  0.6496513703304031  1.0000
  C   C26       1.0  0.3779213448065518  0.3680953679845516  0.4898503721471385  1.0000
  C   C27       1.0  0.19240525651700577  0.4481519034118904  0.19099761238916096  1.0000
  C   C28       1.0  0.9570142131192299  0.1025091380800163  0.5878345554621871  1.0000
  C   C29       1.0  0.2514848032513727  0.4443278558947768  0.2574385798561849  1.0000
  C   C30       1.0  0.3139394391032226  0.524274910354862  0.3366140724706383  1.0000
  C   C31       1.0  0.3131769029778582  0.6020841251686663  0.34645926524481746  1.0000
  C   C32       1.0  0.2557985829604021  0.6060062739336445  0.27856971106010053  1.0000
  C   C33       1.0  0.19554675390974552  0.5267277225041411  0.1990905594752163  1.0000
  C   C34       1.0  0.013960168555982618  0.8681150370711281  0.19875927044687816  1.0000
  C   C35       1.0  0.7774978145947458  0.5530409217672486  0.8525395949391025  1.0000
  C   C36       1.0  0.7095812964261511  0.5580613111865419  0.7971872681887006  1.0000
  C   C37       1.0  0.7015488258607191  0.5489769163570488  0.7172721823936427  1.0000
  C   C38       1.0  0.7656235341472167  0.5426011927290516  0.6965119205205138  1.0000
  C   C39       1.0  0.8372343231386237  0.5444864044265217  0.7549790974203103  1.0000
  C   C40       1.0  0.979002905562467  0.8038942361372962  0.22782284333614192  1.0000
  C   C41       1.0  0.8411431648383213  0.5459301067176626  0.8313713350172094  1.0000
  C   C42       1.0  0.9555324851840581  0.7958581314799743  0.2889506209028452  1.0000
  C   C43       1.0  0.9306057563965311  0.7143336224010567  0.2872539950820039  1.0000
  C   C44       1.0  0.9284247251487939  0.6461215058525127  0.22373023829177896  1.0000
  C   C45       1.0  0.8414157174813113  0.7818942102005623  0.5810207979519432  1.0000
  C   C46       1.0  0.9557290643298585  0.6560885525164863  0.1646776571118024  1.0000
  C   C47       1.0  0.910699862952377  0.699099179481621  0.35426248076912253  1.0000
  C   C48       1.0  0.988979338444679  0.7054678052985323  0.42511421301438884  1.0000
  C   C49       1.0  0.9697809329224467  0.6873752644379748  0.49229681691502225  1.0000
  C   C50       1.0  0.3228911728574672  0.0797726040471787  0.5043735593334373  1.0000
  C   C51       1.0  0.24180987417278738  0.4029646893850867  0.5235708566825463  1.0000
  C   C52       1.0  0.22002564230731286  0.4126433811660634  0.4413322965131385  1.0000
  C   C53       1.0  0.12656311300568754  0.3477983611218464  0.3648944060580916  1.0000
  C   C54       1.0  0.12984833368659573  0.2777099123502112  0.5575059949222022  1.0000
  C   C55       1.0  0.0419481775801316  0.2589085069568569  0.4885034395617111  1.0000
  C   C56       1.0  0.7720371165501517  0.7131912649706252  0.5712768182387078  1.0000
  C   C57       1.0  0.9934460939618287  0.2926878497680079  0.5295835404671505  1.0000
  C   C58       1.0  0.24192886685381865  0.35547017685023263  0.23957723871136946  1.0000
  C   C59       1.0  0.2868014511083459  0.32696462017217  0.18937641893983684  1.0000
  C   C60       1.0  0.275686450867255  0.23711885582096673  0.17410476376529255  1.0000
  C   C61       1.0  0.25827847136053345  0.6916570699220728  0.2929580323895919  1.0000
  C   C62       1.0  0.3246502967343475  0.7475144405798205  0.27557390367962853  1.0000
  C   C63       1.0  0.3233888710450828  0.8325414098705937  0.28890645314639585  1.0000
  C   C64       1.0  0.12793800484898546  0.0042279732340305  0.23992586734324559  1.0000
  C   C65       1.0  0.6968963351614973  0.6528629104115782  0.48874215042222585  1.0000
  C   C66       1.0  0.6910045441668797  0.661178926933168  0.4157285142768642  1.0000
  C   C67       1.0  0.7576374463239547  0.7334166760421327  0.42679449255217616  1.0000
  O   O1        1.0  0.8741443327336781  0.8988212513226513  0.4668296026694773  1.0000
  O   O2        1.0  0.4104181824223049  0.4747625396952417  0.3901249373919739  1.0000
  O   O3        1.0  0.593799506299476  0.6162457302489772  0.5329522137558625  1.0000
  O   O4        1.0  0.9824867547891923  0.90494077263903  0.5757456311617445  1.0000
  O   O5        1.0  0.5858960730541725  0.5042944659466642  0.4272465196448607  1.0000
  O   O6        1.0  0.5908608169244757  0.5887636337467369  0.6730183963096932  1.0000
  O   O7        1.0  0.5909044803121831  0.4796334852779154  0.5720887533019406  1.0000
  O   O8        1.0  0.41112834369176443  0.44908835908660194  0.5416804933130094  1.0000
  O   O9        1.0  0.4036623299465488  0.3381149971982751  0.43643008072783823  1.0000
  O   O10       1.0  0.9103247327253357  0.9010244889598765  0.3307920652428676  1.0000
  O   O11       1.0  0.017986457426019523  0.9014071494466767  0.4353498494344948  1.0000
  O   O12       1.0  0.05020018286484876  0.46148268913015755  0.08576044019459057  1.0000
  O   O13       1.0  0.045782282730904504  0.08108275130181401  0.4629027226588888  1.0000
  O   O14       1.0  0.15467373069404997  0.08680690895315733  0.5708186617672408  1.0000
  O   O15       1.0  0.9008625714783276  0.0727794841638953  0.5077121870953787  1.0000
  O   O16       1.0  0.016985354656853212  0.08307925068681501  0.6119671795053349  1.0000
  O   O17       1.0  0.1571248149874407  0.5730500998815842  0.09382101599984341  1.0000
  O   O18       1.0  0.2432080984372931  0.08229000604444542  0.4686612812294299  1.0000
  O   O19       1.0  0.09362069402023121  0.9446001897781005  0.2671235269130889  1.0000
  O   O20       1.0  0.017294712915116937  0.6107335134967188  0.0810923565385978  1.0000
  O   O21       1.0  0.9109835017863047  0.5055344412795222  0.08064056933895365  1.0000
  O   O22       1.0  0.9888634905327292  0.5757818140803294  0.9086291802195772  1.0000
  O   O23       1.0  0.8791292573369062  0.47642872024915317  0.9097358594263625  1.0000
  O   O24       1.0  0.023979967931779825  0.4296195998856335  0.9097518126334092  1.0000
  O   O25       1.0  0.9048979609593104  0.32789030604097746  0.8976084858066213  1.0000
  O   O26       1.0  0.4126220315630961  0.5860987911279028  0.48941496125566897  1.0000
