data_image0
_chemical_formula_structural       Cu6H36C18S6I6N12
_chemical_formula_sum              "Cu6 H36 C18 S6 I6 N12"
_cell_length_a       9.493086058953391
_cell_length_b       10.521270461311813
_cell_length_c       12.550874246741385
_cell_angle_alpha    107.30755616203629
_cell_angle_beta     99.50784429185568
_cell_angle_gamma    114.09810597858011

_space_group_name_H-M_alt    "P 1"
_space_group_IT_number       1

loop_
  _space_group_symop_operation_xyz
  'x, y, z'

loop_
  _atom_site_type_symbol
  _atom_site_label
  _atom_site_symmetry_multiplicity
  _atom_site_fract_x
  _atom_site_fract_y
  _atom_site_fract_z
  _atom_site_occupancy
  Cu  Cu1       1.0  0.3510686841065506  0.8622130295109258  0.38631236838970306  1.0000
  Cu  Cu2       1.0  0.6489374449884693  0.1377898861413698  0.613689354357611  1.0000
  Cu  Cu3       1.0  0.2403003900247855  0.9948894863031656  0.6922943550179712  1.0000
  Cu  Cu4       1.0  0.7597041251117601  0.0051122942597317  0.30769970817662806  1.0000
  Cu  Cu5       1.0  0.0515901246725292  0.05817022395076781  0.4097179320997668  1.0000
  Cu  Cu6       1.0  0.9484142400238866  0.9418292736004051  0.5902835118998129  1.0000
  H   H1        1.0  0.44474264310892425  0.670792349136818  0.47167964507784194  1.0000
  H   H2        1.0  0.5552497127618776  0.3292025203144604  0.5283215022991856  1.0000
  H   H3        1.0  0.4774752639378547  0.8996244594550831  0.807318366023445  1.0000
  H   H4        1.0  0.5225250245567351  0.10037955074112404  0.19268208488590238  1.0000
  H   H5        1.0  0.3031847807080013  0.29986694620190957  0.8559884177501476  1.0000
  H   H6        1.0  0.696824776222343  0.7001405353798733  0.14401328515298678  1.0000
  H   H7        1.0  0.0964681390841164  0.3568665152927509  0.5749541926574437  1.0000
  H   H8        1.0  0.9035253184789411  0.6431283694139652  0.42504231886795213  1.0000
  H   H9        1.0  0.9374797106785802  0.9350795953899576  0.13876380849609393  1.0000
  H   H10       1.0  0.0625268029762722  0.06491991865924972  0.8612371177593304  1.0000
  H   H11       1.0  0.23818044352196224  0.7500362341732157  0.13168463852969137  1.0000
  H   H12       1.0  0.7618234554440376  0.24996439980389348  0.868313841364291  1.0000
  H   H13       1.0  0.6266158123386774  0.6136902223903747  0.6129646665756355  1.0000
  H   H14       1.0  0.3733670632769588  0.38629663258203817  0.3870356657572459  1.0000
  H   H15       1.0  0.4150663278304733  0.5084004639727198  0.5989259326828318  1.0000
  H   H16       1.0  0.584918514107521  0.49159434964630594  0.4010758330770728  1.0000
  H   H17       1.0  0.5094084525450455  0.6617617523681005  0.8073732133145556  1.0000
  H   H18       1.0  0.49058087933793376  0.33823763224468456  0.19263026326524377  1.0000
  H   H19       1.0  0.688891051894373  0.8026302207356791  0.8001191325586349  1.0000
  H   H20       1.0  0.3111032609067621  0.1973601272159158  0.19987875076601117  1.0000
  H   H21       1.0  0.3468852207717248  0.5776896585339912  0.9268748379757669  1.0000
  H   H22       1.0  0.6531157749596374  0.42231776597295567  0.07312336520277538  1.0000
  H   H23       1.0  0.14987514796905546  0.4540599426399511  0.924510981607753  1.0000
  H   H24       1.0  0.8501244530800633  0.5459406583411023  0.07548853377455342  1.0000
  H   H25       1.0  0.018682880372438156  0.4671967639360305  0.7515282620309236  1.0000
  H   H26       1.0  0.9813112497926114  0.5328015261641569  0.248471572464915  1.0000
  H   H27       1.0  0.2126649031456224  0.6122186558749191  0.7658529995688924  1.0000
  H   H28       1.0  0.7873309151952838  0.3877807884231217  0.23414255726271452  1.0000
  H   H29       1.0  0.9669724467676415  0.8714881514294176  0.9246457305262582  1.0000
  H   H30       1.0  0.0330310527950459  0.1285158803290898  0.0753559333030083  1.0000
  H   H31       1.0  0.838453750139216  0.7096045503618102  0.9471072977723127  1.0000
  H   H32       1.0  0.1615529555437476  0.2903995016851013  0.0528963747913238  1.0000
  H   H33       1.0  0.03230999535203702  0.6291786132918632  0.9176626033672408  1.0000
  H   H34       1.0  0.9676951874386788  0.3708265713906017  0.08233557861225196  1.0000
  H   H35       1.0  0.1880035683569901  0.8166717447034486  0.9453089301541056  1.0000
  H   H36       1.0  0.8120026715955574  0.18333344376938498  0.054691778303933306  1.0000
  C   C1        1.0  0.4453163433505765  0.8070809303568468  0.6290193158321388  1.0000
  C   C2        1.0  0.5546815031955957  0.1929162550708838  0.3709783291735036  1.0000
  C   C3        1.0  0.5192607749102081  0.6227084766901214  0.6263484780744691  1.0000
  C   C4        1.0  0.4807293112489786  0.3772841008947907  0.37365579296493223  1.0000
  C   C5        1.0  0.5566731173689662  0.7259951470497372  0.755218427807492  1.0000
  C   C6        1.0  0.4433189499560513  0.2740053930034776  0.2447848892155449  1.0000
  C   C7        1.0  0.20330281440231346  0.2979903074958088  0.6958532182701234  1.0000
  C   C8        1.0  0.7966989257095918  0.7020103074354793  0.3041473709969438  1.0000
  C   C9        1.0  0.22806030245780562  0.4772402162872425  0.8695443032811669  1.0000
  C   C10       1.0  0.7719379528836967  0.5227660515053786  0.13045485526860298  1.0000
  C   C11       1.0  0.14693809510743716  0.4965523137799368  0.7617777514835213  1.0000
  C   C12       1.0  0.8530549976870815  0.503445977625461  0.23821637327591824  1.0000
  C   C13       1.0  0.11149637435351444  0.8686060035642175  0.16983339417587476  1.0000
  C   C14       1.0  0.8885069183375975  0.13139348637489695  0.8301679107885604  1.0000
  C   C15       1.0  0.9633107741746726  0.8058962613729292  0.9783830027473501  1.0000
  C   C16       1.0  0.03669643187348022  0.19410666316532857  0.021618063220657322  1.0000
  C   C17       1.0  0.0907945045419468  0.750867891761587  0.9749270331769183  1.0000
  C   C18       1.0  0.9092143550472825  0.24913617805724905  0.02507532582809801  1.0000
  S   S1        1.0  0.38565109807001374  0.9202939589238998  0.5823599266930729  1.0000
  S   S2        1.0  0.6143529978719187  0.07971121432481001  0.4176405036946633  1.0000
  S   S3        1.0  0.21016245149909452  0.14585395859703004  0.6019706578909095  1.0000
  S   S4        1.0  0.78984252936786  0.8541466855399381  0.3980263694092942  1.0000
  S   S5        1.0  0.17149521475124646  0.931861519786843  0.31935755209780603  1.0000
  S   S6        1.0  0.8285057567446117  0.06813342075212601  0.6806383410447198  1.0000
  I   I1        1.0  0.32661086814042767  0.611365520530434  0.24945925193485868  1.0000
  I   I2        1.0  0.6733738777835185  0.388627024089736  0.7505411406709329  1.0000
  I   I3        1.0  0.38666442442053045  0.11493383287717762  0.9198944442914724  1.0000
  I   I4        1.0  0.6133601851145516  0.885073766738586  0.08010204277359641  1.0000
  I   I5        1.0  0.9747597835987277  0.7339003392690701  0.6499865815173821  1.0000
  I   I6        1.0  0.02523941309925706  0.26610365821948534  0.3500169136146738  1.0000
  N   N1        1.0  0.47642951466647093  0.7040174926866173  0.5615761601240907  1.0000
  N   N2        1.0  0.5235642977694753  0.2959739827736315  0.43842432979619883  1.0000
  N   N3        1.0  0.4738118679691468  0.8138895217569058  0.7397343326068438  1.0000
  N   N4        1.0  0.5261840364901574  0.18611218899219042  0.2602641890077991  1.0000
  N   N5        1.0  0.24792908672417718  0.34491828300738103  0.8131642323209719  1.0000
  N   N6        1.0  0.7520778406738415  0.6550903146806136  0.18683741166410786  1.0000
  N   N7        1.0  0.1543127306657226  0.38640346472779197  0.6620438163718705  1.0000
  N   N8        1.0  0.8456823804384114  0.6135925652595092  0.3379539881905345  1.0000
  N   N9        1.0  0.01291546567600938  0.9007200878690469  0.10481115811578699  1.0000
  N   N10       1.0  0.9870922209460316  0.09928170406497121  0.8951904845144372  1.0000
  N   N11       1.0  0.15612913554645055  0.7801229417987372  0.0989404666311131  1.0000
  N   N12       1.0  0.8438769886007408  0.21987997257966194  0.9010620519306657  1.0000
