data_image0
_chemical_formula_structural       Gd4H24C12O36
_chemical_formula_sum              "Gd4 H24 C12 O36"
_cell_length_a       9.237599060000473
_cell_length_b       9.944700633201467
_cell_length_c       11.240573175431145
_cell_angle_alpha    114.41006267326603
_cell_angle_beta     90.0000295103266
_cell_angle_gamma    89.9999866470797

_space_group_name_H-M_alt    "P 1"
_space_group_IT_number       1

loop_
  _space_group_symop_operation_xyz
  'x, y, z'

loop_
  _atom_site_type_symbol
  _atom_site_label
  _atom_site_symmetry_multiplicity
  _atom_site_fract_x
  _atom_site_fract_y
  _atom_site_fract_z
  _atom_site_occupancy
  Gd  Gd1       1.0  0.0421897043983321  0.1623902940803532  0.8030335413577421  1.0000
  Gd  Gd2       1.0  0.5421939174109695  0.3376140617807836  0.19697111788206464  1.0000
  Gd  Gd3       1.0  0.9578083388166193  0.8376017786392895  0.19696398762615544  1.0000
  Gd  Gd4       1.0  0.457810620998977  0.662398948350301  0.8030412664221063  1.0000
  H   H1        1.0  0.32458452760856454  0.012834332952586205  0.7896800218788655  1.0000
  H   H2        1.0  0.8245876248661189  0.48715908096777133  0.2103065069339253  1.0000
  H   H3        1.0  0.6754286710570199  0.9871622165636824  0.2103093755705175  1.0000
  H   H4        1.0  0.17542557379911727  0.5128308593081885  0.7896777789026219  1.0000
  H   H5        1.0  0.3661386144005476  0.18484302308695533  0.881866446355254  1.0000
  H   H6        1.0  0.866136300494361  0.3151437292721226  0.11812386971701734  1.0000
  H   H7        1.0  0.6338648414744482  0.8151513016147975  0.11812479776838825  1.0000
  H   H8        1.0  0.13386282525308246  0.6848406190833316  0.8818699148112759  1.0000
  H   H9        1.0  0.777481295636207  0.954781414044561  0.7491772772536013  1.0000
  H   H10       1.0  0.2774898401751997  0.545214925210246  0.25082003321120544  1.0000
  H   H11       1.0  0.2225005095932957  0.0452084501610415  0.2508194354919198  1.0000
  H   H12       1.0  0.7225136157007341  0.4547870966880084  0.7491793935531421  1.0000
  H   H13       1.0  0.7485659165487278  0.0969806916499962  0.8725264805802626  1.0000
  H   H14       1.0  0.24856672967960242  0.4030170867102498  0.12746962826366112  1.0000
  H   H15       1.0  0.2514375393267585  0.9030169295215984  0.12746865080524122  1.0000
  H   H16       1.0  0.7514378087293707  0.5969794030368404  0.8725295331899475  1.0000
  H   H17       1.0  0.2936283807834386  0.3307050670224001  0.7515934319667111  1.0000
  H   H18       1.0  0.793631580408821  0.169290532176646  0.24839744686322973  1.0000
  H   H19       1.0  0.7063729100268219  0.669289257679303  0.24839781215634837  1.0000
  H   H20       1.0  0.2063740405303918  0.830706011905896  0.7515928382210577  1.0000
  H   H21       1.0  0.2018447656260705  0.29741853618439523  0.6257164336200561  1.0000
  H   H22       1.0  0.7018436864555965  0.20258368410571856  0.3742768442040615  1.0000
  H   H23       1.0  0.7981619378456771  0.7025791067214443  0.3742751472184765  1.0000
  H   H24       1.0  0.2981597694189944  0.7974150630568745  0.6257151447505865  1.0000
  C   C1        1.0  0.9743776461445108  0.07368304214002562  0.05356769257925721  1.0000
  C   C2        1.0  0.47437667936267053  0.42631148873271485  0.9464184378348721  1.0000
  C   C3        1.0  0.0256214796017105  0.9263002345598537  0.9464203580102721  1.0000
  C   C4        1.0  0.5256170337185467  0.5736950316957348  0.05356930684037314  1.0000
  C   C5        1.0  0.0743060456039117  0.5024422158831925  0.032401370932532814  1.0000
  C   C6        1.0  0.5743062543675848  0.9975463293880863  0.9676018490484994  1.0000
  C   C7        1.0  0.92569091508161  0.49754095757933214  0.9676035447586814  1.0000
  C   C8        1.0  0.42568854124996136  0.0024523688724116003  0.032398128636451404  1.0000
  C   C9        1.0  0.9480592277750546  0.06252813662754872  0.5019443047100369  1.0000
  C   C10       1.0  0.44806886911992894  0.43750157704864984  0.49807972503251113  1.0000
  C   C11       1.0  0.0519225774544054  0.9374915099110127  0.49806875301599274  1.0000
  C   C12       1.0  0.5519389168900445  0.5625367277521321  0.5019589110655931  1.0000
  O   O1        1.0  0.9718260956334176  0.183252790636999  0.023391421555658116  1.0000
  O   O2        1.0  0.47183491507844627  0.3167295117840965  0.976603532746829  1.0000
  O   O3        1.0  0.0281719475830826  0.8167282123467033  0.976606464443144  1.0000
  O   O4        1.0  0.5281642106697717  0.6832614349445765  0.023397138668215772  1.0000
  O   O5        1.0  0.110907553780585  0.6225304196017163  0.12501364577664023  1.0000
  O   O6        1.0  0.6109077500913075  0.8774779279972552  0.8750093670497139  1.0000
  O   O7        1.0  0.8890872418434769  0.3774603912882881  0.8750092165612744  1.0000
  O   O8        1.0  0.38908271539589384  0.12255498592401176  0.12500592517166353  1.0000
  O   O9        1.0  0.1474454241427239  0.3836313503604957  0.9880576520426348  1.0000
  O   O10       1.0  0.6474485247940011  0.1163818555251837  0.011948553861465407  1.0000
  O   O11       1.0  0.852551536539778  0.6163673424665107  0.011943213279863672  1.0000
  O   O12       1.0  0.35255493108182623  0.8836466413691042  0.9880651058954658  1.0000
  O   O13       1.0  0.28754134926036556  0.11454750888948691  0.8326825193582579  1.0000
  O   O14       1.0  0.7875422878400329  0.38545025505970193  0.16731627350423395  1.0000
  O   O15       1.0  0.7124642716813482  0.8854500742473591  0.1673188254865607  1.0000
  O   O16       1.0  0.21246441563298651  0.6145473552448877  0.8326806331560735  1.0000
  O   O17       1.0  0.19243757921333332  0.3109125752165909  0.7164004737746837  1.0000
  O   O18       1.0  0.6924386253490981  0.18908523302376076  0.2835902788504968  1.0000
  O   O19       1.0  0.8075658766613855  0.6890784475817855  0.28358777072406155  1.0000
  O   O20       1.0  0.30756483052518035  0.810915728086016  0.7164016387011644  1.0000
  O   O21       1.0  0.9303490099133499  0.17044258896572734  0.6107380172959226  1.0000
  O   O22       1.0  0.43036187544088017  0.3295662679437825  0.38925783298335415  1.0000
  O   O23       1.0  0.06962846518426599  0.8295583667098756  0.3892547878856691  1.0000
  O   O24       1.0  0.5696491581618446  0.6704456759654392  0.6107479297468503  1.0000
  O   O25       1.0  0.8900874308561132  0.044841455702694995  0.39394441768128985  1.0000
  O   O26       1.0  0.3900938715221756  0.4551740193621256  0.6060547471309691  1.0000
  O   O27       1.0  0.1098965394341747  0.955170569709004  0.606048030487152  1.0000
  O   O28       1.0  0.6099160795489453  0.5448445229202863  0.3939579024856884  1.0000
  O   O29       1.0  0.060862212419309  0.9264255175305537  0.8379032761239602  1.0000
  O   O30       1.0  0.5608686437502117  0.5735641204788422  0.16210211996899912  1.0000
  O   O31       1.0  0.9391282530710754  0.073554370329056  0.16209597702972192  1.0000
  O   O32       1.0  0.43913481212806005  0.42643784165044724  0.8379070708019329  1.0000
  O   O33       1.0  0.7987661743991765  0.060364014337778805  0.7864135935956188  1.0000
  O   O34       1.0  0.2987691840473659  0.43963264046529105  0.21358568486635934  1.0000
  O   O35       1.0  0.2012340338808727  0.939624740177905  0.21358359867485194  1.0000
  O   O36       1.0  0.7012353543617919  0.5603693596988251  0.7864172924461315  1.0000
