data_image0
_chemical_formula_structural       Cd4H24C40N16O16
_chemical_formula_sum              "Cd4 H24 C40 N16 O16"
_cell_length_a       7.999552262372235
_cell_length_b       9.172502125003914
_cell_length_c       15.805353506531675
_cell_angle_alpha    90.00004376607656
_cell_angle_beta     104.39768187251025
_cell_angle_gamma    89.99989612140406

_space_group_name_H-M_alt    "P 1"
_space_group_IT_number       1

loop_
  _space_group_symop_operation_xyz
  'x, y, z'

loop_
  _atom_site_type_symbol
  _atom_site_label
  _atom_site_symmetry_multiplicity
  _atom_site_fract_x
  _atom_site_fract_y
  _atom_site_fract_z
  _atom_site_occupancy
  Cd  Cd1       1.0  0.4301019422839331  0.5039049442941916  0.3780801063672357  1.0000
  Cd  Cd2       1.0  0.5698997895553573  0.0039036913985341986  0.12191946109273737  1.0000
  Cd  Cd3       1.0  0.5698968606510774  0.4960946937554526  0.6219200551983519  1.0000
  Cd  Cd4       1.0  0.43010030462854576  0.9960970368644411  0.8780795977404239  1.0000
  H   H1        1.0  0.16722868051611067  0.9994437026024127  0.1151186922479823  1.0000
  H   H2        1.0  0.8327759365272485  0.4994434715407864  0.384880826003041  1.0000
  H   H3        1.0  0.8327727036261477  0.0005559354454121001  0.884881794477849  1.0000
  H   H4        1.0  0.1672241583040943  0.5005561665062855  0.6151169675173662  1.0000
  H   H5        1.0  0.5558890625824658  0.2753749682329528  0.24835606211540545  1.0000
  H   H6        1.0  0.44410696585273957  0.7753727621772271  0.2516435401112247  1.0000
  H   H7        1.0  0.44411103127934837  0.7246246698153695  0.7516436293739801  1.0000
  H   H8        1.0  0.5558866746699351  0.22462469544593236  0.7483559711336483  1.0000
  H   H9        1.0  0.3483353956693733  0.8893374605071714  0.3753013859074983  1.0000
  H   H10       1.0  0.6516668581647805  0.38933717266921514  0.12470031654297026  1.0000
  H   H11       1.0  0.651665988472885  0.1106621775406609  0.6246991008183329  1.0000
  H   H12       1.0  0.34833194509449317  0.6106613751649518  0.8752992123661798  1.0000
  H   H13       1.0  0.11982788107673767  0.2588608652858326  0.44820399401321254  1.0000
  H   H14       1.0  0.8801733426627789  0.7588587997278895  0.051796255344449094  1.0000
  H   H15       1.0  0.8801722134303345  0.7411398629767233  0.551794432163625  1.0000
  H   H16       1.0  0.11982675087802619  0.24113865789071556  0.9482040688010543  1.0000
  H   H17       1.0  0.23392672538872714  0.9198299413536973  0.6271684907787788  1.0000
  H   H18       1.0  0.7660731729938205  0.4198276190963668  0.8728314725902492  1.0000
  H   H19       1.0  0.7660733684709127  0.080171877124755  0.3728312007108129  1.0000
  H   H20       1.0  0.23392950207740876  0.5801698385200069  0.1271685440591739  1.0000
  H   H21       1.0  0.05756288809527628  0.35248192768406733  0.2730676705835862  1.0000
  H   H22       1.0  0.9424342754325608  0.8524832649559997  0.22693590505367203  1.0000
  H   H23       1.0  0.9424372060897068  0.647517710363843  0.7269313882494685  1.0000
  H   H24       1.0  0.05756065342715288  0.14751855352941587  0.7730681973660225  1.0000
  C   C1        1.0  0.38531953854529627  0.7373757262568291  0.5306712892067225  1.0000
  C   C2        1.0  0.6146794309983363  0.23737376937494054  0.9693316396251674  1.0000
  C   C3        1.0  0.614681845595875  0.2626250020060609  0.46932919751921537  1.0000
  C   C4        1.0  0.3853206628645579  0.7626247784583171  0.030668051864111576  1.0000
  C   C5        1.0  0.3047678304178802  0.8827657636956162  0.5050286658153738  1.0000
  C   C6        1.0  0.6952347220201744  0.3827637136273126  0.9949735135244353  1.0000
  C   C7        1.0  0.6952335537232911  0.11723496456728097  0.494971820910564  1.0000
  C   C8        1.0  0.30476537184163277  0.61723592442101  0.00502617796495028  1.0000
  C   C9        1.0  0.29839696255876896  0.947314078878385  0.42412478534375003  1.0000
  C   C10       1.0  0.701602594921411  0.44731582860803343  0.07587597048777892  1.0000
  C   C11       1.0  0.7016044215834896  0.05268555916943999  0.5758757013820812  1.0000
  C   C12       1.0  0.298397498940396  0.5526838094402818  0.9241237210016067  1.0000
  C   C13       1.0  0.1718782580274052  0.14927241662437044  0.4644297441339091  1.0000
  C   C14       1.0  0.8281231842935881  0.6492715019454068  0.03556985140194508  1.0000
  C   C15       1.0  0.8281218364796671  0.8507283116381786  0.5355686820429355  1.0000
  C   C16       1.0  0.17187690956930615  0.350727045887851  0.9644298400873339  1.0000
  C   C17       1.0  0.2357559979461782  0.9643946190645496  0.5631915774976549  1.0000
  C   C18       1.0  0.7642463928883458  0.46439129358897446  0.9368087196386199  1.0000
  C   C19       1.0  0.7642453865170818  0.035607199412993396  0.4368082765720657  1.0000
  C   C20       1.0  0.23575628250497255  0.5356072542420448  0.0631906643545861  1.0000
  C   C21       1.0  0.8983561593716087  0.12568375768563564  0.16999547501096393  1.0000
  C   C22       1.0  0.10164532960234847  0.6256865550239538  0.3300047486257256  1.0000
  C   C23       1.0  0.10164393449019826  0.8743158803626868  0.8300042164784216  1.0000
  C   C24       1.0  0.8983534736536639  0.3743152634554079  0.6699947802837444  1.0000
  C   C25       1.0  0.08358334705059889  0.1714756255246002  0.1896185376009498  1.0000
  C   C26       1.0  0.916419340360548  0.6714749330716928  0.31038375542861013  1.0000
  C   C27       1.0  0.9164206182989074  0.8285240125214058  0.8103822742851321  1.0000
  C   C28       1.0  0.08358075220854738  0.32852470497829955  0.6896184666860704  1.0000
  C   C29       1.0  0.20383892552474944  0.0939524968297505  0.15747200639401632  1.0000
  C   C30       1.0  0.7961626263261437  0.5939520360889503  0.3425288437702037  1.0000
  C   C31       1.0  0.7961624586175018  0.9060471412180743  0.842528480331822  1.0000
  C   C32       1.0  0.20383617596250753  0.4060476019615322  0.6574725831080315  1.0000
  C   C33       1.0  0.41907369386935023  0.24754841508998027  0.23072316215159813  1.0000
  C   C34       1.0  0.5809275523974333  0.7475492873259242  0.26927708502149267  1.0000
  C   C35       1.0  0.5809263999924569  0.7524512229583423  0.7692765293377876  1.0000
  C   C36       1.0  0.4190712505364829  0.2524514409387919  0.7307230765442013  1.0000
  C   C37       1.0  0.14450933325445448  0.28932350105660026  0.2441681670644655  1.0000
  C   C38       1.0  0.8554918291670643  0.7893228328629717  0.255833353489443  1.0000
  C   C39       1.0  0.8554920515319819  0.7106783174205235  0.7558310543489313  1.0000
  C   C40       1.0  0.14450697312158667  0.21067680518750362  0.7441680733887921  1.0000
  N   N1        1.0  0.3112134269479441  0.3285068022570243  0.2637307626575591  1.0000
  N   N2        1.0  0.6887928198481956  0.8285074611730892  0.23627141578472793  1.0000
  N   N3        1.0  0.6887866669138631  0.6714928357912981  0.7362689288318266  1.0000
  N   N4        1.0  0.3112124351343225  0.1714932670883229  0.763731456650561  1.0000
  N   N5        1.0  0.3716080986303466  0.1315048367788378  0.17904978026528784  1.0000
  N   N6        1.0  0.6283895079075066  0.6315089728259481  0.3209480587864562  1.0000
  N   N7        1.0  0.6283932855129919  0.8684937110539295  0.8209507064604438  1.0000
  N   N8        1.0  0.3716054241818083  0.36849502608544077  0.6790497170702068  1.0000
  N   N9        1.0  0.23004495615887063  0.079605407163335  0.402726703107227  1.0000
  N   N10       1.0  0.7699592054725384  0.579605755458985  0.0972744694463614  1.0000
  N   N11       1.0  0.769956428306557  0.9203942308840708  0.5972731509622804  1.0000
  N   N12       1.0  0.23004217899289603  0.42039388258842786  0.9027253846231459  1.0000
  N   N13       1.0  0.17121947344713817  0.0985000635979674  0.5439014369318116  1.0000
  N   N14       1.0  0.8287810645820953  0.5984975203627273  0.956099097032805  1.0000
  N   N15       1.0  0.8287806204135817  0.9015006646654201  0.45609825455768055  1.0000
  N   N16       1.0  0.17122161016487064  0.4015010274691234  0.0439015522730486  1.0000
  O   O1        1.0  0.490791061858495  0.6849798800298926  0.4894066146276259  1.0000
  O   O2        1.0  0.5092077262005787  0.18497857637409248  0.010596458582320185  1.0000
  O   O3        1.0  0.5092090313558727  0.31502084823432597  0.5105943421745138  1.0000
  O   O4        1.0  0.49079107673334477  0.8150221518906234  0.989403702983367  1.0000
  O   O5        1.0  0.35141208554047404  0.6747767371901005  0.5961408091186513  1.0000
  O   O6        1.0  0.6485831375116077  0.1747757310293068  0.9038603545701136  1.0000
  O   O7        1.0  0.6485880076749806  0.32522290085905337  0.4038601476833819  1.0000
  O   O8        1.0  0.3514169566744697  0.8252228168035315  0.09613870426284167  1.0000
  O   O9        1.0  0.8497874324103376  0.029402503195719007  0.1099099871874287  1.0000
  O   O10       1.0  0.15021166679073159  0.5294042128081388  0.3900905253497555  1.0000
  O   O11       1.0  0.1502126614514694  0.9705971348526038  0.8900897043019569  1.0000
  O   O12       1.0  0.8497845549359365  0.4705965154583964  0.6099093110556879  1.0000
  O   O13       1.0  0.8019541898803411  0.18054130417375802  0.2139806078179802  1.0000
  O   O14       1.0  0.1980458992365399  0.6805417113834408  0.2860194638333837  1.0000
  O   O15       1.0  0.19804719458400646  0.8194594240887197  0.7860192462516338  1.0000
  O   O16       1.0  0.8019516130937561  0.3194590168821847  0.7139805351521815  1.0000
