data_image0
_chemical_formula_structural       Gd2H48C54N2O20
_chemical_formula_sum              "Gd2 H48 C54 N2 O20"
_cell_length_a       10.62858046991781
_cell_length_b       11.389989826135002
_cell_length_c       11.739
_cell_angle_alpha    104.86884332957626
_cell_angle_beta     106.8982328492691
_cell_angle_gamma    95.96932427166047

_space_group_name_H-M_alt    "P 1"
_space_group_IT_number       1

loop_
  _space_group_symop_operation_xyz
  'x, y, z'

loop_
  _atom_site_type_symbol
  _atom_site_label
  _atom_site_symmetry_multiplicity
  _atom_site_fract_x
  _atom_site_fract_y
  _atom_site_fract_z
  _atom_site_occupancy
  Gd  Gd1       1.0  0.0989534928993336  0.559128871557732  0.37539712301361305  1.0000
  Gd  Gd2       1.0  0.9010480471681461  0.4408728147990217  0.6246013169513701  1.0000
  H   H1        1.0  0.0496013719207369  0.4714401719111407  0.1072343480260685  1.0000
  H   H2        1.0  0.9503986042381954  0.5285587370257616  0.8927655444209394  1.0000
  H   H3        1.0  0.9021042985379565  0.49551484721003186  0.09303887056896092  1.0000
  H   H4        1.0  0.09789567762098271  0.5044840617268633  0.906961021878054  1.0000
  H   H5        1.0  0.9258564285148835  0.9039557303679473  0.5503515000897821  1.0000
  H   H6        1.0  0.0741460948691142  0.0960459559888065  0.4496514579683435  1.0000
  H   H7        1.0  0.7622227423240276  0.148781752573008  0.521385328142074  1.0000
  H   H8        1.0  0.23777762089626012  0.8512190079771287  0.4786168309044783  1.0000
  H   H9        1.0  0.08198398119505867  0.21087375084043455  0.8881392389180647  1.0000
  H   H10       1.0  0.9180187357196131  0.7891288613229362  0.11186229685588238  1.0000
  H   H11       1.0  0.1995750042603888  0.073551632587133  0.9983139901493132  1.0000
  H   H12       1.0  0.8004263422764168  0.9264491279630035  0.001686723961164143  1.0000
  H   H13       1.0  0.2888978956695283  0.7560136843976153  0.7658339004284329  1.0000
  H   H14       1.0  0.7111003073870563  0.2439861503459042  0.23416575588392158  1.0000
  H   H15       1.0  0.4323630109930789  0.6473202841979884  0.8923099638706233  1.0000
  H   H16       1.0  0.5676349985328244  0.352678624738914  0.10768941100327115  1.0000
  H   H17       1.0  0.2664447126381901  0.7701766740423821  0.18588477509903356  1.0000
  H   H18       1.0  0.7335542802042312  0.2298222348945202  0.8141157104227332  1.0000
  H   H19       1.0  0.1298849160210054  0.887391198355651  0.06333738561554011  1.0000
  H   H20       1.0  0.8701134805662535  0.11260956219448558  0.9366625521352603  1.0000
  H   H21       1.0  0.6227269365087125  0.7411443043031909  0.09067712251920311  1.0000
  H   H22       1.0  0.3772714600785463  0.2588564562469458  0.9093202596476501  1.0000
  H   H23       1.0  0.7992172458128836  0.6671732813180213  0.23103036937857271  1.0000
  H   H24       1.0  0.2007831174074113  0.33282747923211525  0.7689675303614009  1.0000
  H   H25       1.0  0.4965903945290507  0.4782744763664724  0.3318812398152389  1.0000
  H   H26       1.0  0.5034107584770737  0.5217253583770471  0.6681174891341541  1.0000
  H   H27       1.0  0.4413991801197525  0.6210838504456646  0.4869052481860691  1.0000
  H   H28       1.0  0.5585994256613205  0.3789132068779963  0.5130955263201074  1.0000
  H   H29       1.0  0.7287648596097114  0.815998546802085  0.5909197433344316  1.0000
  H   H30       1.0  0.27123413323271  0.1840003621348103  0.40908074218733503  1.0000
  H   H31       1.0  0.6499436998744557  0.6671158813076943  0.5799102457456655  1.0000
  H   H32       1.0  0.3500550994372915  0.3328821018225838  0.42008995833765533  1.0000
  H   H33       1.0  0.7455209620038517  0.8947541383899561  0.8142258307187192  1.0000
  H   H34       1.0  0.2544780308385697  0.10524477054694607  0.18577465480305477  1.0000
  H   H35       1.0  0.8187942117540317  0.7606556787811201  0.7879788210029162  1.0000
  H   H36       1.0  0.1812059579355818  0.2393441559623994  0.21202220474387448  1.0000
  H   H37       1.0  0.6575338448934005  0.7486822217883287  0.8058091835046  1.0000
  H   H38       1.0  0.342466324796213  0.2513176129551908  0.19419269410349926  1.0000
  H   H39       1.0  0.45770754285376103  0.9539270683902854  0.5496050115533748  1.0000
  H   H40       1.0  0.5422908693966306  0.0460690631267582  0.4503912222077631  1.0000
  H   H41       1.0  0.6210955025104353  0.9873209131076804  0.6594004766295214  1.0000
  H   H42       1.0  0.37890329680131163  0.0126770700226047  0.3405963200085296  1.0000
  H   H43       1.0  0.3578764880411995  0.9104067508833537  0.7067648176362836  1.0000
  H   H44       1.0  0.642121521484711  0.0895921580535486  0.29323370537629506  1.0000
  H   H45       1.0  0.45448036428764743  0.062385478965381894  0.7597185719287937  1.0000
  H   H46       1.0  0.545518628554774  0.9376134299715133  0.24027935800902603  1.0000
  H   H47       1.0  0.5206276169154336  0.945961428247557  0.8206677989440507  1.0000
  H   H48       1.0  0.4793735360906979  0.0540384064959625  0.17933093000534228  1.0000
  C   C1        1.0  0.03545582889243089  0.7306447314465245  0.6364829539582573  1.0000
  C   C2        1.0  0.9645457111750559  0.2693569549102293  0.3635197453133117  1.0000
  C   C3        1.0  0.05301696147807886  0.8641247522344172  0.7101530532010473  1.0000
  C   C4        1.0  0.9469834017422157  0.1358760083157193  0.2898482539841964  1.0000
  C   C5        1.0  0.9858312499204801  0.9408083886108187  0.6489382405773654  1.0000
  C   C6        1.0  0.014174416943738798  0.059194223552552196  0.3510640715562587  1.0000
  C   C7        1.0  0.994128912325536  0.0647916503660113  0.7129048210163588  1.0000
  C   C8        1.0  0.005871644425425893  0.9352100359907495  0.28709676760733766  1.0000
  C   C9        1.0  0.07345487189684968  0.1135261107464771  0.8391501121741171  1.0000
  C   C10       1.0  0.9265445080069271  0.8864746498036595  0.16085263994720125  1.0000
  C   C11       1.0  0.1382109055653515  0.0362481065212066  0.9003729723141092  1.0000
  C   C12       1.0  0.8617894576549361  0.96375265402893  0.09962833487113436  1.0000
  C   C13       1.0  0.1287742231487812  0.9106215380187662  0.8383016203379228  1.0000
  C   C14       1.0  0.8712251567549956  0.08937922253137029  0.16169942806076418  1.0000
  C   C15       1.0  0.9180482216401203  0.1447424582979338  0.6506303484732499  1.0000
  C   C16       1.0  0.08195273783533709  0.8552564506389686  0.3493698027603145  1.0000
  C   C17       1.0  0.2024753461835758  0.8333851950913171  0.9073085391478486  1.0000
  C   C18       1.0  0.7975238401895198  0.1666146396522024  0.09269222781237117  1.0000
  C   C19       1.0  0.2851112917276097  0.7614333563403831  0.8587116489368469  1.0000
  C   C20       1.0  0.7148871048596489  0.2385674042097534  0.14128914067527626  1.0000
  C   C21       1.0  0.3657611735765443  0.6998736968784058  0.9297286920196015  1.0000
  C   C22       1.0  0.6342372230107217  0.3001270636717308  0.07027124573120604  1.0000
  C   C23       1.0  0.3617639159202782  0.7028603490286257  0.048717530065403  1.0000
  C   C24       1.0  0.6382342871363065  0.2971394857148937  0.9512821262469515  1.0000
  C   C25       1.0  0.2731295303760177  0.768771299595997  0.09450005460816159  1.0000
  C   C26       1.0  0.7268696559970849  0.2312285351475225  0.9055007123520651  1.0000
  C   C27       1.0  0.1967759334377988  0.8350451663576948  0.025840245881319446  1.0000
  C   C28       1.0  0.8032222696187858  0.1649546683858176  0.9741594104310279  1.0000
  C   C29       1.0  0.4585263919760294  0.6475285906870738  0.12714589299928752  1.0000
  C   C30       1.0  0.5414727943970732  0.35247124405644564  0.8728540220996237  1.0000
  C   C31       1.0  0.5948520369708206  0.6808261515161788  0.1416897389082195  1.0000
  C   C32       1.0  0.4051475364636374  0.3191755348405749  0.8583090353449664  1.0000
  C   C33       1.0  0.6941490408133788  0.6415562121932581  0.22152324812719112  1.0000
  C   C34       1.0  0.3058503390903979  0.35844454835687856  0.7784743928262186  1.0000
  C   C35       1.0  0.6593305423274246  0.5703135413118403  0.2928475182000412  1.0000
  C   C36       1.0  0.340671787525892  0.42968721923829617  0.7071508991130456  1.0000
  C   C37       1.0  0.5241928469873258  0.5359392673858068  0.2785816456529346  1.0000
  C   C38       1.0  0.4758084995494798  0.4640614931643299  0.7214182165962342  1.0000
  C   C39       1.0  0.4229374442260436  0.5702765090471189  0.19418152821690873  1.0000
  C   C40       1.0  0.5770648856272729  0.4297242515030177  0.8058194446801252  1.0000
  C   C41       1.0  0.2797524033647605  0.5189544191688639  0.17693277195586174  1.0000
  C   C42       1.0  0.7202497329578817  0.4810454155746554  0.823068771364035  1.0000
  C   C43       1.0  0.7656782572031774  0.5296669275477086  0.3809525202091351  1.0000
  C   C44       1.0  0.23432092916991817  0.4703329071958109  0.6190456911671376  1.0000
  C   C45       1.0  0.4240718460887151  0.7159142223448214  0.5142827185494383  1.0000
  C   C46       1.0  0.5759261634371953  0.28408468659208097  0.4857166563244561  1.0000
  C   C47       1.0  0.6624358212918579  0.7663086539916648  0.627070115218423  1.0000
  C   C48       1.0  0.3375631715505634  0.2336902549452304  0.37293037030335086  1.0000
  C   C49       1.0  0.7243558315313265  0.7946198203753027  0.7675654391290294  1.0000
  C   C50       1.0  0.275643354841776  0.2053800143682167  0.23243532783119752  1.0000
  C   C51       1.0  0.5199646573589476  0.9321308031787154  0.6312247725202765  1.0000
  C   C52       1.0  0.4800341419527996  0.0678671799515698  0.36877287597909  1.0000
  C   C53       1.0  0.4598809149374786  0.9637359895098001  0.7359976822869355  1.0000
  C   C54       1.0  0.5401178843742684  0.0362619936204851  0.26399996621243094  1.0000
  N   N1        1.0  0.5308608524863699  0.8014550506372515  0.5896633142051327  1.0000
  N   N2        1.0  0.46913873661121397  0.19854200668640937  0.410336015364969  1.0000
  O   O1        1.0  0.982348407810221  0.48261928682554606  0.15182059386445698  1.0000
  O   O2        1.0  0.0176517618793923  0.5173805479179734  0.8481804318823265  1.0000
  O   O3        1.0  0.0958415521580775  0.709064179176977  0.5571033903366852  1.0000
  O   O4        1.0  0.9041601814400835  0.290938432986394  0.4428961829280667  1.0000
  O   O5        1.0  0.9588536843633904  0.6529575206960203  0.6583297737760178  1.0000
  O   O6        1.0  0.041148451959252  0.34704231404749203  0.3416709176825705  1.0000
  O   O7        1.0  0.8144333115321203  0.0846733474912114  0.5491192253332073  1.0000
  O   O8        1.0  0.1855670516881673  0.9153274130589253  0.45088208185203626  1.0000
  O   O9        1.0  0.9481096484201859  0.2598035564173387  0.693481374881074  1.0000
  O   O10       1.0  0.0518920851779683  0.7401990557460394  0.3065199021063165  1.0000
  O   O11       1.0  0.192682299620536  0.4827979675028544  0.06915833623698119  1.0000
  O   O12       1.0  0.8073202237634617  0.5172037188539065  0.9308454736824671  1.0000
  O   O13       1.0  0.2564793745010192  0.5123552695945506  0.2766884350820504  1.0000
  O   O14       1.0  0.7435237451381412  0.48764456514896887  0.7233142188857258  1.0000
  O   O15       1.0  0.7354011233050172  0.4878871264829314  0.4623571195210586  1.0000
  O   O16       1.0  0.2646000297011142  0.5121127082605881  0.5376407575670186  1.0000
  O   O17       1.0  0.8814080754820991  0.539561022876093  0.37019590593376256  1.0000
  O   O18       1.0  0.1185942543712173  0.4604397376740437  0.6298025113793243  1.0000
  O   O19       1.0  0.3076443945252976  0.7367865325514629  0.47346742210532256  1.0000
  O   O20       1.0  0.6923559686949973  0.2632142279986738  0.5265313294959669  1.0000
