data_image0
_chemical_formula_structural       Ag4H48C64N12O12
_chemical_formula_sum              "Ag4 H48 C64 N12 O12"
_cell_length_a       9.342967220575892
_cell_length_b       10.931254542001579
_cell_length_c       14.219520772079743
_cell_angle_alpha    90.00001354086848
_cell_angle_beta     100.33233527583582
_cell_angle_gamma    89.99993842490504

_space_group_name_H-M_alt    "P 1"
_space_group_IT_number       1

loop_
  _space_group_symop_operation_xyz
  'x, y, z'

loop_
  _atom_site_type_symbol
  _atom_site_label
  _atom_site_symmetry_multiplicity
  _atom_site_fract_x
  _atom_site_fract_y
  _atom_site_fract_z
  _atom_site_occupancy
  Ag  Ag1       1.0  0.08124307082034929  0.3505929947393085  0.9953270844650959  1.0000
  Ag  Ag2       1.0  0.4187600355037445  0.850593928640464  0.5046739607036628  1.0000
  Ag  Ag3       1.0  0.9187585820673262  0.6494062842083392  0.004673813972679861  1.0000
  Ag  Ag4       1.0  0.5812427066065737  0.1494053503065942  0.4953263636504346  1.0000
  H   H1        1.0  0.20278742260957466  0.6786036866960218  0.38692760503832346  1.0000
  H   H2        1.0  0.2972158990424774  0.1786024367167869  0.11307422756785  1.0000
  H   H3        1.0  0.797214230276964  0.3213974218677933  0.6130732933994879  1.0000
  H   H4        1.0  0.7027846658796548  0.8213968422313441  0.8869265418436426  1.0000
  H   H5        1.0  0.054287361007048694  0.865953705690906  0.3871144728120228  1.0000
  H   H6        1.0  0.4457146439756983  0.3659523192075225  0.11288442478614509  1.0000
  H   H7        1.0  0.9457132051716072  0.1340464880652021  0.6128855934895228  1.0000
  H   H8        1.0  0.5542859247177176  0.6340469597402816  0.8871142352954563  1.0000
  H   H9        1.0  0.9476101675574425  0.91903871578139  0.5321387930691941  1.0000
  H   H10       1.0  0.5523886080427188  0.41903688513024673  0.967860342429745  1.0000
  H   H11       1.0  0.052389310655669895  0.0809614779751868  0.4678611442060685  1.0000
  H   H12       1.0  0.4476108714280542  0.5809623938181474  0.032138891735542095  1.0000
  H   H13       1.0  0.9967346585927501  0.7875304793210562  0.6745797584148505  1.0000
  H   H14       1.0  0.5032631931070028  0.2875295647806198  0.8254192435246067  1.0000
  H   H15       1.0  0.0032648196209308  0.2124687996274446  0.3254201788604049  1.0000
  H   H16       1.0  0.49673519965475776  0.7124706289762274  0.17457915850444997  1.0000
  H   H17       1.0  0.0670547575606619  0.2964491362602645  0.7752473313528936  1.0000
  H   H18       1.0  0.4329408018104957  0.7964492100475268  0.7247521056555257  1.0000
  H   H19       1.0  0.9329436326874827  0.7035501426887123  0.22475247689607866  1.0000
  H   H20       1.0  0.5670565004709545  0.20355189851809996  0.2752475735671993  1.0000
  H   H21       1.0  0.07112852981246219  0.4124980054151379  0.6257239052730981  1.0000
  H   H22       1.0  0.42887014867737605  0.9124962993425286  0.8742759228144549  1.0000
  H   H23       1.0  0.9288709496571811  0.5875031031494232  0.3742753288922244  1.0000
  H   H24       1.0  0.5711293307928357  0.0875038944139419  0.12572331135084613  1.0000
  H   H25       1.0  0.21713556230692888  0.7269806247471422  0.8006349351897839  1.0000
  H   H26       1.0  0.28286443307925413  0.22698032931681664  0.6993664217490334  1.0000
  H   H27       1.0  0.7828660918378387  0.2730186542003992  0.1993652601380305  1.0000
  H   H28       1.0  0.7171328692033399  0.7730189496326433  0.30063325747365605  1.0000
  H   H29       1.0  0.2160108274357029  0.5953845898545111  0.9434544099743292  1.0000
  H   H30       1.0  0.28398824541673656  0.0953851642476522  0.5565461102920111  1.0000
  H   H31       1.0  0.7839908267090719  0.40461468909303033  0.05654578535348521  1.0000
  H   H32       1.0  0.7160090581229569  0.9046141147016938  0.44345286582071003  1.0000
  H   H33       1.0  0.5570727088585771  0.3483679096341418  0.6492832149053811  1.0000
  H   H34       1.0  0.9429283283246122  0.8483670982035464  0.8507175824299793  1.0000
  H   H35       1.0  0.4429278573195107  0.6516331989300426  0.3507168513961858  1.0000
  H   H36       1.0  0.05707223659752  0.15163218074457768  0.1492831869815205  1.0000
  H   H37       1.0  0.4182914534099708  0.5370352501323622  0.6646154210767036  1.0000
  H   H38       1.0  0.08170878145980957  0.0370360961973546  0.8353845230945964  1.0000
  H   H39       1.0  0.5817091152828837  0.46296494362352547  0.3353832390049121  1.0000
  H   H40       1.0  0.918291783461747  0.9629640975588599  0.16461624631691757  1.0000
  H   H41       1.0  0.1644414594997201  0.45899396111079926  0.38523661874923215  1.0000
  H   H42       1.0  0.33556042563657934  0.9589940905292735  0.11476439138605339  1.0000
  H   H43       1.0  0.8355601959021469  0.5410053178366355  0.6147628734686208  1.0000
  H   H44       1.0  0.6644412272505278  0.04100610322645789  0.8852365070517436  1.0000
  H   H45       1.0  0.30678535840024074  0.2695307380145593  0.3833569046419996  1.0000
  H   H46       1.0  0.1932156751395979  0.7695300839940911  0.11664396993599978  1.0000
  H   H47       1.0  0.6932173849666013  0.7304694557404758  0.6166427166021435  1.0000
  H   H48       1.0  0.8067838030735145  0.2304701097624928  0.8833559673392698  1.0000
  C   C1        1.0  0.1299502532010308  0.6587268050755525  0.6138700752931713  1.0000
  C   C2        1.0  0.37004982733771646  0.1587246573955596  0.88613127929284  1.0000
  C   C3        1.0  0.8700513996860763  0.34127338868017887  0.38613082314462577  1.0000
  C   C4        1.0  0.629948562910421  0.8412746215534241  0.11386852895612516  1.0000
  C   C5        1.0  0.18687747550993813  0.6260333550155508  0.5314839229391595  1.0000
  C   C6        1.0  0.31312264707207055  0.1260331146118503  0.9685167274099413  1.0000
  C   C7        1.0  0.8131230894116186  0.37396683874065667  0.4685168464723546  1.0000
  C   C8        1.0  0.6868768323981341  0.8739670791446201  0.03148250675535987  1.0000
  C   C9        1.0  0.1594946761635754  0.7031150841586963  0.4507971215212763  1.0000
  C   C10       1.0  0.3405053535269572  0.20311285993850703  0.049202918631031885  1.0000
  C   C11       1.0  0.8405058912716044  0.2968860244053744  0.5492022416703151  1.0000
  C   C12       1.0  0.6594941246867235  0.7968864190099934  0.9507970186442165  1.0000
  C   C13       1.0  0.0743358929142772  0.8083098194024387  0.450654544523708  1.0000
  C   C14       1.0  0.42566618272614676  0.30830843178647876  0.04934505419738849  1.0000
  C   C15       1.0  0.9256668491954725  0.19169037435270297  0.5493457798304036  1.0000
  C   C16       1.0  0.5743332967446335  0.6916908471619153  0.9506541799678985  1.0000
  C   C17       1.0  0.016756283593387905  0.8389906917491673  0.5315272724705551  1.0000
  C   C18       1.0  0.4832446625322221  0.33899029501865385  0.9684728111357117  1.0000
  C   C19       1.0  0.9832453680371886  0.16100858719858727  0.46847432907718906  1.0000
  C   C20       1.0  0.5167548181950821  0.66100989873771  0.031525719919628194  1.0000
  C   C21       1.0  0.0458729496139156  0.7654181656731253  0.6126145033022894  1.0000
  C   C22       1.0  0.454125911111511  0.2654159411269319  0.8873860228252326  1.0000
  C   C23       1.0  0.9541265273415288  0.23458294289164874  0.38738613708296293  1.0000
  C   C24       1.0  0.5458724803931504  0.7345842526300214  0.1126130823137856  1.0000
  C   C25       1.0  0.10328552676200792  0.39146749108669343  0.778053889120244  1.0000
  C   C26       1.0  0.396712091255857  0.8914666824911919  0.7219451061061336  1.0000
  C   C27       1.0  0.8967139514511043  0.6085327026698905  0.22194604815502564  1.0000
  C   C28       1.0  0.6032863002488115  0.1085335112657546  0.2780539990328847  1.0000
  C   C29       1.0  0.10511809025098269  0.4568149631196119  0.6946241883029953  1.0000
  C   C30       1.0  0.39488053294977726  0.956814181882379  0.8053756413122173  1.0000
  C   C31       1.0  0.8948824759271049  0.5431861454445724  0.3053758779985642  1.0000
  C   C32       1.0  0.6051178585548841  0.0431860118745746  0.194623463826801  1.0000
  C   C33       1.0  0.14408183318030152  0.5809196400760684  0.7001768874195804  1.0000
  C   C34       1.0  0.3559161697531934  0.08091930843743002  0.7998235033218463  1.0000
  C   C35       1.0  0.8559187329989301  0.419079638871949  0.299823178881951  1.0000
  C   C36       1.0  0.6440811325288323  0.9190808853201133  0.2001761759008573  1.0000
  C   C37       1.0  0.1857922038052919  0.6311343653971235  0.7915624717645284  1.0000
  C   C38       1.0  0.3142057364812416  0.1311349587683353  0.7084379207078655  1.0000
  C   C39       1.0  0.8142094490829521  0.3688639987424409  0.20843842667324  1.0000
  C   C40       1.0  0.6857904790923328  0.8688652349895776  0.2915609263785939  1.0000
  C   C41       1.0  0.1846512442993244  0.5584977017306728  0.8716162673096335  1.0000
  C   C42       1.0  0.3153467866065327  0.0584982694176261  0.6283841226589004  1.0000
  C   C43       1.0  0.8153504098454504  0.44150157721686173  0.12838392801818088  1.0000
  C   C44       1.0  0.6846505156760615  0.9415010095318336  0.3716155565637891  1.0000
  C   C45       1.0  0.46705436131218636  0.3743393437731229  0.5929941914411785  1.0000
  C   C46       1.0  0.03294545149088181  0.8743389263703065  0.9070064674672693  1.0000
  C   C47       1.0  0.5329472928320128  0.6256608499825019  0.40700600388665004  1.0000
  C   C48       1.0  0.9670540267222305  0.12566126738627753  0.09299346980799322  1.0000
  C   C49       1.0  0.3883652818849086  0.48034002324332187  0.6011613364566344  1.0000
  C   C50       1.0  0.1116354866399405  0.9803404458326596  0.8988394551320624  1.0000
  C   C51       1.0  0.6116352842943229  0.5196592557047026  0.39883872984489693  1.0000
  C   C52       1.0  0.8883650795387155  0.019659747923441297  0.10116061116949025  1.0000
  C   C53       1.0  0.27460803167429043  0.5140498271281118  0.5271641032780252  1.0000
  C   C54       1.0  0.2253922293578441  0.014049668663588498  0.9728372463208641  1.0000
  C   C55       1.0  0.7253925345049339  0.48594945181990573  0.4728359630235062  1.0000
  C   C56       1.0  0.7746083355637198  0.9859505250926192  0.027163523090649712  1.0000
  C   C57       1.0  0.24765020734774618  0.4373907395052256  0.4468160235725662  1.0000
  C   C58       1.0  0.2523506167739313  0.9373918412366748  0.05318485679177339  1.0000
  C   C59       1.0  0.7523503600885775  0.5626085394426851  0.5531833396190038  1.0000
  C   C60       1.0  0.7476510361131758  0.06260835251905657  0.9468160416460235  1.0000
  C   C61       1.0  0.32912472375995344  0.33156753239581593  0.44431976416077384  1.0000
  C   C62       1.0  0.17087623238351313  0.831568709756901  0.055681112555731695  1.0000
  C   C63       1.0  0.6708758424187025  0.668432661360285  0.5556803021407717  1.0000
  C   C64       1.0  0.8291254205030255  0.16843239880691388  0.9443197858820793  1.0000
  N   N1        1.0  0.1421056873169206  0.4407161798358742  0.8657660766871799  1.0000
  N   N2        1.0  0.3578929547099676  0.9407172095328845  0.6342344554830887  1.0000
  N   N3        1.0  0.8578948788623036  0.5592830991121431  0.1342339896143514  1.0000
  N   N4        1.0  0.6421054342799337  0.0592838990323656  0.3657660558758736  1.0000
  N   N5        1.0  0.4377646693690096  0.2999041562185666  0.5162206127854319  1.0000
  N   N6        1.0  0.06223523503948769  0.7999046503379713  0.9837807466671507  1.0000
  N   N7        1.0  0.562236983518666  0.700095122729081  0.4837802856523509  1.0000
  N   N8        1.0  0.9377642419165255  0.20009554341871902  0.016219893718080365  1.0000
  N   N9        1.0  0.2143411962331143  0.49953728558595856  0.17739673806508446  1.0000
  N   N10       1.0  0.2856606408372572  0.9995366100066289  0.32260286724782355  1.0000
  N   N11       1.0  0.7856604591681844  0.5004629081695595  0.8226027541527754  1.0000
  N   N12       1.0  0.7143399253419743  0.00046266894138819993  0.6773971990537146  1.0000
  O   O1        1.0  0.1925345227567306  0.5234137726122652  0.08687367951052488  1.0000
  O   O2        1.0  0.30746682034457257  0.023414435168057007  0.4131257803636714  1.0000
  O   O3        1.0  0.8074660446795933  0.4765855063356452  0.9131256836810451  1.0000
  O   O4        1.0  0.6925337458346591  0.9765848437799605  0.5868742859378598  1.0000
  O   O5        1.0  0.18579596844354276  0.39433711799404847  0.20524316764365838  1.0000
  O   O6        1.0  0.3142059986148737  0.8943354928088921  0.2947571371528426  1.0000
  O   O7        1.0  0.814206772408532  0.6056639905692833  0.7947578598204358  1.0000
  O   O8        1.0  0.6857945675643577  0.10566378613913227  0.7052429291486887  1.0000
  O   O9        1.0  0.2637269075341279  0.5833391809288314  0.23513161272747848  1.0000
  O   O10       1.0  0.236273272841629  0.08333803365779602  0.2648677201860892  1.0000
  O   O11       1.0  0.7362747491237016  0.41666192763465654  0.7648671763804342  1.0000
  O   O12       1.0  0.7637262053714836  0.916662160098788  0.7351322170891734  1.0000
