data_image0
_chemical_formula_structural       CdH24C36N6O6F8
_chemical_formula_sum              "Cd1 H24 C36 N6 O6 F8"
_cell_length_a       10.163722787041744
_cell_length_b       10.357119375386002
_cell_length_c       10.363278194344648
_cell_angle_alpha    71.95837645388843
_cell_angle_beta     77.48344135999537
_cell_angle_gamma    78.15226487523508

_space_group_name_H-M_alt    "P 1"
_space_group_IT_number       1

loop_
  _space_group_symop_operation_xyz
  'x, y, z'

loop_
  _atom_site_type_symbol
  _atom_site_label
  _atom_site_symmetry_multiplicity
  _atom_site_fract_x
  _atom_site_fract_y
  _atom_site_fract_z
  _atom_site_occupancy
  Cd  Cd1       1.0  4.033252658101126e-06  0.4999932636845871  0.5000010622501847  1.0000
  H   H1        1.0  0.7575487204103268  0.5363259460983015  0.7701047414553415  1.0000
  H   H2        1.0  0.24245172103529472  0.4636688150069118  0.2299069628654778  1.0000
  H   H3        1.0  0.13922973674137745  0.6577829719549727  0.6370432053466715  1.0000
  H   H4        1.0  0.8607688564931308  0.34222023982145094  0.362950930045983  1.0000
  H   H5        1.0  0.7246178056106345  0.6132340402153247  0.9827604898132236  1.0000
  H   H6        1.0  0.2753846187729323  0.3867678538670347  0.017250670621365257  1.0000
  H   H7        1.0  0.1198395501688694  0.7462135620183119  0.8372440630100115  1.0000
  H   H8        1.0  0.8801600320522381  0.25380511079257667  0.16273955343167054  1.0000
  H   H9        1.0  0.7964587321004044  0.744351956418889  0.10544170156238418  1.0000
  H   H10       1.0  0.2035455537066255  0.2556603789283116  0.8945525233478622  1.0000
  H   H11       1.0  0.9597866529915678  0.6576869272067754  0.12998647180634043  1.0000
  H   H12       1.0  0.04021721755815118  0.3423213239719303  0.8700080662318258  1.0000
  H   H13       1.0  0.07722191648058899  0.1823095778661923  0.6226485587245919  1.0000
  H   H14       1.0  0.9227806122191993  0.8176708656611495  0.3773630852057508  1.0000
  H   H15       1.0  0.6957042303809758  0.4181108392476818  0.608303130027032  1.0000
  H   H16       1.0  0.30430723002480425  0.581878858802362  0.39169732465657603  1.0000
  H   H17       1.0  0.9834951092622362  0.9681662969652721  0.6541072036516767  1.0000
  H   H18       1.0  0.016501571725783  0.0318203928709551  0.3459008352415083  1.0000
  H   H19       1.0  0.5845353295408131  0.2139697920931383  0.6409108409518183  1.0000
  H   H20       1.0  0.4154731854743048  0.7860271674611707  0.35908418773007617  1.0000
  H   H21       1.0  0.797126800874274  0.8663787254806009  0.6383801516732035  1.0000
  H   H22       1.0  0.2028629103299693  0.1336164010414933  0.3616151677062049  1.0000
  H   H23       1.0  0.6738501669970136  0.9049292700947407  0.7748654328076084  1.0000
  H   H24       1.0  0.3261461799080578  0.0950605712654777  0.2251369191303212  1.0000
  C   C1        1.0  0.8360862708398573  0.5815562336825336  0.7903969559456956  1.0000
  C   C2        1.0  0.1639199089772703  0.41844164157433283  0.20960694010395295  1.0000
  C   C3        1.0  0.047641411932595246  0.6513510650190637  0.714723065341218  1.0000
  C   C4        1.0  0.9523558035918995  0.348662457070276  0.28526541329141963  1.0000
  C   C5        1.0  0.818170339959188  0.6255936715618944  0.9080803607115444  1.0000
  C   C6        1.0  0.181830135714506  0.37440942324795407  0.09192020403105518  1.0000
  C   C7        1.0  0.03671461566646167  0.6995306513207071  0.8281208335012453  1.0000
  C   C8        1.0  0.9632787163038118  0.3004807519137956  0.17187577010446375  1.0000
  C   C9        1.0  0.9193759365105905  0.6874498118077883  0.928444936732639  1.0000
  C   C10       1.0  0.08062122491742227  0.3125708462153157  0.07154435388773808  1.0000
  C   C11       1.0  0.9032844861782365  0.7362226138021983  0.05478932839939418  1.0000
  C   C12       1.0  0.09671715294570049  0.2637805864136881  0.945203259758813  1.0000
  C   C13       1.0  0.9536581682376453  0.8709752442978813  0.026316522083241943  1.0000
  C   C14       1.0  0.0463500138418311  0.1290297781873804  0.9736858569271973  1.0000
  C   C15       1.0  0.8669873271452533  0.9957763828422374  0.9940247765176552  1.0000
  C   C16       1.0  0.1330196130390462  0.004223565825036199  0.005976434405326399  1.0000
  C   C17       1.0  0.9119485196130697  0.12088235491844299  0.9693860972463353  1.0000
  C   C18       1.0  0.08805402459367427  0.8791268033588867  0.030617116799099564  1.0000
  C   C19       1.0  0.9685733060472188  0.18457413589455035  0.6277214343382624  1.0000
  C   C20       1.0  0.03143261365185167  0.8154042853141522  0.3722862903588862  1.0000
  C   C21       1.0  0.7552816924131278  0.31567974363049  0.6205642613794495  1.0000
  C   C22       1.0  0.2447295001804051  0.6843120221826313  0.3794346726909623  1.0000
  C   C23       1.0  0.9156210118876444  0.06558237036276889  0.6455383723858077  1.0000
  C   C24       1.0  0.08437634829318338  0.9343991571913792  0.35447298146388556  1.0000
  C   C25       1.0  0.6943932496047793  0.20145129370401796  0.6384583163242894  1.0000
  C   C26       1.0  0.30561045417547206  0.7985507912918594  0.361539028607993  1.0000
  C   C27       1.0  0.7759392205943315  0.07305606022598  0.6495196240184883  1.0000
  C   C28       1.0  0.224060474240467  0.9269400355152446  0.3504715617199707  1.0000
  C   C29       1.0  0.7158430165593116  0.946097871079175  0.6657977616982151  1.0000
  C   C30       1.0  0.2841495003440073  0.0538981993820755  0.3342006024815802  1.0000
  C   C31       1.0  0.6050330973225044  0.9723868612957746  0.5813915193976413  1.0000
  C   C32       1.0  0.3949544962762701  0.0276214277870608  0.4186128924792385  1.0000
  C   C33       1.0  0.630035983837587  0.0200093108512291  0.4382677914075828  1.0000
  C   C34       1.0  0.3699554469131101  0.9799867112089587  0.5617346567446474  1.0000
  C   C35       1.0  0.5286477935880854  0.047045070274471405  0.3585933166418229  1.0000
  C   C36       1.0  0.47134189501831975  0.9529632586054931  0.6414068199021301  1.0000
  N   N1        1.0  0.94885203506184  0.5944256458680427  0.6943051471728623  1.0000
  N   N2        1.0  0.05114817279960701  0.40557951670487574  0.30569389695653376  1.0000
  N   N3        1.0  0.8905518679549262  0.30827641810811474  0.6137760085275519  1.0000
  N   N4        1.0  0.10945888618014987  0.6917040705977655  0.3862263192949982  1.0000
  N   N5        1.0  0.2978366794594224  0.3281178981731117  0.5837447285093732  1.0000
  N   N6        1.0  0.7021634582545816  0.6718811694732166  0.41625225674919625  1.0000
  O   O1        1.0  0.17924649359775913  0.39118904398318927  0.6246443510532415  1.0000
  O   O2        1.0  0.8207572378043867  0.6088119287492972  0.37535910652706406  1.0000
  O   O3        1.0  0.3405344879997116  0.3449831697383559  0.4571196592622115  1.0000
  O   O4        1.0  0.6594473848013465  0.6549967127404842  0.5428768139087197  1.0000
  O   O5        1.0  0.36557610337637664  0.25178144794538326  0.6742006620787038  1.0000
  O   O6        1.0  0.6344426167385463  0.7482359063737365  0.32578835062071937  1.0000
  F   F1        1.0  0.7361334922894683  0.9957273822240394  0.9843712804151609  1.0000
  F   F2        1.0  0.2638698167051885  0.004275544261560101  0.01563844177584882  1.0000
  F   F3        1.0  0.8217552733255572  0.23845155982415633  0.9390217255870753  1.0000
  F   F4        1.0  0.17824413939665362  0.7615586795233753  0.060979842503741145  1.0000
  F   F5        1.0  0.7592104590848406  0.040428462444388906  0.37304648038566773  1.0000
  F   F6        1.0  0.24078320309163814  0.9595726105786184  0.6269579176465285  1.0000
  F   F7        1.0  0.5620020888103455  0.0923028530438756  0.21980413340949675  1.0000
  F   F8        1.0  0.43798502326040983  0.9077024356313643  0.7801964252532447  1.0000
