data_image0
_chemical_formula_structural       Zn4H36C20N4O20
_chemical_formula_sum              "Zn4 H36 C20 N4 O20"
_cell_length_a       6.686010522083233
_cell_length_b       7.614077549414827
_cell_length_c       14.062413087517456
_cell_angle_alpha    96.48739233778598
_cell_angle_beta     90.00037504475453
_cell_angle_gamma    89.99952614589499

_space_group_name_H-M_alt    "P 1"
_space_group_IT_number       1

loop_
  _space_group_symop_operation_xyz
  'x, y, z'

loop_
  _atom_site_type_symbol
  _atom_site_label
  _atom_site_symmetry_multiplicity
  _atom_site_fract_x
  _atom_site_fract_y
  _atom_site_fract_z
  _atom_site_occupancy
  Zn  Zn1       1.0  0.8684448058948391  0.5199300175385843  0.8207267851247052  1.0000
  Zn  Zn2       1.0  0.3684454299999089  0.9800772483646154  0.6792728215589533  1.0000
  Zn  Zn3       1.0  0.1315527361423392  0.4800698420476762  0.1792738749607281  1.0000
  Zn  Zn4       1.0  0.6315536076869038  0.019923930270103092  0.3207272066209654  1.0000
  H   H1        1.0  0.7779597867074629  0.579342070457734  0.9973710018796352  1.0000
  H   H2        1.0  0.2779615446993304  0.9206552351643746  0.5026312801445343  1.0000
  H   H3        1.0  0.22203775531252026  0.4206617545819282  0.0026298963323298954  1.0000
  H   H4        1.0  0.7220404843251202  0.07934197800702239  0.4973685099129099  1.0000
  H   H5        1.0  0.8387950271194669  0.4673227357892029  0.5937378736297346  1.0000
  H   H6        1.0  0.3387955326283745  0.03267749732093249  0.9062640760518333  1.0000
  H   H7        1.0  0.16120401058192607  0.5326784511386505  0.4062642883993703  1.0000
  H   H8        1.0  0.6612064963797549  0.9673223567216807  0.09373516147357457  1.0000
  H   H9        1.0  0.6027407213083149  0.43060844034776835  0.5339991654275238  1.0000
  H   H10       1.0  0.10274767986523159  0.06938544207222458  0.9660052224799783  1.0000
  H   H11       1.0  0.3972583163670364  0.5693953819225469  0.4660010215034163  1.0000
  H   H12       1.0  0.8972543491592191  0.9306117710991726  0.033994567577472885  1.0000
  H   H13       1.0  0.7547439738549712  0.2699828626684279  0.9758043265537282  1.0000
  H   H14       1.0  0.2547433505706493  0.23001526797207805  0.5241929681017083  1.0000
  H   H15       1.0  0.2452550638406947  0.7300196460772239  0.024197914850887486  1.0000
  H   H16       1.0  0.7452586784383469  0.7699832614883628  0.47580547876513174  1.0000
  H   H17       1.0  0.5351490966632682  0.2853348189161976  0.9065862641793814  1.0000
  H   H18       1.0  0.03514956801878811  0.21466873436829548  0.5934106714200807  1.0000
  H   H19       1.0  0.4648514366886261  0.7146663624779348  0.09341447528562698  1.0000
  H   H20       1.0  0.9648509653357139  0.7853284732793069  0.40658769606920936  1.0000
  H   H21       1.0  0.4150504335249606  0.5893406625038151  0.8787442566285009  1.0000
  H   H22       1.0  0.9150568259046993  0.9106649833529513  0.6212582425628382  1.0000
  H   H23       1.0  0.5849471085170778  0.41065919984682586  0.12125711473999697  1.0000
  H   H24       1.0  0.08494520312061841  0.08933090523626668  0.3787407568360308  1.0000
  H   H25       1.0  0.556228258965909  0.7737254222697698  0.928471020862851  1.0000
  H   H26       1.0  0.056238789745094706  0.7262786502602337  0.5715331095299162  1.0000
  H   H27       1.0  0.44376778739958667  0.2262770809570539  0.0715297979715714  1.0000
  H   H28       1.0  0.9437647349249972  0.27371855461306877  0.4284645466803737  1.0000
  H   H29       1.0  0.1630000806288123  0.4019424000979582  0.7203348278220645  1.0000
  H   H30       1.0  0.6630041344551926  0.09805504514984878  0.7796692507991165  1.0000
  H   H31       1.0  0.8369989570849156  0.5980548186121123  0.27966638479744427  1.0000
  H   H32       1.0  0.33699340757139146  0.9019461334898364  0.2203307773787699  1.0000
  H   H33       1.0  0.1468533995480072  0.6198744363497536  0.7211591769970268  1.0000
  H   H34       1.0  0.6468502768990804  0.8801250583416329  0.7788421165716954  1.0000
  H   H35       1.0  0.8531426468355434  0.3801227768414889  0.2788406130522887  1.0000
  H   H36       1.0  0.35315025644795384  0.11987612028812578  0.22115791161025558  1.0000
  C   C1        1.0  0.612359204294755  0.6312258512495957  0.6572017284580056  1.0000
  C   C2        1.0  0.1123855616561187  0.8687843749102055  0.842781612988972  1.0000
  C   C3        1.0  0.3876398333969178  0.36877533014950353  0.34279901100497767  1.0000
  C   C4        1.0  0.887619458678188  0.1312141573046901  0.15721754516499692  1.0000
  C   C5        1.0  0.6759745901839906  0.4550984632184407  0.603719371960338  1.0000
  C   C6        1.0  0.17597035582549125  0.04490418876018508  0.8962864820016705  1.0000
  C   C7        1.0  0.32402444750855613  0.5449013935984793  0.39628057684407025  1.0000
  C   C8        1.0  0.82403167317117  0.9550983089180316  0.10371291427476588  1.0000
  C   C9        1.0  0.6480038859769978  0.29469180614169216  0.6579622446866294  1.0000
  C   C10       1.0  0.14801981988816953  0.20528850518871158  0.8420279581920622  1.0000
  C   C11       1.0  0.35199365605045335  0.7053080479158136  0.342036992832682  1.0000
  C   C12       1.0  0.8519792178026292  0.7947140007925593  0.1579735719294959  1.0000
  C   C13       1.0  0.6199008017203411  0.34894191104852  0.9679169003776095  1.0000
  C   C14       1.0  0.11990253191803649  0.15105844172706634  0.5320815295192816  1.0000
  C   C15       1.0  0.38009674030936946  0.6510619195198967  0.032085420400484586  1.0000
  C   C16       1.0  0.880099497101554  0.84893876867995  0.46791754925510526  1.0000
  C   C17       1.0  0.5056173280602182  0.6410734982678219  0.9409725297715851  1.0000
  C   C18       1.0  0.0056249322944169  0.858928258188683  0.5590291703815495  1.0000
  C   C19       1.0  0.4943802139818203  0.3589263640828192  0.05902884159691269  1.0000
  C   C20       1.0  0.9943770967211806  0.14106762487178054  0.4409684064511977  1.0000
  N   N1        1.0  0.6833935673875118  0.5252364545520363  0.9438074212241503  1.0000
  N   N2        1.0  0.18339704159733122  0.9747654440431074  0.5561948417579002  1.0000
  N   N3        1.0  0.3166054703032941  0.4747660514292419  0.056194108897400986  1.0000
  N   N4        1.0  0.8166064830661598  0.025234407230172493  0.44380368448648255  1.0000
  O   O1        1.0  0.684543128034562  0.674420093942153  0.7410934137037087  1.0000
  O   O2        1.0  0.18453434547252812  0.8255897694378188  0.758919997886899  1.0000
  O   O3        1.0  0.31545740529215754  0.32558239821227614  0.2589045600045665  1.0000
  O   O4        1.0  0.81546768352014  0.17441140089384521  0.24107789644789787  1.0000
  O   O5        1.0  0.49763383063928057  0.7297013642604352  0.6150954286524879  1.0000
  O   O6        1.0  0.9976257265799333  0.7702865693542903  0.884911242202861  1.0000
  O   O7        1.0  0.5023637113978979  0.270298495325818  0.3849052314329455  1.0000
  O   O8        1.0  0.0023837807456458995  0.2297106437922948  0.11508854786475808  1.0000
  O   O9        1.0  0.7166627395428264  0.2970236680964858  0.7428732232928539  1.0000
  O   O10       1.0  0.21664911406768542  0.2029880191614167  0.7571468113137882  1.0000
  O   O11       1.0  0.2833318111633076  0.7029775105531185  0.2571268048809685  1.0000
  O   O12       1.0  0.7833469323044114  0.7970118376654296  0.2428531374865486  1.0000
  O   O13       1.0  0.5612349808377601  0.16120043244746537  0.6132330762709444  1.0000
  O   O14       1.0  0.06120838195055  0.33881754034430844  0.8867783177405852  1.0000
  O   O15       1.0  0.43876854382087055  0.8387994160614336  0.3867647386903741  1.0000
  O   O16       1.0  0.9387906557574438  0.6611810001835604  0.11322297425443398  1.0000
  O   O17       1.0  0.07811479765297948  0.5029519634545919  0.7053007924064474  1.0000
  O   O18       1.0  0.5781212518875947  0.9970493202179893  0.7947032387497684  1.0000
  O   O19       1.0  0.9218827443956598  0.4970452524960647  0.2946997089279648  1.0000
  O   O20       1.0  0.42187928146031345  0.002950533829590499  0.2052959987736074  1.0000
