data_image0
_chemical_formula_structural       CuH12C12S2N2O6
_chemical_formula_sum              "Cu1 H12 C12 S2 N2 O6"
_cell_length_a       4.964675219026884
_cell_length_b       7.732881401963485
_cell_length_c       9.563601819021345
_cell_angle_alpha    93.15543223324818
_cell_angle_beta     104.82989567876913
_cell_angle_gamma    99.13651919366833

_space_group_name_H-M_alt    "P 1"
_space_group_IT_number       1

loop_
  _space_group_symop_operation_xyz
  'x, y, z'

loop_
  _atom_site_type_symbol
  _atom_site_label
  _atom_site_symmetry_multiplicity
  _atom_site_fract_x
  _atom_site_fract_y
  _atom_site_fract_z
  _atom_site_occupancy
  Cu  Cu1       1.0  2.4452533650999993e-06  1.3297986996e-06  3.704243666999998e-07  1.0000
  H   H1        1.0  0.18660073294697813  0.44883279400229986  0.615546554984334  1.0000
  H   H2        1.0  0.8133912490930368  0.5511674610110263  0.3844540824862007  1.0000
  H   H3        1.0  0.8821040942030931  0.37097136422671184  0.7800368599300354  1.0000
  H   H4        1.0  0.117888627940161  0.6290315260429724  0.21996503493554087  1.0000
  H   H5        1.0  0.7930897460760561  0.616005549416862  0.9399892639759598  1.0000
  H   H6        1.0  0.20690781830576543  0.3839999953701324  0.0600112739723855  1.0000
  H   H7        1.0  0.6152444375517659  0.8765327728464102  0.6177264412727936  1.0000
  H   H8        1.0  0.3847571924607677  0.12346490903318141  0.3822721718784123  1.0000
  H   H9        1.0  0.2924783752723029  0.8350463373696329  0.47990735051196504  1.0000
  H   H10       1.0  0.7075250081585124  0.1649500441323966  0.5200924734345306  1.0000
  H   H11       1.0  0.48412716354984286  0.6616565697529283  0.5245024989258481  1.0000
  H   H12       1.0  0.5158717356269804  0.33833847358994973  0.47549878619391706  1.0000
  C   C1        1.0  0.20468426931608957  0.8525422306514014  0.7747297384243054  1.0000
  C   C2        1.0  0.7953184587842655  0.14745940284271342  0.2252702363779804  1.0000
  C   C3        1.0  0.2593342665321002  0.7289191323890732  0.677337345777623  1.0000
  C   C4        1.0  0.7406635710615247  0.2710798415076284  0.32266188817592206  1.0000
  C   C5        1.0  0.14287348024321025  0.5529849319624346  0.6834905516840166  1.0000
  C   C6        1.0  0.8571209229160882  0.4470166503095427  0.3165094073279063  1.0000
  C   C7        1.0  0.9735302697450049  0.5078624767661636  0.7762864418427922  1.0000
  C   C8        1.0  0.02646622068307641  0.492139118946355  0.2237137833374661  1.0000
  C   C9        1.0  0.9241400559238497  0.6407409501854817  0.8653139892116783  1.0000
  C   C10       1.0  0.0758592618762606  0.35926329422395054  0.134687759531964  1.0000
  C   C11       1.0  0.4240488303869369  0.7781986663671675  0.5701385551250124  1.0000
  C   C12       1.0  0.5759524899091772  0.221797704234362  0.4298620515361335  1.0000
  S   S1        1.0  0.34438396690360656  0.08409617845888562  0.7885760373606416  1.0000
  S   S2        1.0  0.6556204422127861  0.915904147037509  0.21142200158797655  1.0000
  N   N1        1.0  0.04230680434200443  0.8096436588674081  0.8649280871608338  1.0000
  N   N2        1.0  0.9576962817429331  0.19035929098485846  0.13507199189747607  1.0000
  O   O1        1.0  0.2911622098093289  0.1520720296025999  0.9275803601209417  1.0000
  O   O2        1.0  0.7088418895906512  0.8479269846157395  0.07241967233761669  1.0000
  O   O3        1.0  0.6487383146562207  0.10344282132695783  0.8042151638425421  1.0000
  O   O4        1.0  0.3512643169078088  0.8965588020069505  0.19578061542779318  1.0000
  O   O5        1.0  0.18608205110788834  0.1511615576493384  0.6600840703911784  1.0000
  O   O6        1.0  0.8139161444703189  0.8488387326055218  0.33991526781839804  1.0000
