data_image0
_chemical_formula_structural       Cu2P2H26C38N4O10
_chemical_formula_sum              "Cu2 P2 H26 C38 N4 O10"
_cell_length_a       9.532528590251266
_cell_length_b       10.619641074123713
_cell_length_c       10.341527688597157
_cell_angle_alpha    100.46953237898452
_cell_angle_beta     103.03790974186423
_cell_angle_gamma    114.78616497924718

_space_group_name_H-M_alt    "P 1"
_space_group_IT_number       1

loop_
  _space_group_symop_operation_xyz
  'x, y, z'

loop_
  _atom_site_type_symbol
  _atom_site_label
  _atom_site_symmetry_multiplicity
  _atom_site_fract_x
  _atom_site_fract_y
  _atom_site_fract_z
  _atom_site_occupancy
  Cu  Cu1       1.0  0.0747315617509656  0.11013208918709687  0.665841823809636  1.0000
  Cu  Cu2       1.0  0.9252695371902815  0.8898671671790479  0.3341549147433722  1.0000
  P   P1        1.0  0.26915597371390726  0.9255992545806748  0.5045062160707019  1.0000
  P   P2        1.0  0.7308417829845623  0.07439778174335028  0.4954913240704357  1.0000
  H   H1        1.0  0.7305336373326198  0.8308203231019106  0.5862809783506364  1.0000
  H   H2        1.0  0.2694713883704978  0.16918224473923257  0.4137143165021442  1.0000
  H   H3        1.0  0.6638376814443774  0.38684202691843683  0.02678960644657738  1.0000
  H   H4        1.0  0.3361753738565697  0.6131595996712846  0.9732140463835606  1.0000
  H   H5        1.0  0.8130609488968689  0.6425780293029177  0.9161201482526877  1.0000
  H   H6        1.0  0.18693370348437097  0.3574254458111739  0.08387884084883977  1.0000
  H   H7        1.0  0.10081825658153323  0.775733837590444  0.10170494184908561  1.0000
  H   H8        1.0  0.8991751874108403  0.22426745539587503  0.8982982241371289  1.0000
  H   H9        1.0  0.600769622031244  0.20474164178722987  0.15691716429441974  1.0000
  H   H10       1.0  0.3992319433771456  0.7952587082257238  0.8430876101279878  1.0000
  H   H11       1.0  0.38548281602629686  0.975655420524937  0.1840446165077337  1.0000
  H   H12       1.0  0.6145122166515263  0.024344818204880894  0.8159596742266473  1.0000
  H   H13       1.0  0.6239939456277384  0.6351945612279336  0.6975577115260023  1.0000
  H   H14       1.0  0.3759995864482022  0.36480456428292024  0.3024344451402783  1.0000
  H   H15       1.0  0.439121000779089  0.3481833029926236  0.8136619969329288  1.0000
  H   H16       1.0  0.5608903103467995  0.651812883298966  0.18633835823456474  1.0000
  H   H17       1.0  0.5331983171373835  0.07357918928485668  0.628780373513834  1.0000
  H   H18       1.0  0.4667965862846016  0.9264145543983557  0.3712198158657286  1.0000
  H   H19       1.0  0.0536769247836163  0.7703861220154736  0.6453926573670685  1.0000
  H   H20       1.0  0.9463322768091231  0.22961652337631472  0.3546161376200061  1.0000
  H   H21       1.0  0.40207399303021424  0.7222078079534809  0.46881755490867494  1.0000
  H   H22       1.0  0.5979101586863109  0.2777835818804064  0.5311672835302872  1.0000
  H   H23       1.0  0.022548188130223096  0.5605432870104324  0.7368942344807082  1.0000
  H   H24       1.0  0.977469237900607  0.4394649109465902  0.2631221987377117  1.0000
  H   H25       1.0  0.3535310956061508  0.5009749760505997  0.5446947747771205  1.0000
  H   H26       1.0  0.6464541857979282  0.4990185973870137  0.45529167209814847  1.0000
  C   C1        1.0  0.06584090406651912  0.9450851861416965  0.8516908788989427  1.0000
  C   C2        1.0  0.9341586099238982  0.05491729023446369  0.148308994684676  1.0000
  C   C3        1.0  0.23006956299025924  0.06272952297019428  0.9022287239273297  1.0000
  C   C4        1.0  0.7699342974092785  0.9372730277587135  0.09777211492841781  1.0000
  C   C5        1.0  0.8085199461747692  0.8310378220293089  0.6811149729374435  1.0000
  C   C6        1.0  0.19148638720466954  0.168971257724678  0.3188779150470181  1.0000
  C   C7        1.0  0.01914230972784024  0.8391378146844771  0.9215747481560612  1.0000
  C   C8        1.0  0.9808511042961359  0.16086131304030718  0.07842608649171728  1.0000
  C   C9        1.0  0.34690857868874053  0.0726212603694663  0.0209343678885432  1.0000
  C   C10       1.0  0.6530913418320379  0.9273779791304402  0.9790688788875953  1.0000
  C   C11       1.0  0.5415698148806671  0.2929120631272256  0.9931831234129405  1.0000
  C   C12       1.0  0.4584372491235483  0.707088378596701  0.00681803649879946  1.0000
  C   C13       1.0  0.8549786195550055  0.7250976129232214  0.864038857602793  1.0000
  C   C14       1.0  0.1450176308939461  0.2749026419348581  0.1359560322479538  1.0000
  C   C15       1.0  0.1384411266717791  0.853371224173138  0.0440452178130215  1.0000
  C   C16       1.0  0.8615544080892191  0.1466279417119978  0.9559599563514922  1.0000
  C   C17       1.0  0.5066104133544657  0.19227530567178516  0.0655946259209941  1.0000
  C   C18       1.0  0.4933874295145627  0.8077260606833148  0.934405648456682  1.0000
  C   C19       1.0  0.29630102502356703  0.9650716374677445  0.09044993305493422  1.0000
  C   C20       1.0  0.7036901202430315  0.0349252890491059  0.9095529087191778  1.0000
  C   C21       1.0  0.75119936567004  0.7211741945451565  0.7438957265976783  1.0000
  C   C22       1.0  0.24879707588454641  0.27883038837605767  0.2560941837282869  1.0000
  C   C23       1.0  0.41743727264814373  0.2734693087321247  0.8754655522727006  1.0000
  C   C24       1.0  0.5825708086392963  0.7265289870564329  0.1245364102791341  1.0000
  C   C25       1.0  0.23476365045251416  0.7642553127569585  0.5572318307101014  1.0000
  C   C26       1.0  0.765227517313228  0.23573944751439058  0.4427648228449073  1.0000
  C   C27       1.0  0.12578845273935005  0.7160623852487475  0.6303935363289526  1.0000
  C   C28       1.0  0.8742103942960284  0.28393683541697357  0.3696085049089887  1.0000
  C   C29       1.0  0.3194225850818952  0.6874525091629806  0.5282118501743938  1.0000
  C   C30       1.0  0.6805735304635832  0.3125455824015191  0.4717884220992445  1.0000
  C   C31       1.0  0.189996021197352  0.5213915205519867  0.649803285227172  1.0000
  C   C32       1.0  0.8100094447391442  0.4786121414279447  0.35020197393534147  1.0000
  C   C33       1.0  0.1060324409476224  0.5978492117284802  0.6789558286660053  1.0000
  C   C34       1.0  0.893972453586656  0.4021533585725905  0.3210491083884435  1.0000
  C   C35       1.0  0.29453878978290504  0.5654717072355311  0.5720209074275928  1.0000
  C   C36       1.0  0.7054595289355278  0.43452858676686645  0.42798217882054956  1.0000
  C   C37       1.0  0.15838306457496998  0.38972087473874945  0.697311491012087  1.0000
  C   C38       1.0  0.8416229165615902  0.6102817141505029  0.3026936873603958  1.0000
  N   N1        1.0  0.266123334230123  0.16161434111918277  0.8318977370817964  1.0000
  N   N2        1.0  0.733884760174206  0.838383954423385  0.16810326124986827  1.0000
  N   N3        1.0  0.9615634094170532  0.9408306414901092  0.7349595309510875  1.0000
  N   N4        1.0  0.038436672240962394  0.059170760811397785  0.2650364049618261  1.0000
  O   O1        1.0  0.12146536180448923  0.9523697451265746  0.497238539176628  1.0000
  O   O2        1.0  0.878531433812917  0.047631601902352806  0.5027586012225242  1.0000
  O   O3        1.0  0.4166270305648895  0.0584392127010176  0.6302381014855953  1.0000
  O   O4        1.0  0.5833684704930845  0.941555622169069  0.3697604815617054  1.0000
  O   O5        1.0  0.30973564929350067  0.9084435591451978  0.37110365399366424  1.0000
  O   O6        1.0  0.6902632202410218  0.09155349527502922  0.6288921990251737  1.0000
  O   O7        1.0  0.1879045692207555  0.2945801017216354  0.6264299929366074  1.0000
  O   O8        1.0  0.8120937588799321  0.7054180262812506  0.3735678693125947  1.0000
  O   O9        1.0  0.10351135562989096  0.37521612021336637  0.7959402158348752  1.0000
  O   O10       1.0  0.8965066605676812  0.6247888374235089  0.20406609149373608  1.0000
