data_image0
_chemical_formula_structural       Cu4H20C60N4O24
_chemical_formula_sum              "Cu4 H20 C60 N4 O24"
_cell_length_a       10.952532059584685
_cell_length_b       15.13399049332441
_cell_length_c       20.49513964081092
_cell_angle_alpha    111.66345281752693
_cell_angle_beta     105.50294215922212
_cell_angle_gamma    90.01080127934809

_space_group_name_H-M_alt    "P 1"
_space_group_IT_number       1

loop_
  _space_group_symop_operation_xyz
  'x, y, z'

loop_
  _atom_site_type_symbol
  _atom_site_label
  _atom_site_symmetry_multiplicity
  _atom_site_fract_x
  _atom_site_fract_y
  _atom_site_fract_z
  _atom_site_occupancy
  Cu  Cu1       1.0  0.5543112833369294  0.47606374842831645  0.9520885257275112  1.0000
  Cu  Cu2       1.0  0.10223059073891252  0.0239379380506648  0.04791765725941841  1.0000
  Cu  Cu3       1.0  0.8977691607527094  0.9760612837468156  0.9520816515066812  1.0000
  Cu  Cu4       1.0  0.44568952011346863  0.5239355886510282  0.047911615839161904  1.0000
  H   H1        1.0  0.7333783944486358  0.4690635316625773  0.21974424016096358  1.0000
  H   H2        1.0  0.7572715259613576  0.3016602510028718  0.43029582589508664  1.0000
  H   H3        1.0  0.013413183263189408  0.030985056600193968  0.7802557550699164  1.0000
  H   H4        1.0  0.8270588049674574  0.19831455723965513  0.5696187878488033  1.0000
  H   H5        1.0  0.9866734072921661  0.2509269381429391  0.21975111967912403  1.0000
  H   H6        1.0  0.17298401734660027  0.6285560541888842  0.4302735953559704  1.0000
  H   H7        1.0  0.26672173749667394  0.24919915875948812  0.7802932930422274  1.0000
  H   H8        1.0  0.24253354827819623  0.8713894217076753  0.5698036937504086  1.0000
  H   H9        1.0  0.2666270427287359  0.5309384480099836  0.7802578360157925  1.0000
  H   H10       1.0  0.2427284342246524  0.6983384442823706  0.5697043887925305  1.0000
  H   H11       1.0  0.9865885677743834  0.9690139290463404  0.2197440337789516  1.0000
  H   H12       1.0  0.17294158114295757  0.8016872928057451  0.43038100699009624  1.0000
  H   H13       1.0  0.013327396158231948  0.7490723989364055  0.7802490218875492  1.0000
  H   H14       1.0  0.8270158385166156  0.3714436343232774  0.5697268989285078  1.0000
  H   H15       1.0  0.7332800135896992  0.7508012868286329  0.21970796092188755  1.0000
  H   H16       1.0  0.7574620998312513  0.12861223891300003  0.43019591119053063  1.0000
  H   H17       1.0  0.7574088360615149  0.25753765578429  0.015091830871348607  1.0000
  H   H18       1.0  0.242375462250287  0.24240662798420234  0.984935629729634  1.0000
  H   H19       1.0  0.24259186308235325  0.7424631611691624  0.9849090786639396  1.0000
  H   H20       1.0  0.7576246022747881  0.7575915607213304  0.015064793732854284  1.0000
  C   C1        1.0  0.6479418897728311  0.41763437784091906  0.07237481170900392  1.0000
  C   C2        1.0  0.7383344799944641  0.36932590056031234  0.11325594169156976  1.0000
  C   C3        1.0  0.7741817083987926  0.40655494712400037  0.1899563455480404  1.0000
  C   C4        1.0  0.844500691347186  0.35855792942304987  0.341565364934752  1.0000
  C   C5        1.0  0.8855886173006696  0.4011171559334627  0.42290033298752416  1.0000
  C   C6        1.0  0.8305799030332752  0.36235730812209244  0.4615039750937271  1.0000
  C   C7        1.0  0.07540297811651442  0.08235179375486013  0.9276072720567328  1.0000
  C   C8        1.0  0.12498302657876796  0.1306693523215826  0.8867616771278932  1.0000
  C   C9        1.0  0.08400181059952423  0.093520297149844  0.810064310066906  1.0000
  C   C10       1.0  0.0027605138009220978  0.14138727166621823  0.658381898346164  1.0000
  C   C11       1.0  0.9627467752729548  0.09889888624866229  0.5770460606686998  1.0000
  C   C12       1.0  0.8691831824254166  0.13766600569003623  0.5384222195023227  1.0000
  C   C13       1.0  0.9245463034796162  0.1548436728934632  0.07236467931338109  1.0000
  C   C14       1.0  0.8750543779327701  0.24404214980624767  0.11324966474530382  1.0000
  C   C15       1.0  0.916024174415597  0.28360211974641897  0.18995613563605931  1.0000
  C   C16       1.0  0.9972375485293414  0.48296578413292923  0.34160782394781825  1.0000
  C   C17       1.0  0.03728649925169242  0.5217657246475155  0.4229168421839944  1.0000
  C   C18       1.0  0.13093103093915917  0.5991149066614908  0.4615108390190273  1.0000
  C   C19       1.0  0.3520749179936189  0.34520882361925226  0.9276794854622423  1.0000
  C   C20       1.0  0.2616989115546959  0.2559834929242654  0.8867834372176377  1.0000
  C   C21       1.0  0.22586510910113602  0.21651520058756557  0.810084129957268  1.0000
  C   C22       1.0  0.15544138477845593  0.017058940117791934  0.6584387508831994  1.0000
  C   C23       1.0  0.11424526835826757  0.9782043279746658  0.5771186917468469  1.0000
  C   C24       1.0  0.16926734368941967  0.9008302169849073  0.5385565734317127  1.0000
  C   C25       1.0  0.35205975695821223  0.5823660876797232  0.9276257451084787  1.0000
  C   C26       1.0  0.2616690619272078  0.6306743487418984  0.8867443980620494  1.0000
  C   C27       1.0  0.225820885935704  0.5934456536110204  0.8100443469233839  1.0000
  C   C28       1.0  0.1555010597066514  0.6414415428706802  0.6584349122858626  1.0000
  C   C29       1.0  0.1144121861659926  0.5988826677930773  0.5771002969508956  1.0000
  C   C30       1.0  0.16942100475618105  0.6376415223775423  0.5384963752478313  1.0000
  C   C31       1.0  0.9245976166232245  0.9176475831895273  0.0723914752166835  1.0000
  C   C32       1.0  0.8750188287816061  0.8693286400980469  0.11323783212410636  1.0000
  C   C33       1.0  0.9160008880252306  0.9064783370638807  0.1899351260641567  1.0000
  C   C34       1.0  0.9972360818957001  0.8586140375216471  0.3416173538769628  1.0000
  C   C35       1.0  0.03725350648213077  0.9011029837292667  0.422953037023568  1.0000
  C   C36       1.0  0.13081551717249346  0.8623350474143618  0.46157820995020427  1.0000
  C   C37       1.0  0.07545439564798077  0.8451566574127938  0.9276357418501605  1.0000
  C   C38       1.0  0.1249464255338922  0.7559576739202923  0.8867509651931159  1.0000
  C   C39       1.0  0.08397936753861057  0.7163991028501825  0.8100451808610672  1.0000
  C   C40       1.0  0.0027632549373209185  0.5170340395936107  0.6583928059906086  1.0000
  C   C41       1.0  0.9627141998596404  0.4782341190115457  0.5770830906077932  1.0000
  C   C42       1.0  0.8690679816434044  0.40088365340937315  0.5384892400146413  1.0000
  C   C43       1.0  0.6479237815717557  0.654791256190755  0.07231996724678433  1.0000
  C   C44       1.0  0.7383039957644545  0.7440146147772211  0.11321690483492833  1.0000
  C   C45       1.0  0.7741365376299145  0.7834852649330698  0.18991642686021495  1.0000
  C   C46       1.0  0.8445543676212426  0.9829407539815872  0.341559597717371  1.0000
  C   C47       1.0  0.8857505883967608  0.021795346192192207  0.42288035400034824  1.0000
  C   C48       1.0  0.8307275655109693  0.09917078190915153  0.4614438017767882  1.0000
  C   C49       1.0  0.8637628176776465  0.3637504755306722  0.22737077554237578  1.0000
  C   C50       1.0  0.7873539360348903  0.2874011587377511  0.07478738479436234  1.0000
  C   C51       1.0  0.9804809380763123  0.4804699096004014  0.4609569007877853  1.0000
  C   C52       1.0  0.13620381757588973  0.1363298200952272  0.7726526090737877  1.0000
  C   C53       1.0  0.21257211078431482  0.21257027050590682  0.9252450797753724  1.0000
  C   C54       1.0  0.019499093807532092  0.019523271144755917  0.5390385834687308  1.0000
  C   C55       1.0  0.1362389333761983  0.6362489967630579  0.7726295016782389  1.0000
  C   C56       1.0  0.2126479194068126  0.7125992669178486  0.9252145663163845  1.0000
  C   C57       1.0  0.019519865374086044  0.5195294274789432  0.5390432407788879  1.0000
  C   C58       1.0  0.8637967771963775  0.863670530143551  0.2273471149431288  1.0000
  C   C59       1.0  0.787428796988877  0.7874280733465325  0.07475478219443228  1.0000
  C   C60       1.0  0.9804957109887202  0.980476287740238  0.46095962947789104  1.0000
  N   N1        1.0  0.9032774926944572  0.4032772344714033  0.30649521144225395  1.0000
  N   N2        1.0  0.09664637876591803  0.0967822544569685  0.6935194861505565  1.0000
  N   N3        1.0  0.09672425835938014  0.5967222378223197  0.6935050657783606  1.0000
  N   N4        1.0  0.9033522164603985  0.9032183319327557  0.3064797577835849  1.0000
  O   O1        1.0  0.6621006719255079  0.4123503632730419  0.011184374453606025  1.0000
  O   O2        1.0  0.5645695714840857  0.46067555311556413  0.10213611582127415  1.0000
  O   O3        1.0  0.7643764531409121  0.2888485477559256  0.3057710688332094  1.0000
  O   O4        1.0  0.1507731342856857  0.08764712052985849  0.9888038853122295  1.0000
  O   O5        1.0  0.9622415927428776  0.03931786372079672  0.8978132024829578  1.0000
  O   O6        1.0  0.9582015549013436  0.21097734992761724  0.6941095274473811  1.0000
  O   O7        1.0  0.8491632758051826  0.09900602160368521  0.011137956594488754  1.0000
  O   O8        1.0  0.03764937540591261  0.1415063032588719  0.10216756245684881  1.0000
  O   O9        1.0  0.041884550095105125  0.5168221412185118  0.305885868889014  1.0000
  O   O10       1.0  0.3378914760236429  0.40105914882139587  0.988881075621059  1.0000
  O   O11       1.0  0.43548000992105806  0.35853210174850125  0.8979483961870685  1.0000
  O   O12       1.0  0.23564822444156175  0.9831786671891078  0.6942254642213755  1.0000
  O   O13       1.0  0.3378990795986426  0.5876498318188293  0.988815911055994  1.0000
  O   O14       1.0  0.4354301800400721  0.5393246419763073  0.8978641696883258  1.0000
  O   O15       1.0  0.23562329838323856  0.7111516473359457  0.6942292166763907  1.0000
  O   O16       1.0  0.8492266172222005  0.9123525879148173  0.011195911825616618  1.0000
  O   O17       1.0  0.03776005397190125  0.9606821151526501  0.10218686596277851  1.0000
  O   O18       1.0  0.04179841388535275  0.7890274997310341  0.3058904090354915  1.0000
  O   O19       1.0  0.15083731896709213  0.9009943286350929  0.9888617674224208  1.0000
  O   O20       1.0  0.9623512193826259  0.8584945336271016  0.8978326499318144  1.0000
  O   O21       1.0  0.9581153057518398  0.48317706064644733  0.6941141370237177  1.0000
  O   O22       1.0  0.6621074322198626  0.5989399178291848  0.01111879463772424  1.0000
  O   O23       1.0  0.5645206892228105  0.6414687152049509  0.10205251334822665  1.0000
  O   O24       1.0  0.7643448938259285  0.016819608107695665  0.3057728949671202  1.0000
