data_image0
_chemical_formula_structural       Cd2H32C32N8O12
_chemical_formula_sum              "Cd2 H32 C32 N8 O12"
_cell_length_a       9.421668378895516
_cell_length_b       10.055694762400105
_cell_length_c       11.064423088607166
_cell_angle_alpha    109.04976037010742
_cell_angle_beta     111.09325399080251
_cell_angle_gamma    94.99546337050062

_space_group_name_H-M_alt    "P 1"
_space_group_IT_number       1

loop_
  _space_group_symop_operation_xyz
  'x, y, z'

loop_
  _atom_site_type_symbol
  _atom_site_label
  _atom_site_symmetry_multiplicity
  _atom_site_fract_x
  _atom_site_fract_y
  _atom_site_fract_z
  _atom_site_occupancy
  Cd  Cd1       1.0  0.5632632019638634  0.3981425750527591  0.6332139781965935  1.0000
  Cd  Cd2       1.0  0.43673382403554944  0.6018567758288285  0.3667886215781521  1.0000
  H   H1        1.0  0.15134050340944333  0.4763079646048851  0.7910274872095824  1.0000
  H   H2        1.0  0.8486576515709032  0.5236913689943846  0.20897364418045333  1.0000
  H   H3        1.0  0.05562255855903687  0.42118885193937655  0.6064498192496828  1.0000
  H   H4        1.0  0.9443721818303175  0.5788104830821579  0.39354936743170305  1.0000
  H   H5        1.0  0.29591510598665133  0.39042067092765353  0.931292934640787  1.0000
  H   H6        1.0  0.7040892660879904  0.6095807825653522  0.06870709524604011  1.0000
  H   H7        1.0  0.38020438275083995  0.27452889039507505  0.10101008383040984  1.0000
  H   H8        1.0  0.6197951794057701  0.7254715146674896  0.8989908851385735  1.0000
  H   H9        1.0  0.23785355698577598  0.02634048731987799  0.04858994331934951  1.0000
  H   H10       1.0  0.7621448643406764  0.9736599134144225  0.9514097726645828  1.0000
  H   H11       1.0  0.9305840969750252  0.008408721161252698  0.6411633310113275  1.0000
  H   H12       1.0  0.06941601762249407  0.9915938541890055  0.35883934276172597  1.0000
  H   H13       1.0  0.8731148400023515  0.7831411635536084  0.6040840186619646  1.0000
  H   H14       1.0  0.12688186790366268  0.21686142762597158  0.3959185246489482  1.0000
  H   H15       1.0  0.7721312688550269  0.8720804273881836  0.7021368861946442  1.0000
  H   H16       1.0  0.2278654430007236  0.12792217099492828  0.29786656423952  1.0000
  H   H17       1.0  0.6670625088345049  0.079008849679326  0.5985462773607823  1.0000
  H   H18       1.0  0.3329393393328246  0.9209871701644017  0.4014477839692034  1.0000
  H   H19       1.0  0.6582292763479457  0.020106269137848194  0.19922539384072735  1.0000
  H   H20       1.0  0.34177140689011754  0.9798941042353346  0.8007722924970436  1.0000
  H   H21       1.0  0.5965018286915083  0.28854717140371383  0.3147299805933202  1.0000
  H   H22       1.0  0.40350081416372774  0.7114564437204647  0.6852692481274758  1.0000
  H   H23       1.0  0.9233064788601196  0.3889486605706124  0.8606206522805521  1.0000
  H   H24       1.0  0.07669252295609401  0.6110495597971948  0.13937679763786548  1.0000
  H   H25       1.0  0.7184700507147779  0.23880714858446334  0.08868496887068031  1.0000
  H   H26       1.0  0.28153182510072833  0.7611889216839599  0.9113154423220705  1.0000
  H   H27       1.0  0.4858305634451057  0.27036767359361125  0.8655747693814178  1.0000
  H   H28       1.0  0.5141710341750853  0.7296273079292062  0.13442433584767596  1.0000
  H   H29       1.0  0.6947980609263739  0.9080216903846575  0.3839956837827857  1.0000
  H   H30       1.0  0.30520316290337485  0.09198083166564429  0.6160009859892951  1.0000
  H   H31       1.0  0.97427006841842  0.32256627457706327  0.0772435196857658  1.0000
  H   H32       1.0  0.025731485353951176  0.6774330287858276  0.9227559279199011  1.0000
  C   C1        1.0  0.28746224533123416  0.38654750321307313  0.6771877407331388  1.0000
  C   C2        1.0  0.7125330952965925  0.6134496874596136  0.32281371549899524  1.0000
  C   C3        1.0  0.1319616594052775  0.3913923470780603  0.6904774066801096  1.0000
  C   C4        1.0  0.8680342178644906  0.6086069850682134  0.3095221258630758  1.0000
  C   C5        1.0  0.1060493465649373  0.20450580086355788  0.7750732310833184  1.0000
  C   C6        1.0  0.8939542067226824  0.7954924152067234  0.22492650940554174  1.0000
  C   C7        1.0  0.2331219936178428  0.28139552904028864  0.9040438185939621  1.0000
  C   C8        1.0  0.7668801046959572  0.718605930203246  0.09595551956926565  1.0000
  C   C9        1.0  0.2801364251867184  0.21509921347220728  0.0010148079392777922  1.0000
  C   C10       1.0  0.7198676686925936  0.7849011512751858  0.9989839159838851  1.0000
  C   C11       1.0  0.20208434984620988  0.07751218694719597  0.9730053197177995  1.0000
  C   C12       1.0  0.7979140394816538  0.9224925572377668  0.02699746001247406  1.0000
  C   C13       1.0  0.07254603939266252  0.0030757739766257984  0.8438803142651494  1.0000
  C   C14       1.0  0.9274540752048566  0.9969268013736323  0.1561223595079042  1.0000
  C   C15       1.0  0.025589238660195697  0.0652465990503046  0.7443433443733198  1.0000
  C   C16       1.0  0.9744117306726707  0.9347548774755479  0.25565746217461793  1.0000
  C   C17       1.0  0.855774087865072  0.8019213504814925  0.7010347861848698  1.0000
  C   C18       1.0  0.1442248859022897  0.1980812205405086  0.2989666346031327  1.0000
  C   C19       1.0  0.7828374219342819  0.6577756724929457  0.6946897678096419  1.0000
  C   C20       1.0  0.2171632771027419  0.34222472969435097  0.30531154702114083  1.0000
  C   C21       1.0  0.6547784125384338  0.10061674020362686  0.5059435112389111  1.0000
  C   C22       1.0  0.3452214080648019  0.8993847175869049  0.4940542280774665  1.0000
  C   C23       1.0  0.6497079112741703  0.07282081987755619  0.29796310327756714  1.0000
  C   C24       1.0  0.35029699744242054  0.9271827750890368  0.7020350029203115  1.0000
  C   C25       1.0  0.6178724389717516  0.20404794406046278  0.35527289137026935  1.0000
  C   C26       1.0  0.3821322033987258  0.795954583771099  0.6447266302337126  1.0000
  C   C27       1.0  0.8344714192033038  0.35130597524020857  0.8899605159918025  1.0000
  C   C28       1.0  0.1655293118323158  0.6486900834964259  0.11003773509264644  1.0000
  C   C29       1.0  0.724413024507527  0.2727552413412865  0.007014044930315361  1.0000
  C   C30       1.0  0.27558995224006816  0.7272451622990059  0.992988868747318  1.0000
  C   C31       1.0  0.6109153292593206  0.28934279322947976  0.8964460053363581  1.0000
  C   C32       1.0  0.389085687871102  0.7106543686598241  0.10355536595825743  1.0000
  N   N1        1.0  0.620981363717  0.21959210742718227  0.48526859152995866  1.0000
  N   N2        1.0  0.3790230004581617  0.7804093316587669  0.5147296241103589  1.0000
  N   N3        1.0  0.6729175907434524  0.009665147312638598  0.3947840311910085  1.0000
  N   N4        1.0  0.32707994819946157  0.9903363018213723  0.6052112021552672  1.0000
  N   N5        1.0  0.6811523672420917  0.33855649693403916  0.8238981575438515  1.0000
  N   N6        1.0  0.318848924133917  0.6614417464973456  0.17610361259117008  1.0000
  N   N7        1.0  0.8644383174125495  0.3114662704011336  0.00034789823796907746  1.0000
  N   N8        1.0  0.13556324030955844  0.6885330401652894  0.9996524564909492  1.0000
  O   O1        1.0  0.3141917849856597  0.2648111818227931  0.6202318717793317  1.0000
  O   O2        1.0  0.6857998668055884  0.7351849287300779  0.379767240903746  1.0000
  O   O3        1.0  0.38100358480836155  0.506624026598466  0.718726538808717  1.0000
  O   O4        1.0  0.6189908773856702  0.4933742196774559  0.2812713419090117  1.0000
  O   O5        1.0  0.047871036177340884  0.2556562143078479  0.6704985112733297  1.0000
  O   O6        1.0  0.9521265584626095  0.7443409345966711  0.32949910106612623  1.0000
  O   O7        1.0  0.9994438808224614  0.8681879191392948  0.8224580533705107  1.0000
  O   O8        1.0  0.0005551008443873816  0.13181466628975605  0.17754518166399436  1.0000
  O   O9        1.0  0.8568941063042033  0.5991858624072178  0.7742771639999688  1.0000
  O   O10       1.0  0.1431074154695793  0.4008177844063353  0.22572534735203928  1.0000
  O   O11       1.0  0.6417332538669599  0.6013868444680028  0.6018993235069843  1.0000
  O   O12       1.0  0.3582697426293393  0.3986135951899356  0.3981081257869121  1.0000
