data_image0
_chemical_formula_structural       Zn8H52C96O26F4
_chemical_formula_sum              "Zn8 H52 C96 O26 F4"
_cell_length_a       18.48051164622092
_cell_length_b       18.482365118329778
_cell_length_c       23.807817858566516
_cell_angle_alpha    112.80592248370549
_cell_angle_beta     112.84246273371294
_cell_angle_gamma    89.98756187220185

_space_group_name_H-M_alt    "P 1"
_space_group_IT_number       1

loop_
  _space_group_symop_operation_xyz
  'x, y, z'

loop_
  _atom_site_type_symbol
  _atom_site_label
  _atom_site_symmetry_multiplicity
  _atom_site_fract_x
  _atom_site_fract_y
  _atom_site_fract_z
  _atom_site_occupancy
  Zn  Zn1       1.0  0.5291820957606177  0.11510020617274108  0.0579313753203365  1.0000
  Zn  Zn2       1.0  0.9428641850691265  0.5286935515876082  0.05792033050338579  1.0000
  Zn  Zn3       1.0  0.528900979089741  0.9428065170241453  0.058036843790709544  1.0000
  Zn  Zn4       1.0  0.11534015855770009  0.5291701392013337  0.05818524883687101  1.0000
  Zn  Zn5       1.0  0.3850291019843013  0.9719213392917396  0.9439685805747187  1.0000
  Zn  Zn6       1.0  0.9719832064145634  0.3849910835935901  0.9439222369728384  1.0000
  Zn  Zn7       1.0  0.5590274444076399  0.9720671958493627  0.9438934212697133  1.0000
  Zn  Zn8       1.0  0.9721800102331318  0.558990691436236  0.9439714998381135  1.0000
  H   H1        1.0  0.6799915665543352  0.29959401679366954  0.07465288137792922  1.0000
  H   H2        1.0  0.774529718923219  0.6792397268368261  0.07417297781159957  1.0000
  H   H3        1.0  0.39485639253965127  0.7750308634315958  0.07460904837891036  1.0000
  H   H4        1.0  0.2997650203586204  0.3948859996480252  0.0741849627487738  1.0000
  H   H5        1.0  0.6793275030468848  0.7744062310473439  0.07413026718395342  1.0000
  H   H6        1.0  0.7752354970216898  0.39469900266863067  0.0746087014180644  1.0000
  H   H7        1.0  0.395016116794082  0.29969760006116525  0.07420764906173356  1.0000
  H   H8        1.0  0.29972638772171933  0.6798221696962942  0.07463699546135423  1.0000
  H   H9        1.0  0.7918010921495197  0.16485127369049482  0.8599723300163333  1.0000
  H   H10       1.0  0.6960955828668034  0.7926527805320446  0.8604509990499237  1.0000
  H   H11       1.0  0.0682164878285434  0.6952327812225152  0.8600068068818273  1.0000
  H   H12       1.0  0.16460759355820898  0.0679620293507099  0.8604394265319827  1.0000
  H   H13       1.0  0.7927052039492111  0.6960747468330338  0.8604821875555402  1.0000
  H   H14       1.0  0.6950151054825894  0.06829495654529433  0.8599335955577344  1.0000
  H   H15       1.0  0.0679413065640659  0.164555870484655  0.8604026700979048  1.0000
  H   H16       1.0  0.1648008600197173  0.7919858876308369  0.8600734620426351  1.0000
  H   H17       1.0  0.8710849522150711  0.15050937129806394  0.9250924090118672  1.0000
  H   H18       1.0  0.7752821538425322  0.8718504664912389  0.9259578851156788  1.0000
  H   H19       1.0  0.053986664279428  0.7744420832177354  0.9251849919743548  1.0000
  H   H20       1.0  0.1510029828392874  0.05432058618783491  0.9260254252380237  1.0000
  H   H21       1.0  0.8719436831781734  0.7752182256159091  0.9259900708689343  1.0000
  H   H22       1.0  0.7743037114396927  0.05392805369218215  0.9250274265113703  1.0000
  H   H23       1.0  0.05432894392634321  0.1509154057713715  0.9259891520820817  1.0000
  H   H24       1.0  0.15061342253987683  0.8711985931637543  0.9252864168587821  1.0000
  H   H25       1.0  0.8745156029185212  0.48497702013796123  0.7358757191179351  1.0000
  H   H26       1.0  0.2514176047648462  0.861774715583323  0.7365175221004918  1.0000
  H   H27       1.0  0.8626481375433315  0.2513126957906309  0.7359536093823565  1.0000
  H   H28       1.0  0.48441727569458937  0.8738017684410123  0.7352065144191399  1.0000
  H   H29       1.0  0.6594068823144426  0.24523925007947872  0.26433718239747617  1.0000
  H   H30       1.0  0.0184166072283958  0.6072486879869601  0.26448367914019133  1.0000
  H   H31       1.0  0.6066841587359093  0.01959039829103656  0.2652720871250551  1.0000
  H   H32       1.0  0.24513444590848374  0.6597323705021482  0.2651906951964236  1.0000
  H   H33       1.0  0.6294918836607977  0.3710887122443083  0.35009944139908816  1.0000
  H   H34       1.0  0.6927438777240554  0.5138869633857084  0.4055504398294616  1.0000
  H   H35       1.0  0.8370801950507174  0.5556241096678323  0.4840934949074409  1.0000
  H   H36       1.0  0.9174211070047422  0.45362791136081887  0.5065705095238755  1.0000
  H   H37       1.0  0.8536862681949771  0.3113211451145474  0.45183524451849183  1.0000
  H   H38       1.0  0.026148941622096803  0.5444967698478678  0.35055637587488053  1.0000
  H   H39       1.0  0.9370897675765094  0.546029566377861  0.4068401539831399  1.0000
  H   H40       1.0  0.9226798593382101  0.6753085071870899  0.48560630575086355  1.0000
  H   H41       1.0  0.9978742644183288  0.8025994746590897  0.5077978996227729  1.0000
  H   H42       1.0  0.08741777398780931  0.8005817948678953  0.4522717667403171  1.0000
  H   H43       1.0  0.7259807734027746  0.9812146518183342  0.3509401071740613  1.0000
  H   H44       1.0  0.7222693808141898  0.8946141301744247  0.40807076698901307  1.0000
  H   H45       1.0  0.6579309264921848  0.9305509104523468  0.48759186397172277  1.0000
  H   H46       1.0  0.5974206291581653  0.05335299297071567  0.5094433716895778  1.0000
  H   H47       1.0  0.6026937329867579  0.1404413066829377  0.45329769954060584  1.0000
  H   H48       1.0  0.36820683672439003  0.6298317160499993  0.35114602822064006  1.0000
  H   H49       1.0  0.5119971270228306  0.6902703746483356  0.40831349954275004  1.0000
  H   H50       1.0  0.5558708492861586  0.834033841706912  0.48779734088239485  1.0000
  H   H51       1.0  0.4551052675529235  0.9167435513213037  0.5095740068524749  1.0000
  H   H52       1.0  0.3117909427180834  0.8558684117967986  0.45316613005375217  1.0000
  C   C1        1.0  0.4097608819911187  0.9093515698421231  0.8188781822801801  1.0000
  C   C2        1.0  0.9097180826815858  0.40959879737312826  0.8188932068987853  1.0000
  C   C3        1.0  0.8725157403247296  0.3720977533658641  0.7438137967787172  1.0000
  C   C4        1.0  0.3719341994284023  0.8718517504432556  0.7438012575772176  1.0000
  C   C5        1.0  0.8022282538508919  0.3009438727331998  0.6014893556428761  1.0000
  C   C6        1.0  0.29970199046598384  0.801904692472654  0.6013899959288338  1.0000
  C   C7        1.0  0.7673144874793607  0.2657644932706305  0.530957013173918  1.0000
  C   C8        1.0  0.263846562801035  0.7680395233691542  0.5308493449343102  1.0000
  C   C9        1.0  0.7367090992765029  0.2352514786255853  0.4696431644100797  1.0000
  C   C10       1.0  0.2324665187750412  0.7400855440587081  0.4695751786884443  1.0000
  C   C11       1.0  0.6992354249962958  0.24634711376214108  0.36264888413622737  1.0000
  C   C12       1.0  0.11439552813853741  0.6706564713815412  0.36268718557185053  1.0000
  C   C13       1.0  0.6664526080707632  0.11711551449288755  0.3631546703561029  1.0000
  C   C14       1.0  0.2445935963189285  0.7021455162424531  0.36306462093048714  1.0000
  C   C15       1.0  0.6616626511600218  0.21031644863240467  0.2926312174201017  1.0000
  C   C16       1.0  0.08167825680913413  0.6329712677287916  0.2927103244451672  1.0000
  C   C17       1.0  0.6327341230950908  0.08278253044149148  0.29310885071880216  1.0000
  C   C18       1.0  0.2095915973775035  0.6626490311011537  0.2931156396795203  1.0000
  C   C19       1.0  0.6292669546653471  0.12888688150469818  0.2576614491086246  1.0000
  C   C20       1.0  0.1285089471236063  0.6287987271177826  0.2577352737055135  1.0000
  C   C21       1.0  0.7009361886124097  0.1996899998303476  0.398658678968161  1.0000
  C   C22       1.0  0.19684203858530216  0.7058254339298244  0.39859590862850064  1.0000
  C   C23       1.0  0.591466826437582  0.09134906499485847  0.18279404489560144  1.0000
  C   C24       1.0  0.09150226495016509  0.5905577927566199  0.18286153734150187  1.0000
  C   C25       1.0  0.362727700311254  0.13896789405905713  0.0009365204508356093  1.0000
  C   C26       1.0  0.8619276526417322  0.36233061459322613  0.0006925124409847133  1.0000
  C   C27       1.0  0.6384416060341422  0.8620808489101109  0.0009967775800844769  1.0000
  C   C28       1.0  0.13910183562373388  0.6383105846327625  0.0008985866282457983  1.0000
  C   C29       1.0  0.3624400002812039  0.8619140710080163  0.0007917343203871533  1.0000
  C   C30       1.0  0.8621520987506486  0.6383325197636935  0.0009852193537299044  1.0000
  C   C31       1.0  0.6383216274258319  0.13905305769051074  0.0008344165708323646  1.0000
  C   C32       1.0  0.1389993283320266  0.3626168075193803  0.0009199645284639154  1.0000
  C   C33       1.0  0.7357279683739081  0.17052449720902982  0.9596959862312247  1.0000
  C   C34       1.0  0.7894916134919967  0.7359642898018282  0.9599450545696584  1.0000
  C   C35       1.0  0.22397422749345  0.7891850596050817  0.9597477498216874  1.0000
  C   C36       1.0  0.1706772409692903  0.2240732328326303  0.959854339149686  1.0000
  C   C37       1.0  0.736036507978149  0.7894119090273078  0.9599332588721907  1.0000
  C   C38       1.0  0.78920613871842  0.22390473975412561  0.959700264687683  1.0000
  C   C39       1.0  0.22413711119779117  0.17064993101458012  0.9598706756403246  1.0000
  C   C40       1.0  0.17057241417941782  0.7357185372706141  0.9597329404624304  1.0000
  C   C41       1.0  0.6951246297308273  0.19559292012813503  0.0005400489045542506  1.0000
  C   C42       1.0  0.8050685689219605  0.6949826096194871  0.000542843039397735  1.0000
  C   C43       1.0  0.305446776640153  0.8050174724858435  0.0005415621180659437  1.0000
  C   C44       1.0  0.1956769205482729  0.30557281999652736  0.0004901692900602732  1.0000
  C   C45       1.0  0.6950815967187296  0.8049791355344738  0.0005227856413297683  1.0000
  C   C46       1.0  0.8050985594569227  0.3053398224728241  0.0005100079140873867  1.0000
  C   C47       1.0  0.30566862184650745  0.19562934844410765  0.0004998716920070127  1.0000
  C   C48       1.0  0.19566316319708932  0.6950547789829429  0.0005593560399574768  1.0000
  C   C49       1.0  0.7108215447607691  0.2780863778118459  0.04209536531210034  1.0000
  C   C50       1.0  0.7637523271187092  0.7103248489664935  0.04180780419070372  1.0000
  C   C51       1.0  0.3314631507228826  0.7640051376197051  0.042073607220231644  1.0000
  C   C52       1.0  0.2782598010280708  0.33148868245536534  0.041806294920632994  1.0000
  C   C53       1.0  0.7104320618763039  0.7636448899427323  0.041801992199509606  1.0000
  C   C54       1.0  0.7641757379476959  0.331330288270415  0.04209111609688427  1.0000
  C   C55       1.0  0.3315907932585702  0.2781834464101181  0.04181264143652894  1.0000
  C   C56       1.0  0.27819785654800455  0.7106713032584864  0.042079662345585654  1.0000
  C   C57       1.0  0.8087334272376836  0.15929150472400272  0.9075464638114566  1.0000
  C   C58       1.0  0.748984240841864  0.8094509078590163  0.9081533782871601  1.0000
  C   C59       1.0  0.09881614212087442  0.748259850224784  0.9076256398938652  1.0000
  C   C60       1.0  0.1594383446172927  0.09887864412742428  0.9081422226421765  1.0000
  C   C61       1.0  0.8095176183329826  0.7489265652118888  0.9081713568719819  1.0000
  C   C62       1.0  0.7481310424881472  0.09881062893659022  0.9075242047225841  1.0000
  C   C63       1.0  0.09888827341133317  0.15938595198980474  0.908120405141908  1.0000
  C   C64       1.0  0.159324278937703  0.8088543665161155  0.9076671536004639  1.0000
  C   C65       1.0  0.8244616709910488  0.3844383883158785  0.6393944803282211  1.0000
  C   C66       1.0  0.2546870510444706  0.8168984938723725  0.6397667544447286  1.0000
  C   C67       1.0  0.817427049476592  0.2553459857846363  0.639427932990003  1.0000
  C   C68       1.0  0.38331499144491243  0.823926755167122  0.6389999236740138  1.0000
  C   C69       1.0  0.8585982632631187  0.42038163870396533  0.7088146640991368  1.0000
  C   C70       1.0  0.2886289184998745  0.8510838664268622  0.7091734131152448  1.0000
  C   C71       1.0  0.8518344271367726  0.2888460428326027  0.7088614301095362  1.0000
  C   C72       1.0  0.4197537485628758  0.8579510767774181  0.7084293746003353  1.0000
  C   C73       1.0  0.7371895760757853  0.33164836530767167  0.3974474963058229  1.0000
  C   C74       1.0  0.6927121490698838  0.3893991792958787  0.38435093931787623  1.0000
  C   C75       1.0  0.7283506958686703  0.4695791019907888  0.4155725152955868  1.0000
  C   C76       1.0  0.8091850204929331  0.49298052735398573  0.45966760095679865  1.0000
  C   C77       1.0  0.8541501809046113  0.4358068404049789  0.47251134592332994  1.0000
  C   C78       1.0  0.8183770631561059  0.35582835191959106  0.44192014832402987  1.0000
  C   C79       1.0  0.06278237549204138  0.6724357108201603  0.39764830172425997  1.0000
  C   C80       1.0  0.0194742373349399  0.601059829796384  0.3848462721381408  1.0000
  C   C81       1.0  0.969612742407371  0.6019834021440928  0.41655252792841696  1.0000
  C   C82       1.0  0.9616698668613778  0.6744535573113453  0.4608332626723737  1.0000
  C   C83       1.0  0.003948752920429399  0.7458090910011851  0.4734044702940281  1.0000
  C   C84       1.0  0.054480588529813204  0.7448163823739125  0.44236756136946537  1.0000
  C   C85       1.0  0.6650403974950762  0.06686318292683067  0.39858440254894834  1.0000
  C   C86       1.0  0.6977186607665901  0.9968028317979505  0.3856875824581677  1.0000
  C   C87       1.0  0.695628916647273  0.9482705101544725  0.417862358190881  1.0000
  C   C88       1.0  0.6597659870643183  0.9685481898675617  0.46256206901400515  1.0000
  C   C89       1.0  0.6261544067386708  0.037600732310942  0.4750429494702999  1.0000
  C   C90       1.0  0.629164452499289  0.08669810683541361  0.44362008778815465  1.0000
  C   C91       1.0  0.3303166808698351  0.7386586329916656  0.3984808322773007  1.0000
  C   C92       1.0  0.38743931005474513  0.6928468397591416  0.38578046742891564  1.0000
  C   C93       1.0  0.46819720816467486  0.7268622869920808  0.4180264310265401  1.0000
  C   C94       1.0  0.49279840806078573  0.8073663728531812  0.46272149631931814  1.0000
  C   C95       1.0  0.43632451515281906  0.8536669297527554  0.4751358812430766  1.0000
  C   C96       1.0  0.35575726034484484  0.8195266086684613  0.44356076064374855  1.0000
  O   O1        1.0  0.5002638252339224  0.00016174378713171107  0.00034428795745363773  1.0000
  O   O2        1.0  0.0003590557878823  0.5001473900568741  0.0003805747238842948  1.0000
  O   O3        1.0  0.48586955970778695  0.924563302029185  0.8475669985169176  1.0000
  O   O4        1.0  0.9247829788087928  0.48566557593375154  0.8477115727533115  1.0000
  O   O5        1.0  0.36260852243476904  0.9230632583329382  0.8478162130665936  1.0000
  O   O6        1.0  0.923225549596218  0.36228199047599935  0.8476911973392661  1.0000
  O   O7        1.0  0.5793395605499044  0.13839715029583746  0.15370950820498322  1.0000
  O   O8        1.0  0.0154309454109836  0.5730678030181197  0.15363575553470096  1.0000
  O   O9        1.0  0.5743969412016484  0.015285445085467572  0.15385425168125266  1.0000
  O   O10       1.0  0.1387975330057074  0.5787410140179786  0.1540302592591587  1.0000
  O   O11       1.0  0.33326454351505663  0.06596016540444079  0.9599200355904641  1.0000
  O   O12       1.0  0.8945125840532739  0.33275246550920917  0.9601088253125597  1.0000
  O   O13       1.0  0.6269688612841122  0.8942197291672686  0.9600343833873312  1.0000
  O   O14       1.0  0.06591771098510431  0.627363371148519  0.9603177569302659  1.0000
  O   O15       1.0  0.33279186720695003  0.8945975318937162  0.9602561235427205  1.0000
  O   O16       1.0  0.894225257885424  0.6268379440005348  0.9600078822463801  1.0000
  O   O17       1.0  0.6273408273569603  0.06590064984768423  0.9602790477777747  1.0000
  O   O18       1.0  0.06595572898033449  0.33313726015295225  0.9599146203888224  1.0000
  O   O19       1.0  0.6063352845243699  0.8743625986784452  0.04188515893885368  1.0000
  O   O20       1.0  0.16784589808801798  0.6055139750389172  0.04124373101366523  1.0000
  O   O21       1.0  0.43570682329905713  0.16753144349416266  0.041873039693143654  1.0000
  O   O22       1.0  0.8734335905390439  0.43541860883634353  0.04096081929929346  1.0000
  O   O23       1.0  0.6055168314103341  0.16781788804295417  0.04114187966582959  1.0000
  O   O24       1.0  0.16757460133884902  0.43556359579921633  0.041825345276187385  1.0000
  O   O25       1.0  0.4355716706234532  0.8734201367222099  0.04105461613958996  1.0000
  O   O26       1.0  0.8744711003401805  0.60619843536972  0.04189719955949311  1.0000
  F   F1        1.0  0.8111045985476155  0.43084434723632375  0.6053158408782622  1.0000
  F   F2        1.0  0.1741252338295141  0.796860561210167  0.6061067919266349  1.0000
  F   F3        1.0  0.7971099729027386  0.1748850171345353  0.605387699277358  1.0000
  F   F4        1.0  0.4293615888749472  0.8107100766276788  0.6046387069567984  1.0000
