data_image0
_chemical_formula_structural       Rb4H24C32Cl8O14
_chemical_formula_sum              "Rb4 H24 C32 Cl8 O14"
_cell_length_a       4.305770446315888
_cell_length_b       13.24866739900546
_cell_length_c       18.89345125150975
_cell_angle_alpha    103.3784245807209
_cell_angle_beta     96.55549729012415
_cell_angle_gamma    89.95354057848054

_space_group_name_H-M_alt    "P 1"
_space_group_IT_number       1

loop_
  _space_group_symop_operation_xyz
  'x, y, z'

loop_
  _atom_site_type_symbol
  _atom_site_label
  _atom_site_symmetry_multiplicity
  _atom_site_fract_x
  _atom_site_fract_y
  _atom_site_fract_z
  _atom_site_occupancy
  Rb  Rb1       1.0  0.7067903529869213  0.3704471739423311  0.9308947728120535  1.0000
  Rb  Rb2       1.0  0.7762568402731133  0.1295244759267149  0.06907323294792181  1.0000
  Rb  Rb3       1.0  0.2932131461902472  0.6295557464293607  0.06910551097414702  1.0000
  Rb  Rb4       1.0  0.2237417858300574  0.8704761184176704  0.9309276049018966  1.0000
  H   H1        1.0  0.4154331574999759  0.582891937649201  0.6866146761563245  1.0000
  H   H2        1.0  0.7287288576380533  0.9172177912136235  0.3136646510355023  1.0000
  H   H3        1.0  0.5845677387951865  0.41710788135357285  0.3133866260509493  1.0000
  H   H4        1.0  0.2712625826256314  0.08278047244299815  0.686334032388743  1.0000
  H   H5        1.0  0.19330853853874433  0.2931401909918989  0.03772927425472262  1.0000
  H   H6        1.0  0.1552851893228038  0.20670557427752098  0.9620767345938791  1.0000
  H   H7        1.0  0.8066877022698051  0.7068596245149124  0.9622697868334673  1.0000
  H   H8        1.0  0.8447156594062479  0.7932934656939992  0.037922852791531625  1.0000
  H   H9        1.0  0.988303560238066  0.25678353833207973  0.6125557718600236  1.0000
  H   H10       1.0  0.3763222702039996  0.2429165246010356  0.38737524332645296  1.0000
  H   H11       1.0  0.011695065865104892  0.7432170560123055  0.3874450659897947  1.0000
  H   H12       1.0  0.6236853365423087  0.7570794112852257  0.6126245516193481  1.0000
  H   H13       1.0  0.5996986860208864  0.5370942692592351  0.565361095100066  1.0000
  H   H14       1.0  0.035204909026632  0.962932442381316  0.4348137872213516  1.0000
  H   H15       1.0  0.40029987254576577  0.4629055499372043  0.4346401451674355  1.0000
  H   H16       1.0  0.9647910816062364  0.0370642686504183  0.5651847662980247  1.0000
  H   H17       1.0  0.1256520123330489  0.5609741214296733  0.7630098964246133  1.0000
  H   H18       1.0  0.362919271920262  0.9390746543803203  0.23701822873497505  1.0000
  H   H19       1.0  0.8743513042049571  0.43902646961488756  0.23698947737509715  1.0000
  H   H20       1.0  0.6370770414174131  0.060925935303608  0.7629799006256521  1.0000
  H   H21       1.0  0.47708601485155816  0.6252260493626166  0.8128196299266792  1.0000
  H   H22       1.0  0.6649669949137974  0.8747021956102969  0.1873496288892654  1.0000
  H   H23       1.0  0.5229173692229736  0.37477531682988297  0.1871793414553481  1.0000
  H   H24       1.0  0.33503157863066235  0.12529762067366332  0.8126500234485835  1.0000
  C   C1        1.0  0.5859218981220238  0.44483408737575286  0.7196596322449909  1.0000
  C   C2        1.0  0.866477839496021  0.05505417440529209  0.28045054564328353  1.0000
  C   C3        1.0  0.4140814034381748  0.5551665065812798  0.2803413294843723  1.0000
  C   C4        1.0  0.1335228891377938  0.9449433123578714  0.719548258647841  1.0000
  C   C5        1.0  0.7507084687751585  0.3530113954361554  0.6970522205127809  1.0000
  C   C6        1.0  0.05386749375212221  0.1467981834551182  0.3030034378583793  1.0000
  C   C7        1.0  0.24929722806486862  0.6469899754168082  0.3029494593584446  1.0000
  C   C8        1.0  0.9461379628974314  0.853200080981118  0.6969966758242594  1.0000
  C   C9        1.0  0.8596982056823635  0.32761012572510134  0.6286483062603099  1.0000
  C   C10       1.0  0.2316924184728038  0.17215002434872426  0.37135280345169275  1.0000
  C   C11       1.0  0.1403027581493248  0.6723904684256112  0.37135259352928085  1.0000
  C   C12       1.0  0.7683151932661118  0.8278459105667081  0.6286464621842216  1.0000
  C   C13       1.0  0.8021793113579534  0.3938883931380772  0.5812454794842454  1.0000
  C   C14       1.0  0.2218831483925214  0.105928787889269  0.41879812126506283  1.0000
  C   C15       1.0  0.19781925220129892  0.6061114250875335  0.4187552314733767  1.0000
  C   C16       1.0  0.7781197253454409  0.8940663712947412  0.5812008935991033  1.0000
  C   C17       1.0  0.6439206038400371  0.4855314247519971  0.6023937428885804  1.0000
  C   C18       1.0  0.042282173039403396  0.0144055559398097  0.39772604484237223  1.0000
  C   C19       1.0  0.3560780172705265  0.5144691705632097  0.39760762427112456  1.0000
  C   C20       1.0  0.9577184880578855  0.9855911556754081  0.6022731618664355  1.0000
  C   C21       1.0  0.538265286877362  0.5108088604202693  0.6712053397780696  1.0000
  C   C22       1.0  0.8672972037098461  0.9891747678588771  0.3289679738473908  1.0000
  C   C23       1.0  0.46173567695432643  0.48919173373044333  0.3287955600115212  1.0000
  C   C24       1.0  0.13269891201086642  0.0108234954103992  0.6710308334563923  1.0000
  C   C25       1.0  0.31600609936008794  0.5583614099653075  0.806562846558656  1.0000
  C   C26       1.0  0.509925079330813  0.9415887968019232  0.1935068262798155  1.0000
  C   C27       1.0  0.6839972747292363  0.44163995816884954  0.1934371834431446  1.0000
  C   C28       1.0  0.4900735667427726  0.058411793659161  0.8064918943304636  1.0000
  C   C29       1.0  0.1698819831080058  0.5700193466179969  0.8778536451947406  1.0000
  C   C30       1.0  0.2928953844521445  0.9299738160422494  0.12215551389578397  1.0000
  C   C31       1.0  0.8301145078762318  0.42998357336388443  0.12214592346226995  1.0000
  C   C32       1.0  0.7071080046149946  0.0700275491794287  0.8778429281763639  1.0000
  Cl  Cl1       1.0  0.8178104505543685  0.2689795770205592  0.7547086660826141  1.0000
  Cl  Cl2       1.0  0.06295754416154861  0.23076484291769367  0.2453153334354142  1.0000
  Cl  Cl3       1.0  0.18219524628566564  0.7310217938324044  0.24529301378860424  1.0000
  Cl  Cl4       1.0  0.9370434772214582  0.7692365283226082  0.7546862225562665  1.0000
  Cl  Cl5       1.0  0.9240632129128982  0.3601549286958273  0.4947906093314247  1.0000
  Cl  Cl6       1.0  0.4302030232338367  0.13971735985573727  0.505231786327798  1.0000
  Cl  Cl7       1.0  0.07593061763800792  0.6398441128275323  0.5052093215445554  1.0000
  Cl  Cl8       1.0  0.5697929524212172  0.8602793540884761  0.49476835512123796  1.0000
  O   O1        1.0  0.3123689223150025  0.2499241879261973  0.9998678519244425  1.0000
  O   O2        1.0  0.6876272409718209  0.7500748543743184  0.000132670201196572  1.0000
  O   O3        1.0  0.483448360705971  0.46379592992605717  0.7871083014902854  1.0000
  O   O4        1.0  0.6966444392008101  0.0360854217284441  0.2129910256936541  1.0000
  O   O5        1.0  0.5165526606770285  0.5362054413142445  0.2128932545013954  1.0000
  O   O6        1.0  0.30335647207216  0.9639143943618437  0.7870086885839672  1.0000
  O   O7        1.0  0.20965173367792994  0.5035572884944912  0.9159934500762437  1.0000
  O   O8        1.0  0.29492127763696635  0.9963783510532451  0.0839907177147765  1.0000
  O   O9        1.0  0.790354280874297  0.49644796198148106  0.08400833494611255  1.0000
  O   O10       1.0  0.7050798838116917  0.003624569512112401  0.9160095041316584  1.0000
  O   O11       1.0  0.013198293280240097  0.6524595599918044  0.8919540926700196  1.0000
  O   O12       1.0  0.12189986438089312  0.8476643276937992  0.10804879919181336  1.0000
  O   O13       1.0  0.9867982026965905  0.34754335901925515  0.10804494667709723  1.0000
  O   O14       1.0  0.8781057473121264  0.1523354831550208  0.891948392415927  1.0000
