data_image0
_chemical_formula_structural       CuH16C16N4O4
_chemical_formula_sum              "Cu1 H16 C16 N4 O4"
_cell_length_a       7.161601936696443
_cell_length_b       7.178998451968601
_cell_length_c       8.922462087687542
_cell_angle_alpha    98.31353241773765
_cell_angle_beta     105.81104618886827
_cell_angle_gamma    98.15945259933747

_space_group_name_H-M_alt    "P 1"
_space_group_IT_number       1

loop_
  _space_group_symop_operation_xyz
  'x, y, z'

loop_
  _atom_site_type_symbol
  _atom_site_label
  _atom_site_symmetry_multiplicity
  _atom_site_fract_x
  _atom_site_fract_y
  _atom_site_fract_z
  _atom_site_occupancy
  Cu  Cu1       1.0  3.224806022e-07  1.4333997953e-06  2.431487259999999e-07  1.0000
  H   H1        1.0  0.10688630058302098  0.21715667908510733  0.5694503442568999  1.0000
  H   H2        1.0  0.8931047081673568  0.7828359398675814  0.4305409336132866  1.0000
  H   H3        1.0  0.2637362375724308  0.055438848321266186  0.5357258770532665  1.0000
  H   H4        1.0  0.7362618847160223  0.9445578310307636  0.4642773929624651  1.0000
  H   H5        1.0  0.18142439763316537  0.5587723571492378  0.5394725992564415  1.0000
  H   H6        1.0  0.8185795769539724  0.44122414349529027  0.4605340346464997  1.0000
  H   H7        1.0  0.5714467419582974  0.17076130342996984  0.46935918810525107  1.0000
  H   H8        1.0  0.4285540259699873  0.8292338444410065  0.5306466491070976  1.0000
  H   H9        1.0  0.36413561144003387  0.3351197410785076  0.21420959199168266  1.0000
  H   H10       1.0  0.6358672722215742  0.6648797277712857  0.785789352625599  1.0000
  H   H11       1.0  0.43332135105332265  0.6529536526060368  0.12607238352051542  1.0000
  H   H12       1.0  0.5666757222806923  0.3470459862237405  0.8739243256113053  1.0000
  H   H13       1.0  0.19836437673481563  0.658244834343236  0.8516484268098875  1.0000
  H   H14       1.0  0.8016295056579639  0.34175919071525834  0.14835269506226462  1.0000
  H   H15       1.0  0.958513281824395  0.2954299908522415  0.7627678684780148  1.0000
  H   H16       1.0  0.04147631627208882  0.7045741464181108  0.23723355148307945  1.0000
  C   C1        1.0  0.0699474559677711  0.1143697462266928  0.3224126596544109  1.0000
  C   C2        1.0  0.9300162132074375  0.8856366111721812  0.6775761227664672  1.0000
  C   C3        1.0  0.20017355885650553  0.1767308347001446  0.49601000472441814  1.0000
  C   C4        1.0  0.7998281188248767  0.8232628830954525  0.50399022410145  1.0000
  C   C5        1.0  0.3587413793175144  0.34397483791356354  0.5061884991674288  1.0000
  C   C6        1.0  0.6412628338080496  0.6560231135857747  0.4938161210807549  1.0000
  C   C7        1.0  0.320312281923286  0.5310472789369101  0.5210792804686617  1.0000
  C   C8        1.0  0.6796901666325539  0.4689492794757514  0.47892481985986973  1.0000
  C   C9        1.0  0.540565683022912  0.3155470059857706  0.4851958530127544  1.0000
  C   C10       1.0  0.45943824959314133  0.6844495033862685  0.5148096524884521  1.0000
  C   C11       1.0  0.2856558871285912  0.3705522356912922  0.10318139541928416  1.0000
  C   C12       1.0  0.7143384566234233  0.6294489520745541  0.8968104897124431  1.0000
  C   C13       1.0  0.199434793975712  0.5358771164146316  0.9106846115971546  1.0000
  C   C14       1.0  0.800556075896026  0.46411977323050735  0.08931614616218295  1.0000
  C   C15       1.0  0.08146998842537562  0.3568348089752647  0.8679164266977107  1.0000
  C   C16       1.0  0.918530713707881  0.6431733375751204  0.13208878850781489  1.0000
  N   N1        1.0  0.13647229716324463  0.2555238885563043  0.9886282279559563  1.0000
  N   N2        1.0  0.8635243434945327  0.7444800820584732  0.011370062252844105  1.0000
  N   N3        1.0  0.3259326724954406  0.5408691768792337  0.05939509046027781  1.0000
  N   N4        1.0  0.6740698624320985  0.4591346063005446  0.9406076920374671  1.0000
  O   O1        1.0  0.15784276271391923  0.03605198303505829  0.22737359265549623  1.0000
  O   O2        1.0  0.8421730840322114  0.9639413839943741  0.7726226334692609  1.0000
  O   O3        1.0  0.8981296953191705  0.14631071089908693  0.28196388050518095  1.0000
  O   O4        1.0  0.10191030249041688  0.8536805461350027  0.7180356791749529  1.0000
