data_image0
_chemical_formula_structural       Dy2H18C24N2O16
_chemical_formula_sum              "Dy2 H18 C24 N2 O16"
_cell_length_a       5.898925094548651
_cell_length_b       10.27259371171777
_cell_length_c       11.529249555304709
_cell_angle_alpha    105.60223980379368
_cell_angle_beta     102.13873169825023
_cell_angle_gamma    106.89240228473689

_space_group_name_H-M_alt    "P 1"
_space_group_IT_number       1

loop_
  _space_group_symop_operation_xyz
  'x, y, z'

loop_
  _atom_site_type_symbol
  _atom_site_label
  _atom_site_symmetry_multiplicity
  _atom_site_fract_x
  _atom_site_fract_y
  _atom_site_fract_z
  _atom_site_occupancy
  Dy  Dy1       1.0  0.862872691822638  0.8195332963798239  0.562024811772808  1.0000
  Dy  Dy2       1.0  0.13712193894437522  0.1804645676949335  0.4379767298164835  1.0000
  H   H1        1.0  0.26542136042627373  0.7254386354788595  0.6511369151787462  1.0000
  H   H2        1.0  0.7345712457025328  0.27455596126940657  0.3488610279649292  1.0000
  H   H3        1.0  0.2157231562867922  0.7915547959769569  0.7843811803828584  1.0000
  H   H4        1.0  0.784278025553668  0.20844526865581514  0.21561898393780865  1.0000
  H   H5        1.0  0.20215316215058043  0.8675545480431953  0.4102419215893462  1.0000
  H   H6        1.0  0.7978294035278212  0.1324378232597994  0.5897552856651771  1.0000
  H   H7        1.0  0.1982288286158324  0.7183680477830948  0.4202119983302736  1.0000
  H   H8        1.0  0.8017609793908135  0.2816276206820092  0.579788504122014  1.0000
  H   H9        1.0  0.8753201527997304  0.06190451675435329  0.005268244957797228  1.0000
  H   H10       1.0  0.12468237879953392  0.9380977260960817  0.9947343183266139  1.0000
  H   H11       1.0  0.19598202881162766  0.3130955289825721  0.7736894779585409  1.0000
  H   H12       1.0  0.8040309299800227  0.686906769791463  0.22631074233790827  1.0000
  H   H13       1.0  0.05988579445805454  0.4448789499980564  0.9377379109983222  1.0000
  H   H14       1.0  0.9401342548372256  0.555132049730645  0.06226167453229449  1.0000
  H   H15       1.0  0.20674571195477415  0.4549658683952275  0.16220886745994537  1.0000
  H   H16       1.0  0.793271526936799  0.5450461974288671  0.837790672640885  1.0000
  H   H17       1.0  0.490974604025645  0.33105973363009167  0.21809567535730415  1.0000
  H   H18       1.0  0.5090358202181663  0.6689468842483849  0.781906173129961  1.0000
  C   C1        1.0  0.7453747168336734  0.11160719640556492  0.9738682809665489  1.0000
  C   C2        1.0  0.2546260741709576  0.888395035875057  0.026134093985106775  1.0000
  C   C3        1.0  0.6614705222473419  0.09334644133923582  0.8434995472262938  1.0000
  C   C4        1.0  0.33852236792504453  0.9066514121657078  0.15650180603024205  1.0000
  C   C5        1.0  0.7425433716988152  0.002050344343018702  0.7494617660171838  1.0000
  C   C6        1.0  0.2574512754436073  0.9979475272269981  0.2505432485566459  1.0000
  C   C7        1.0  0.501804211744954  0.16154083377085024  0.8075700352985749  1.0000
  C   C8        1.0  0.498196027547934  0.8384548924916688  0.19242899241188383  1.0000
  C   C9        1.0  0.38847446529102575  0.15052001982405733  0.6742902007375305  1.0000
  C   C10       1.0  0.6115256508341957  0.8494811233477364  0.3257109747322459  1.0000
  C   C11       1.0  0.4252753951431103  0.24455469912423672  0.9007127263918943  1.0000
  C   C12       1.0  0.5747310043873881  0.7554453953441466  0.09928713468092097  1.0000
  C   C13       1.0  0.2621568204009535  0.3167653793968697  0.8705996192956317  1.0000
  C   C14       1.0  0.7378550685816165  0.683237996042365  0.12940074390380116  1.0000
  C   C15       1.0  0.18581443558669977  0.3908697006151272  0.963391040110906  1.0000
  C   C16       1.0  0.8141983877557378  0.6091380094467311  0.036608723206462905  1.0000
  C   C17       1.0  0.26864663798653515  0.39622828158640994  0.08927336557989209  1.0000
  C   C18       1.0  0.73136926342778  0.6037816116414733  0.9107263802955926  1.0000
  C   C19       1.0  0.4292694544414744  0.3280228654325867  0.12147121579874207  1.0000
  C   C20       1.0  0.5707381634924718  0.671984820415098  0.8785314555048769  1.0000
  C   C21       1.0  0.5130278048411085  0.2520054949343162  0.028634714018828295  1.0000
  C   C22       1.0  0.4869764632589338  0.7479967566121104  0.9713671693522127  1.0000
  C   C23       1.0  0.4170677765434121  0.5282629945350052  0.5357356445649798  1.0000
  C   C24       1.0  0.5829250890658674  0.47173484772704216  0.46426049921475954  1.0000
  N   N1        1.0  0.6753950190842488  0.18630493846483634  0.0625137857822509  1.0000
  N   N2        1.0  0.32460751660886444  0.8136973062594136  0.937489645748293  1.0000
  O   O1        1.0  0.6701795333490564  0.9915713068997787  0.6322230283477948  1.0000
  O   O2        1.0  0.32981858679492143  0.008426582062227801  0.3677806263992877  1.0000
  O   O3        1.0  0.8770150162221315  0.9335733723987902  0.7824105788572452  1.0000
  O   O4        1.0  0.12296756583167222  0.0664190063994639  0.21759010138180904  1.0000
  O   O5        1.0  0.18086075615341463  0.047368365257589994  0.6081563290457054  1.0000
  O   O6        1.0  0.8191298621818534  0.9526229810285187  0.39184582986754174  1.0000
  O   O7        1.0  0.48122626056838413  0.2520880146444213  0.6357529652263165  1.0000
  O   O8        1.0  0.5187619259174384  0.7479022244677864  0.3642443328877647  1.0000
  O   O9        1.0  0.4863292889134955  0.6667142917625314  0.5843990242306133  1.0000
  O   O10       1.0  0.5136574000827636  0.33327917479838487  0.41559281320224517  1.0000
  O   O11       1.0  0.23056571423656191  0.4358258144729135  0.5412286392554861  1.0000
  O   O12       1.0  0.7694323690627556  0.5641720576247522  0.45876720127640863  1.0000
  O   O13       1.0  0.15808328596950366  0.7705542377189687  0.6888362886664082  1.0000
  O   O14       1.0  0.8419096042028756  0.22944361578597489  0.3111650645901277  1.0000
  O   O15       1.0  0.10151087994771779  0.7810951766021504  0.425563801195011  1.0000
  O   O16       1.0  0.8984723483285321  0.21889827818822735  0.5744320008029857  1.0000
