data_image0
_chemical_formula_structural       Cu2H22C28S2I2N4O4
_chemical_formula_sum              "Cu2 H22 C28 S2 I2 N4 O4"
_cell_length_a       8.723665194759926
_cell_length_b       9.019641295286853
_cell_length_c       10.285866148065336
_cell_angle_alpha    64.82609492748072
_cell_angle_beta     87.42269432199232
_cell_angle_gamma    85.66841206917584

_space_group_name_H-M_alt    "P 1"
_space_group_IT_number       1

loop_
  _space_group_symop_operation_xyz
  'x, y, z'

loop_
  _atom_site_type_symbol
  _atom_site_label
  _atom_site_symmetry_multiplicity
  _atom_site_fract_x
  _atom_site_fract_y
  _atom_site_fract_z
  _atom_site_occupancy
  Cu  Cu1       1.0  0.3884858106612441  0.9075637349166216  0.9931138560168763  1.0000
  Cu  Cu2       1.0  0.611521623552214  0.09243010897081659  0.006889975834667417  1.0000
  H   H1        1.0  0.051168396477969204  0.17628612884607256  0.946315342736817  1.0000
  H   H2        1.0  0.948834980484804  0.8237162528650115  0.05368545582320663  1.0000
  H   H3        1.0  0.9234629959899009  0.10873858290638337  0.8540204778618874  1.0000
  H   H4        1.0  0.07653880653570871  0.8912686567358461  0.14598343665084465  1.0000
  H   H5        1.0  0.22862998742403562  0.4232655994280562  0.9792162115548706  1.0000
  H   H6        1.0  0.771374405132235  0.5767405421729561  0.020774425284223266  1.0000
  H   H7        1.0  0.04195383781533478  0.4445822317459259  0.8010185579932952  1.0000
  H   H8        1.0  0.9580448971297956  0.5554225871948191  0.19897368961006387  1.0000
  H   H9        1.0  0.9187261646066388  0.7138776212618793  0.6402369129044275  1.0000
  H   H10       1.0  0.08126391201085431  0.28613439038547034  0.3597597259635848  1.0000
  H   H11       1.0  0.9879311795028652  0.9672627514752958  0.6600502126193108  1.0000
  H   H12       1.0  0.012065023895480899  0.032741924820037106  0.33995771230330973  1.0000
  H   H13       1.0  0.3253691410404613  0.4237100066515467  0.13257131263943484  1.0000
  H   H14       1.0  0.6746317518100184  0.576294787471255  0.8674296370224042  1.0000
  H   H15       1.0  0.463339167012876  0.24233203997967218  0.3137298241860975  1.0000
  H   H16       1.0  0.5366698974523487  0.7576716777887426  0.6862674132594365  1.0000
  H   H17       1.0  0.6623237642657784  0.16490618712018795  0.5030321042517586  1.0000
  H   H18       1.0  0.3376783957286094  0.8350814383457956  0.4969731851954224  1.0000
  H   H19       1.0  0.7173464819695996  0.6765032080921073  0.387110166209638  1.0000
  H   H20       1.0  0.2826516955023806  0.3234929886901838  0.6128872140704689  1.0000
  H   H21       1.0  0.5250416617913416  0.7557033483794766  0.19476478659349544  1.0000
  H   H22       1.0  0.474961115458825  0.24429292603908684  0.805231469476496  1.0000
  C   C1        1.0  0.019028331280559  0.0703739460480932  0.9294194809740547  1.0000
  C   C2        1.0  0.9809807630759835  0.9296297851173916  0.07057580612126214  1.0000
  C   C3        1.0  0.14297643446229097  0.837676892678452  0.8344205311979922  1.0000
  C   C4        1.0  0.8570198872025473  0.16232656972437806  0.16558589266980311  1.0000
  C   C5        1.0  0.2128830913871198  0.6842405531830664  0.9292224350145448  1.0000
  C   C6        1.0  0.7871101315071697  0.3157592076404398  0.07078057264015315  1.0000
  C   C7        1.0  0.1752015022309052  0.5439935877787079  0.9129541961466289  1.0000
  C   C8        1.0  0.8247891494746754  0.45601108022685816  0.08704221296843433  1.0000
  C   C9        1.0  0.06955193938066628  0.5546340847117578  0.8116249265886211  1.0000
  C   C10       1.0  0.9304501906506529  0.4453720348174527  0.18836383441775695  1.0000
  C   C11       1.0  0.9995604425031247  0.7059886576254114  0.7209073767772625  1.0000
  C   C12       1.0  0.0004333229186670067  0.29401971865801346  0.27909147337579304  1.0000
  C   C13       1.0  0.03845017370377243  0.8472396496883615  0.7314839838785903  1.0000
  C   C14       1.0  0.9615505709888907  0.15276634492986568  0.26852041718829167  1.0000
  C   C15       1.0  0.3677139118037971  0.5361506703360985  0.13053492814904646  1.0000
  C   C16       1.0  0.6322910246504776  0.4638468467452979  0.8694637296333739  1.0000
  C   C17       1.0  0.4797270808976463  0.5042433094949034  0.24102919373981288  1.0000
  C   C18       1.0  0.520276414331626  0.49575785832367814  0.7589701037653854  1.0000
  C   C19       1.0  0.5189762775518929  0.3372787073873552  0.33028002315112565  1.0000
  C   C20       1.0  0.48102322028106653  0.6627125175887085  0.6697308191531379  1.0000
  C   C21       1.0  0.6295920714202268  0.2928046739553309  0.434977389506173  1.0000
  C   C22       1.0  0.370418847553367  0.7071905107117757  0.5650171046977378  1.0000
  C   C23       1.0  0.698429259085124  0.4173133480554583  0.4535575806295996  1.0000
  C   C24       1.0  0.3015694038009968  0.582675464893846  0.5464454209482241  1.0000
  C   C25       1.0  0.6599082453773236  0.5833484950539328  0.37010630131789685  1.0000
  C   C26       1.0  0.3400871081285217  0.4166537625161054  0.6298947580533963  1.0000
  C   C27       1.0  0.5524612849594988  0.6259406025161026  0.2628021009393962  1.0000
  C   C28       1.0  0.4475321595221402  0.3740567238238839  0.7371988797807633  1.0000
  S   S1        1.0  0.18853524726795  0.023985438740652395  0.8385093034667295  1.0000
  S   S2        1.0  0.8114691875277701  0.9760181879944269  0.16149100853914433  1.0000
  I   I1        1.0  0.360790558720737  0.06169449240643839  0.16128535366524233  1.0000
  I   I2        1.0  0.6392107324674541  0.9383054126537116  0.838714467652864  1.0000
  N   N1        1.0  0.3185747249012891  0.6791160632150266  0.03344962303737024  1.0000
  N   N2        1.0  0.6814276403642765  0.320886361048423  0.9665424362054225  1.0000
  N   N3        1.0  0.8171767382951742  0.3723940225640519  0.5611235571166802  1.0000
  N   N4        1.0  0.18281933715780244  0.6275984233880079  0.43888012144267924  1.0000
  O   O1        1.0  0.87859173164928  0.2307816394794244  0.6068382414361367  1.0000
  O   O2        1.0  0.12140690264428144  0.7692084275535861  0.3931604101458533  1.0000
  O   O3        1.0  0.8510518255136431  0.4770912816201616  0.6023728507396201  1.0000
  O   O4        1.0  0.14893865081207028  0.5228986009850016  0.39763483822962814  1.0000
