data_image0
_chemical_formula_structural       U4H16C16O28
_chemical_formula_sum              "U4 H16 C16 O28"
_cell_length_a       6.611641801939097
_cell_length_b       9.611133461664675
_cell_length_c       13.504484291460598
_cell_angle_alpha    78.78485054696944
_cell_angle_beta     87.30006238748317
_cell_angle_gamma    85.7157416614935

_space_group_name_H-M_alt    "P 1"
_space_group_IT_number       1

loop_
  _space_group_symop_operation_xyz
  'x, y, z'

loop_
  _atom_site_type_symbol
  _atom_site_label
  _atom_site_symmetry_multiplicity
  _atom_site_fract_x
  _atom_site_fract_y
  _atom_site_fract_z
  _atom_site_occupancy
  U   U1        1.0  0.3885272367930667  0.6067104473363828  0.8086144568779192  1.0000
  U   U2        1.0  0.6114678366309079  0.3932918126427296  0.19138177198065887  1.0000
  U   U3        1.0  0.0361700068757429  0.15920350362011257  0.7428621205091236  1.0000
  U   U4        1.0  0.9638315064379556  0.840796695632804  0.2571416219180663  1.0000
  H   H1        1.0  0.03785456992865481  0.8236289145115521  0.8208181620312731  1.0000
  H   H2        1.0  0.9621454475734694  0.1763702084816217  0.17917984637266934  1.0000
  H   H3        1.0  0.003130684864430586  0.7714977282025117  0.718062579625439  1.0000
  H   H4        1.0  0.9968692060061528  0.22850245774088046  0.2819352850535141  1.0000
  H   H5        1.0  0.7268217972820707  0.5693101903628988  0.9568234169758869  1.0000
  H   H6        1.0  0.2731834541465332  0.430695383101515  0.043170592094931196  1.0000
  H   H7        1.0  0.8317188219368108  0.6451915008398218  0.8491645193211215  1.0000
  H   H8        1.0  0.16828417864380193  0.3548076590808762  0.1508311803696643  1.0000
  H   H9        1.0  0.6758491039426177  0.6143996772972786  0.5539134199928242  1.0000
  H   H10       1.0  0.3241517486546996  0.3856058377918146  0.4460881233663018  1.0000
  H   H11       1.0  0.32126495508171626  0.659655224801945  0.5267216890856476  1.0000
  H   H12       1.0  0.6787342586757816  0.3403513355874281  0.4732797545727295  1.0000
  H   H13       1.0  0.21174293050953713  0.03510592096206011  0.028295130719421004  1.0000
  H   H14       1.0  0.7882561777659375  0.9648889287824575  0.9717086781596297  1.0000
  H   H15       1.0  0.44765869243763495  0.19857469185514995  0.9445428462656128  1.0000
  H   H16       1.0  0.5523420408982956  0.8014191131316439  0.05546032209262819  1.0000
  C   C1        1.0  0.663168225084853  0.41517638286152453  0.6542068278228896  1.0000
  C   C2        1.0  0.3368352995931189  0.5848323552929813  0.3457956767559055  1.0000
  C   C3        1.0  0.6008408468608338  0.514899969958279  0.5581729136016522  1.0000
  C   C4        1.0  0.3991611104914483  0.48510875271650633  0.4418266741151485  1.0000
  C   C5        1.0  0.36748594053042904  0.5460100096911661  0.5392447777275678  1.0000
  C   C6        1.0  0.632513273227076  0.4539965506982072  0.4607566659308092  1.0000
  C   C7        1.0  0.23789452475417516  0.4662389034791302  0.6229901628820473  1.0000
  C   C8        1.0  0.7621088393243552  0.5337581262007235  0.3770117460311938  1.0000
  C   C9        1.0  0.2520945338079343  0.8925318009812884  0.9262758524764865  1.0000
  C   C10       1.0  0.7479139953002943  0.10747168188256503  0.0737183559958297  1.0000
  C   C11       1.0  0.3380720500508688  0.981968467384732  0.9917143329827243  1.0000
  C   C12       1.0  0.6619194282864457  0.018026296822860405  0.008285994909726892  1.0000
  C   C13       1.0  0.49457172762271284  0.08920930599291671  0.9360704976579302  1.0000
  C   C14       1.0  0.5054170071198242  0.910783295929278  0.06393168617609747  1.0000
  C   C15       1.0  0.5373441879621339  0.0927993905706259  0.8248261465827657  1.0000
  C   C16       1.0  0.4626589090739657  0.9071997655522142  0.1751747346589312  1.0000
  O   O1        1.0  0.483396629926645  0.740632247788888  0.7084984904177746  1.0000
  O   O2        1.0  0.5165937160969918  0.259359309918132  0.2915023126738846  1.0000
  O   O3        1.0  0.3011484931659041  0.47750950598537406  0.916862130596812  1.0000
  O   O4        1.0  0.698847668616331  0.5224970201892348  0.08313792066692119  1.0000
  O   O5        1.0  0.055209411705696716  0.039417987291351195  0.6545423945750105  1.0000
  O   O6        1.0  0.9447861518477226  0.9605810794967128  0.34546018723100513  1.0000
  O   O7        1.0  0.018152899314067387  0.26595688056678324  0.8391597034926763  1.0000
  O   O8        1.0  0.981855887810035  0.7340327614113777  0.16084307942276874  1.0000
  O   O9        1.0  0.5822234438194798  0.4348442427632051  0.7389142985496168  1.0000
  O   O10       1.0  0.41776929346303854  0.5651526649947627  0.2610856978686158  1.0000
  O   O11       1.0  0.7954739858681706  0.3161249922432319  0.6460376867468727  1.0000
  O   O12       1.0  0.2045293846195548  0.6838848099465906  0.35396319366382306  1.0000
  O   O13       1.0  0.18129208136763003  0.5291109394371958  0.6963656320673267  1.0000
  O   O14       1.0  0.8187031738053039  0.47089025542150165  0.30363370140247536  1.0000
  O   O15       1.0  0.19996074515870532  0.34025430568606657  0.6201802021939716  1.0000
  O   O16       1.0  0.800048513562686  0.6597438586288505  0.37981990645420194  1.0000
  O   O17       1.0  0.3410227278386841  0.7734408400736825  0.9186719733143891  1.0000
  O   O18       1.0  0.65898252358992  0.22656473339073102  0.081322035756429  1.0000
  O   O19       1.0  0.09081171304032408  0.9416545059358657  0.8781008845533125  1.0000
  O   O20       1.0  0.9091840047033416  0.0583434968168817  0.1219033214208096  1.0000
  O   O21       1.0  0.38898107772809715  0.11340187845659952  0.7663482331185636  1.0000
  O   O22       1.0  0.6110208456562701  0.8865940727933153  0.23365090265766503  1.0000
  O   O23       1.0  0.7198081767209388  0.07438815045513543  0.7938760167329165  1.0000
  O   O24       1.0  0.2801971436044398  0.9256174202965182  0.20612169344569514  1.0000
  O   O25       1.0  0.029791056666027778  0.7356525325727149  0.789393423744379  1.0000
  O   O26       1.0  0.9702073219962843  0.264347635720739  0.21060448495881456  1.0000
  O   O27       1.0  0.7089466288069842  0.5998972374299856  0.8828549327957023  1.0000
  O   O28       1.0  0.29105378236909735  0.40009869616999083  0.11714424700476662  1.0000
