data_image0
_chemical_formula_structural       H30Pb2C54N8O8F2
_chemical_formula_sum              "H30 Pb2 C54 N8 O8 F2"
_cell_length_a       9.069362934208685
_cell_length_b       9.577401623019814
_cell_length_c       15.448564835009776
_cell_angle_alpha    91.6943635090009
_cell_angle_beta     100.90035314378814
_cell_angle_gamma    112.78485799019938

_space_group_name_H-M_alt    "P 1"
_space_group_IT_number       1

loop_
  _space_group_symop_operation_xyz
  'x, y, z'

loop_
  _atom_site_type_symbol
  _atom_site_label
  _atom_site_symmetry_multiplicity
  _atom_site_fract_x
  _atom_site_fract_y
  _atom_site_fract_z
  _atom_site_occupancy
  H   H1        1.0  0.7879649621552004  0.5466157841696742  0.5978073299322303  1.0000
  H   H2        1.0  0.21209881344432807  0.453422391409788  0.402183746310385  1.0000
  H   H3        1.0  0.48714145752914106  0.9605629316884997  0.3679082533019127  1.0000
  H   H4        1.0  0.5126930210160764  0.0393350424236942  0.6320929068262302  1.0000
  H   H5        1.0  0.5980353410702081  0.9600247013168115  0.5302401887099889  1.0000
  H   H6        1.0  0.4018972150278728  0.03993888741526061  0.4697565563257413  1.0000
  H   H7        1.0  0.690754590574734  0.7562111024626715  0.577341138151148  1.0000
  H   H8        1.0  0.3092864409459252  0.24381360709144675  0.4226536898858129  1.0000
  H   H9        1.0  0.4959937310577516  0.5223430289095675  0.06315717278541647  1.0000
  H   H10       1.0  0.5039910852301971  0.4776556847472904  0.9368387232291439  1.0000
  H   H11       1.0  0.5979018153253648  0.3141141685819377  0.08448910423080487  1.0000
  H   H12       1.0  0.4021115533465789  0.6859037843299873  0.9155056870079505  1.0000
  H   H13       1.0  0.6818435619787024  0.25836421773762197  0.23972427354867423  1.0000
  H   H14       1.0  0.3181913701580116  0.7416592738462029  0.7602678911636717  1.0000
  H   H15       1.0  0.8935720656292642  0.44833651947414666  0.696320686036124  1.0000
  H   H16       1.0  0.10635174589670267  0.5516144816476684  0.3036736880087716  1.0000
  H   H17       1.0  0.02927936780989168  0.3305040538459778  0.802749384933186  1.0000
  H   H18       1.0  0.9706258022806152  0.669448363369483  0.1972512234024109  1.0000
  H   H19       1.0  0.03402325346709029  0.0274204391205402  0.5927174688620269  1.0000
  H   H20       1.0  0.9660364767583401  0.9726192673276797  0.40728414569628046  1.0000
  H   H21       1.0  0.8953908708159162  0.15011912730460614  0.4806194491869035  1.0000
  H   H22       1.0  0.10468658236325015  0.8499247861169437  0.5193739028470999  1.0000
  H   H23       1.0  0.8786432743488531  0.23215817915843218  0.15422154386996567  1.0000
  H   H24       1.0  0.12140163231735104  0.767814059799811  0.8458026701583705  1.0000
  H   H25       1.0  0.12215345768952802  0.2937342236728854  0.9370685824480844  1.0000
  H   H26       1.0  0.8778251249162211  0.7063180570033227  0.06292808679231146  1.0000
  H   H27       1.0  0.9161341570095659  0.039217428355229296  0.8606554798393447  1.0000
  H   H28       1.0  0.0838602668122802  0.9608244378071118  0.1393378284857576  1.0000
  H   H29       1.0  0.688243896531091  0.8853410876750302  0.9317429750500352  1.0000
  H   H30       1.0  0.31178301888984805  0.1146669154138706  0.06826113742668129  1.0000
  Pb  Pb1       1.0  0.3636622354814135  0.74741115432915  0.15797543320428534  1.0000
  Pb  Pb2       1.0  0.6363401107619352  0.25259451188083665  0.84202513810623  1.0000
  C   C1        1.0  0.5290529863343068  0.8727694966133369  0.39110355461447455  1.0000
  C   C2        1.0  0.470842747552325  0.1271635452681039  0.6088958698767185  1.0000
  C   C3        1.0  0.5902806814610175  0.8719510220485562  0.4815896572827186  1.0000
  C   C4        1.0  0.40966457899791214  0.12801597847124677  0.5184079451900844  1.0000
  C   C5        1.0  0.6431909550120168  0.7591891961375197  0.5073691149809179  1.0000
  C   C6        1.0  0.35681541287597446  0.2408151731787598  0.4926273910005534  1.0000
  C   C7        1.0  0.6373950517316801  0.6500115029932092  0.4422163282836493  1.0000
  C   C8        1.0  0.36262275384660814  0.3499985307133927  0.5577802477731666  1.0000
  C   C9        1.0  0.5752126858143073  0.6605325850384389  0.3515409490108254  1.0000
  C   C10       1.0  0.4247691347236966  0.3394514119115827  0.6484571275080668  1.0000
  C   C11       1.0  0.576250638791329  0.5579518211727077  0.2803957468136318  1.0000
  C   C12       1.0  0.42374282683228165  0.44204344146672975  0.7195998561583536  1.0000
  C   C13       1.0  0.537186665481471  0.49681468838293347  0.1292185387334115  1.0000
  C   C14       1.0  0.46279927668350507  0.5031840035060358  0.870776841892507  1.0000
  C   C15       1.0  0.593826734652872  0.3799756409368129  0.1420693927787369  1.0000
  C   C16       1.0  0.40617695672755627  0.620035487816864  0.8579248830275714  1.0000
  C   C17       1.0  0.6405403631362674  0.3503806897122601  0.2277459375158344  1.0000
  C   C18       1.0  0.35947618763619715  0.6496314796094111  0.772246614685919  1.0000
  C   C19       1.0  0.6351235212127335  0.441785863237186  0.299345873420748  1.0000
  C   C20       1.0  0.3648855945304988  0.5582195319804839  0.7006477217659466  1.0000
  C   C21       1.0  0.6930985169454759  0.43040192639474384  0.390839597519502  1.0000
  C   C22       1.0  0.30692883462259607  0.5696170687148057  0.6091536020247331  1.0000
  C   C23       1.0  0.6938644381930814  0.5322246967619221  0.458196680319368  1.0000
  C   C24       1.0  0.30616950411422295  0.4677966325500833  0.5417985971293078  1.0000
  C   C25       1.0  0.8047739441106004  0.3749644497380231  0.5137235674568856  1.0000
  C   C26       1.0  0.19525629847917975  0.6250533170407025  0.4862673767442729  1.0000
  C   C27       1.0  0.8840094124200492  0.3061544111296968  0.5794856496302145  1.0000
  C   C28       1.0  0.11600195270430902  0.6938509639497141  0.4205075620778659  1.0000
  C   C29       1.0  0.9217158880575127  0.3564332227266078  0.6705186278045333  1.0000
  C   C30       1.0  0.0782479064239041  0.6435427522331238  0.329476653435897  1.0000
  C   C31       1.0  0.9982098485108964  0.2897087915283336  0.7324913251471655  1.0000
  C   C32       1.0  0.001739118784392686  0.7102617013322431  0.26750866867716644  1.0000
  C   C33       1.0  0.0359565312792327  0.1718811237554831  0.7024375623994601  1.0000
  C   C34       1.0  0.9640306609456746  0.8281154793134319  0.2975631366788463  1.0000
  C   C35       1.0  0.0006303616929131066  0.11921407601238343  0.6128103630214383  1.0000
  C   C36       1.0  0.9993985786321249  0.8808062943315064  0.38718950329796803  1.0000
  C   C37       1.0  0.924873368794522  0.1873672357111857  0.551419067604357  1.0000
  C   C38       1.0  0.07515895865340384  0.8126529757390345  0.4485766633544727  1.0000
  C   C39       1.0  0.6363004383662344  0.9566126427531574  0.09216294483652383  1.0000
  C   C40       1.0  0.36374274112243654  0.0433604284079507  0.9078526523676018  1.0000
  C   C41       1.0  0.7682153348957925  0.04988750501683371  0.046870217293182706  1.0000
  C   C42       1.0  0.23181686456553052  0.9500991704609731  0.9531428492051432  1.0000
  C   C43       1.0  0.8851915260765182  0.19086633422315913  0.0892626941589612  1.0000
  C   C44       1.0  0.1148355329819708  0.8091215897237376  0.9107530111610487  1.0000
  C   C45       1.0  0.010731884513226899  0.2793964707532481  0.04916130694126511  1.0000
  C   C46       1.0  0.9892775129763366  0.7206129500589284  0.9508491717361736  1.0000
  C   C47       1.0  0.02078802464067311  0.22479349632861564  0.9662251851976223  1.0000
  C   C48       1.0  0.9792087085163387  0.7752384271119795  0.033776772563847104  1.0000
  C   C49       1.0  0.9050980072239411  0.08344082249446669  0.923828565598292  1.0000
  C   C50       1.0  0.09491026154455555  0.9165864683928934  0.0761721383748579  1.0000
  C   C51       1.0  0.7786625143103479  0.9962003245894663  0.9637485206455239  1.0000
  C   C52       1.0  0.2213615148347756  0.0038088600352495  0.0362565525769369  1.0000
  C   C53       1.0  0.13317681288818053  0.43171293340363803  0.0948166500446561  1.0000
  C   C54       1.0  0.8668233126087018  0.5683009594384885  0.9051908151505047  1.0000
  N   N1        1.0  0.5207964984503308  0.7698902794735504  0.328754377503806  1.0000
  N   N2        1.0  0.47912533578976024  0.23005637370712156  0.6712455747151084  1.0000
  N   N3        1.0  0.5262834072855397  0.5813294104510192  0.195767082004437  1.0000
  N   N4        1.0  0.4736989593448159  0.41866365185249793  0.8042297992149869  1.0000
  N   N5        1.0  0.7616681103815492  0.3336960572294386  0.42619643739378427  1.0000
  N   N6        1.0  0.23835665548130439  0.6663194705664637  0.5737951500076123  1.0000
  N   N7        1.0  0.7656531898623625  0.49510129309425827  0.5356288448349318  1.0000
  N   N8        1.0  0.23438574730836592  0.5049210653783904  0.4643637856390157  1.0000
  O   O1        1.0  0.5414097473839519  0.820283813172992  0.05501883697545648  1.0000
  O   O2        1.0  0.4586146160241071  0.1797025701274109  0.9449855385687087  1.0000
  O   O3        1.0  0.6229800878405028  0.012233535195754501  0.1641644489982355  1.0000
  O   O4        1.0  0.37708332468463374  0.9877216467987395  0.8358618707832903  1.0000
  O   O5        1.0  0.22165823686695776  0.5225688094918298  0.04751400629383801  1.0000
  O   O6        1.0  0.7783338856807304  0.47744727938015075  0.9524905854821029  1.0000
  O   O7        1.0  0.14478503901462159  0.4649392284833597  0.17687968356176503  1.0000
  O   O8        1.0  0.8552216843403285  0.5350769283687171  0.8231279176418481  1.0000
  F   F1        1.0  0.110996398082726  0.105798616358129  0.7622717632169937  1.0000
  F   F2        1.0  0.888989997470404  0.8942015661230871  0.23773338876739564  1.0000
