data_image0
_chemical_formula_structural       Na4H48C56N12O12
_chemical_formula_sum              "Na4 H48 C56 N12 O12"
_cell_length_a       8.148174057
_cell_length_b       10.409578599206103
_cell_length_c       15.569
_cell_angle_alpha    93.30120044557286
_cell_angle_beta     90.0
_cell_angle_gamma    90.0

_space_group_name_H-M_alt    "P 1"
_space_group_IT_number       1

loop_
  _space_group_symop_operation_xyz
  'x, y, z'

loop_
  _atom_site_type_symbol
  _atom_site_label
  _atom_site_symmetry_multiplicity
  _atom_site_fract_x
  _atom_site_fract_y
  _atom_site_fract_z
  _atom_site_occupancy
  Na  Na1       1.0  0.3416470954751461  0.3196499701825744  0.6796730284460393  1.0000
  Na  Na2       1.0  0.841647460158079  0.1803507490033951  0.8203294078764782  1.0000
  Na  Na3       1.0  0.6583524066218873  0.6803495436885072  0.32032920089414313  1.0000
  Na  Na4       1.0  0.1583557237454301  0.8196526138694011  0.17967104275128776  1.0000
  H   H1        1.0  0.037254972448607815  0.4858527511207242  0.3295970931895482  1.0000
  H   H2        1.0  0.5372737461639119  0.014143156813098301  0.17040515789095415  1.0000
  H   H3        1.0  0.9627310296913552  0.5141496495016469  0.6704039626918215  1.0000
  H   H4        1.0  0.4627318922772474  0.985855394807551  0.8295899690787109  1.0000
  H   H5        1.0  0.0223448834949238  0.2552831144510535  0.36438792688746696  1.0000
  H   H6        1.0  0.5223501572531504  0.2447118312323369  0.13561621405066396  1.0000
  H   H7        1.0  0.9776497095268157  0.7447192861713177  0.6356150558999332  1.0000
  H   H8        1.0  0.4776481175750646  0.7552867203883125  0.8643821244290562  1.0000
  H   H9        1.0  0.2633203445324952  0.1203159447055882  0.5418589240358784  1.0000
  H   H10       1.0  0.763309663796008  0.379687661231678  0.9581474772439049  1.0000
  H   H11       1.0  0.7366705666827684  0.879685493666358  0.4581433794011075  1.0000
  H   H12       1.0  0.23668983830103235  0.6203176261419827  0.04185368978266979  1.0000
  H   H13       1.0  0.045628627640887515  0.1293437782353521  0.5409296157560844  1.0000
  H   H14       1.0  0.5456179469043934  0.37065501644976  0.959074673375653  1.0000
  H   H15       1.0  0.9543671926496771  0.8706557356357295  0.459072613584098  1.0000
  H   H16       1.0  0.4543803279238148  0.6293493086734685  0.04092709890453249  1.0000
  H   H17       1.0  0.1522230614274207  0.0815834404165088  0.44493120750247767  1.0000
  H   H18       1.0  0.6522148352285768  0.41841054301645647  0.05507610789729969  1.0000
  H   H19       1.0  0.8477703043254934  0.9184131867032904  0.5550721952965176  1.0000
  H   H20       1.0  0.3477846668684634  0.5815889708546251  0.9449267637448953  1.0000
  H   H21       1.0  0.14086468845298586  0.7067421484694094  0.367022029659438  1.0000
  H   H22       1.0  0.6408797803618143  0.7932551978363521  0.1329799556500149  1.0000
  H   H23       1.0  0.859126222762278  0.2932564031512399  0.6329808049343555  1.0000
  H   H24       1.0  0.3591221762728694  0.20674624053558693  0.8670191362769228  1.0000
  H   H25       1.0  0.4742105375965196  0.8945407157973051  0.5968038418635755  1.0000
  H   H26       1.0  0.9742158113547532  0.6054604795101781  0.9031918686193803  1.0000
  H   H27       1.0  0.5257951008446398  0.1054530245712044  0.4031943113741292  1.0000
  H   H28       1.0  0.0257898270864132  0.394541921112193  0.09680597575193417  1.0000
  H   H29       1.0  0.6137338212238959  0.8055700788333625  0.7215612370868667  1.0000
  H   H30       1.0  0.1137310020033127  0.6944301542236886  0.7784318671396446  1.0000
  H   H31       1.0  0.3862767262925715  0.19442366153514  0.2784343469427881  1.0000
  H   H32       1.0  0.8862672728249025  0.3055683973969607  0.22156390213203275  1.0000
  H   H33       1.0  0.5027519013883506  0.5294994683533645  0.8178534596834977  1.0000
  H   H34       1.0  0.0027429458236483  0.9705046137054083  0.6821449311527059  1.0000
  H   H35       1.0  0.49724882797750775  0.4705058190202962  0.18214578043704677  1.0000
  H   H36       1.0  0.9972455108539648  0.0294939379152481  0.3178540496290195  1.0000
  H   H37       1.0  0.6854799567274412  0.6201001575449112  0.802610298537985  1.0000
  H   H38       1.0  0.1854746829692075  0.8799039245138617  0.6973861653921885  1.0000
  H   H39       1.0  0.3145219999072495  0.379903205327885  0.19739015208977403  1.0000
  H   H40       1.0  0.8145186827837065  0.1200955893572271  0.3026083563238728  1.0000
  H   H41       1.0  0.6595293574249652  0.4645610358667156  0.7507845169590082  1.0000
  H   H42       1.0  0.1595228563979134  0.0354425700705434  0.749211607488611  1.0000
  H   H43       1.0  0.34047750828501944  0.5354394402547982  0.2492196763356134  1.0000
  H   H44       1.0  0.8404729638926514  0.9645569438005382  0.2507822719254306  1.0000
  H   H45       1.0  0.3015104958256813  0.8568330082156663  0.46485809584942916  1.0000
  H   H46       1.0  0.8015157695839081  0.6431614513388126  0.03514056680475619  1.0000
  H   H47       1.0  0.6984890062713589  0.1431588076519859  0.5351431948015203  1.0000
  H   H48       1.0  0.1984898688572514  0.3568390247827011  0.9648610572818155  1.0000
  C   C1        1.0  0.2597048105743482  0.4917888740204361  0.5158375916050131  1.0000
  C   C2        1.0  0.7597088570637567  0.0082079961638115  0.9841653388259031  1.0000
  C   C3        1.0  0.7402897824473911  0.5082087153497881  0.4841664905443962  1.0000
  C   C4        1.0  0.2402943268397593  0.99179151770727  0.015834963608249094  1.0000
  C   C5        1.0  0.1855826826257996  0.540379633959958  0.4414613954578214  1.0000
  C   C6        1.0  0.6855879563840332  0.959615787844946  0.05853730424477279  1.0000
  C   C7        1.0  0.814413137664765  0.4596179554102662  0.5585369059734971  1.0000
  C   C8        1.0  0.3144152275194827  0.0403837260261355  0.9414591443773188  1.0000
  C   C9        1.0  0.0967296469720011  0.4523279461562169  0.38693115822494656  1.0000
  C   C10       1.0  0.5967373752678782  0.0476660372767483  0.11307101875875249  1.0000
  C   C11       1.0  0.9032661733185636  0.5476686809635822  0.6130703176680184  1.0000
  C   C12       1.0  0.4032621268291621  0.9523315520934759  0.8869259980685412  1.0000
  C   C13       1.0  0.08803812915407151  0.3251117036205358  0.4060924487160235  1.0000
  C   C14       1.0  0.5880384938369971  0.1748842043132868  0.0939104446664842  1.0000
  C   C15       1.0  0.911957691136493  0.6748897347514102  0.5939092124189569  1.0000
  C   C16       1.0  0.411961008260036  0.82511627180822  0.9060886102120448  1.0000
  C   C17       1.0  0.1655659280917092  0.2843238324139961  0.4810760907240734  1.0000
  C   C18       1.0  0.6655650655058167  0.21566918876853694  0.018923480003174096  1.0000
  C   C19       1.0  0.8344249831235544  0.7156727947057959  0.5189234582628612  1.0000
  C   C20       1.0  0.334436891128874  0.78432647610083  0.981073462727309  1.0000
  C   C21       1.0  0.15713950033995874  0.146041709938828  0.5032193790479269  1.0000
  C   C22       1.0  0.6571312741411148  0.3539590092471414  0.9967843418786086  1.0000
  C   C23       1.0  0.8428538654129554  0.8539635774348326  0.49678178797865497  1.0000
  C   C24       1.0  0.3428694552247435  0.6460414668743724  0.003215997603945195  1.0000
  C   C25       1.0  0.2016881314149401  0.67308070394391  0.4240039907359899  1.0000
  C   C26       1.0  0.7016970869796424  0.8269176046122838  0.07599931622588227  1.0000
  C   C27       1.0  0.7983089161444497  0.326920734428036  0.576001524211051  1.0000
  C   C28       1.0  0.2983048696550412  0.173082871509223  0.9240023078606894  1.0000
  C   C29       1.0  0.3530324683637289  0.5795307171858823  0.5731730358697644  1.0000
  C   C30       1.0  0.8530389693907807  0.9204704781216009  0.9268271707272646  1.0000
  C   C31       1.0  0.6469670337333115  0.42046879668520626  0.42682919347042503  1.0000
  C   C32       1.0  0.1469678963192038  0.0795328847511954  0.07317199529647668  1.0000
  C   C33       1.0  0.3663679714150732  0.7109702768567274  0.5531974094615959  1.0000
  C   C34       1.0  0.866374472442125  0.7890280316994661  0.946800116782178  1.0000
  C   C35       1.0  0.6336339852196178  0.2890273125134968  0.4468021765737403  1.0000
  C   C36       1.0  0.1336287114613839  0.2109743689229049  0.053197085287131095  1.0000
  C   C37       1.0  0.4604933539406346  0.7930406159905701  0.6093304837591588  1.0000
  C   C38       1.0  0.9604961731612178  0.7069605793169131  0.8906639421197793  1.0000
  C   C39       1.0  0.5395171935758256  0.2069540866283646  0.3906651373189049  1.0000
  C   C40       1.0  0.0395045562046477  0.293041821305458  0.10933133304349947  1.0000
  C   C41       1.0  0.5362882492975203  0.7438734680437662  0.6795442091538815  1.0000
  C   C42       1.0  0.036290339152238  0.7561286895141492  0.8204502537734512  1.0000
  C   C43       1.0  0.4637149346059957  0.2561221968256007  0.3204527335766016  1.0000
  C   C44       1.0  0.963707935675977  0.2438717866073645  0.17954430499100474  1.0000
  C   C45       1.0  0.5165009940336844  0.6122174020262747  0.6951290730543817  1.0000
  C   C46       1.0  0.0165006293507588  0.8877828310307764  0.8048672426821852  1.0000
  C   C47       1.0  0.4835046444074749  0.3877782628430849  0.30486915428012645  1.0000
  C   C48       1.0  0.9835001000151066  0.1122176450907375  0.19512924298830817  1.0000
  C   C49       1.0  0.5964023308786821  0.5544968100114644  0.7707081248191443  1.0000
  C   C50       1.0  0.09639582985162323  0.9455063097968832  0.7292895866666526  1.0000
  C   C51       1.0  0.4036020802936591  0.4455036661100493  0.22929349926743464  1.0000
  C   C52       1.0  0.9035987631701161  0.054494166324630604  0.27070625670182835  1.0000
  C   C53       1.0  0.28876285454146  0.7555715465154549  0.4781255077388095  1.0000
  C   C54       1.0  0.7887767191814632  0.7444257997903136  0.021875835268630798  1.0000
  C   C55       1.0  0.7112329657491046  0.2444231561034798  0.5218771786613701  1.0000
  C   C56       1.0  0.2112350556038223  0.2555746763312001  0.9781251465159356  1.0000
  N   N1        1.0  0.2471375778073934  0.3662373247278339  0.5345870300435605  1.0000
  N   N2        1.0  0.7471391697591443  0.1337614699572782  0.9654153321821466  1.0000
  N   N3        1.0  0.7528557879455207  0.6337612268928225  0.4654151622482202  1.0000
  N   N4        1.0  0.2528640141443645  0.8662399684146607  0.034584402046803596  1.0000
  N   N5        1.0  0.4263556443072645  0.5334649023734244  0.6433404543486531  1.0000
  N   N6        1.0  0.9263596907966729  0.9665334061827764  0.856659641103164  1.0000
  N   N7        1.0  0.5736450850585939  0.46652595124379564  0.3566607992538877  1.0000
  N   N8        1.0  0.07364472037566121  0.0334680321891696  0.143339450823774  1.0000
  N   N9        1.0  0.0779070250045351  0.3729547949763159  0.7983507070156504  1.0000
  N   N10       1.0  0.5779098442251183  0.1270468864600858  0.7016517663552688  1.0000
  N   N11       1.0  0.9220961588989809  0.6270514546477699  0.20165306626737586  1.0000
  N   N12       1.0  0.4220896578719221  0.872953589661428  0.2983498577313027  1.0000
  O   O1        1.0  0.2006216348060974  0.44700189002881535  0.8011354986157996  1.0000
  O   O2        1.0  0.7006232267578554  0.0530007536580186  0.6988650848974911  1.0000
  O   O3        1.0  0.7993840036350619  0.5530024350944132  0.19886884287242876  1.0000
  O   O4        1.0  0.2993787298768282  0.9470016469643596  0.30113597098388567  1.0000
  O   O5        1.0  0.0780653426829474  0.2728480337915329  0.7460450036056159  1.0000
  O   O6        1.0  0.5780644800970549  0.22714979864315407  0.7539598907797327  1.0000
  O   O7        1.0  0.921940295758219  0.7271553290812705  0.25395865853219846  1.0000
  O   O8        1.0  0.4219325674623349  0.7728506774783597  0.24604173330684626  1.0000
  O   O9        1.0  0.9542665566060364  0.39477382346570516  0.8460724032930287  1.0000
  O   O10       1.0  0.45427110099840473  0.1052317069724111  0.6539276490634619  1.0000
  O   O11       1.0  0.0457317182221786  0.6052391619113919  0.15392520630871329  1.0000
  O   O12       1.0  0.5457284010986356  0.894765882397813  0.34607514848192966  1.0000
