data_image0
_chemical_formula_structural       Nd2Ag2H20C40N12O16
_chemical_formula_sum              "Nd2 Ag2 H20 C40 N12 O16"
_cell_length_a       9.221315317964264
_cell_length_b       11.185299139029656
_cell_length_c       11.185272911737243
_cell_angle_alpha    100.64919642751437
_cell_angle_beta     106.42861775320736
_cell_angle_gamma    106.42875537532876

_space_group_name_H-M_alt    "P 1"
_space_group_IT_number       1

loop_
  _space_group_symop_operation_xyz
  'x, y, z'

loop_
  _atom_site_type_symbol
  _atom_site_label
  _atom_site_symmetry_multiplicity
  _atom_site_fract_x
  _atom_site_fract_y
  _atom_site_fract_z
  _atom_site_occupancy
  Nd  Nd1       1.0  0.24999944848927663  0.59375758005163  0.4062413681155661  1.0000
  Nd  Nd2       1.0  0.7500015108949328  0.40624348406285543  0.5937598313636486  1.0000
  Ag  Ag1       1.0  0.25000123086507386  0.8649844543716867  0.1350171746134805  1.0000
  Ag  Ag2       1.0  0.7500005856919362  0.13501856828859365  0.8649854582421668  1.0000
  H   H1        1.0  0.1258346048207812  0.5632609858740878  0.9313926985443289  1.0000
  H   H2        1.0  0.3741628858292146  0.06860545903911232  0.43673561646181724  1.0000
  H   H3        1.0  0.8741650738224395  0.4367371465209475  0.06860680014487738  1.0000
  H   H4        1.0  0.6258400335955657  0.9313975324609205  0.5632645821796416  1.0000
  H   H5        1.0  0.6298600225238714  0.6797422921136232  0.16195462104626296  1.0000
  H   H6        1.0  0.8701410408653416  0.8380442621445069  0.3202572704247117  1.0000
  H   H7        1.0  0.3701433305055204  0.3202616847585489  0.83804674355806  1.0000
  H   H8        1.0  0.12986204674547963  0.1619538987547173  0.6797439111147839  1.0000
  H   H9        1.0  0.4813238234355239  0.6512174351062185  0.7500749873009411  1.0000
  H   H10       1.0  0.01867069955048349  0.2499200589713624  0.3487788244444374  1.0000
  H   H11       1.0  0.5186714513397916  0.34877579615311305  0.2499208543544853  1.0000
  H   H12       1.0  0.9813271868889474  0.7500790967193255  0.651224911537426  1.0000
  H   H13       1.0  0.8790634638806766  0.6706237493271486  0.12550102090695953  1.0000
  H   H14       1.0  0.6209341406416514  0.8744981348287695  0.3293731646804758  1.0000
  H   H15       1.0  0.12093577112149487  0.32937338549725576  0.8744964132701014  1.0000
  H   H16       1.0  0.3790652621973082  0.12550195067682776  0.6706275059514937  1.0000
  H   H17       1.0  0.7115776048333018  0.8321522940740564  0.8230538151565625  1.0000
  H   H18       1.0  0.788421965627265  0.1769481070461296  0.16784577789528046  1.0000
  H   H19       1.0  0.2884199957654446  0.1678488025287024  0.17695019421878302  1.0000
  H   H20       1.0  0.21158192897421904  0.823051951406427  0.8321523442742206  1.0000
  C   C1        1.0  0.2518744954047775  0.5916669263707064  0.9382081647561834  1.0000
  C   C2        1.0  0.24812302578028783  0.061790123911997306  0.4083363354306755  1.0000
  C   C3        1.0  0.7481262857569605  0.40833895614609633  0.06179115327571344  1.0000
  C   C4        1.0  0.7518752641544707  0.9382099805553492  0.5916658708661942  1.0000
  C   C5        1.0  0.37446447741537264  0.6171150044373305  0.05737029826832442  1.0000
  C   C6        1.0  0.12553060677635136  0.9426284308879719  0.3828878950968999  1.0000
  C   C7        1.0  0.62553250131986  0.3828899129971007  0.9426297651475579  1.0000
  C   C8        1.0  0.8744714855849127  0.0573726386617395  0.6171135658159841  1.0000
  C   C9        1.0  0.5367078421721275  0.6589290959969601  0.067687478263089  1.0000
  C   C10       1.0  0.9632890321485094  0.932313209595513  0.34107043162080686  1.0000
  C   C11       1.0  0.4632908512579662  0.34107195724705974  0.932313198348787  1.0000
  C   C12       1.0  0.03671215285781669  0.0676858404159475  0.6589251031692172  1.0000
  C   C13       1.0  0.574512141700346  0.6743262640143328  0.9581408323434956  1.0000
  C   C14       1.0  0.9254868299767199  0.0418592592375902  0.3256716300273227  1.0000
  C   C15       1.0  0.425488700029213  0.32567191041140847  0.041861623427230724  1.0000
  C   C16       1.0  0.07451669123872051  0.9581398870337811  0.67433071747503  1.0000
  C   C17       1.0  0.45335797352982593  0.6432842063899001  0.8373899283519394  1.0000
  C   C18       1.0  0.04663648649526658  0.1626072470172559  0.3567090189924542  1.0000
  C   C19       1.0  0.5466384542954047  0.3567090547016464  0.162607971835719  1.0000
  C   C20       1.0  0.9533618134759299  0.8373928696485824  0.6432940858537038  1.0000
  C   C21       1.0  0.29157946312539446  0.6034360238291755  0.8280255924912154  1.0000
  C   C22       1.0  0.20841685824275663  0.17197244923239913  0.3965641493419342  1.0000
  C   C23       1.0  0.7084165307459643  0.3965640331722329  0.17197339529046468  1.0000
  C   C24       1.0  0.7915822687919559  0.8280295893837605  0.6034376932327988  1.0000
  C   C25       1.0  0.8753581975187006  0.7236872520232468  0.05335464951041048  1.0000
  C   C26       1.0  0.6246399986659694  0.9466447184267179  0.27631042472515327  1.0000
  C   C27       1.0  0.12464191472913198  0.27631186574393507  0.9466460151416527  1.0000
  C   C28       1.0  0.37536166009068245  0.053355365750853416  0.7236898702248666  1.0000
  C   C29       1.0  0.7924790103613404  0.8062848872632034  0.8962548335142061  1.0000
  C   C30       1.0  0.7075208628847776  0.10374398501809878  0.19371182220871214  1.0000
  C   C31       1.0  0.20751969310517646  0.19371617817930092  0.10374674164695111  1.0000
  C   C32       1.0  0.29248401692983345  0.8962531525854802  0.8062851220381191  1.0000
  C   C33       1.0  0.3340888422240766  0.6067501825433583  0.17688555443457696  1.0000
  C   C34       1.0  0.16590601438654326  0.8231117412691876  0.39325102190321826  1.0000
  C   C35       1.0  0.6659068457337513  0.3932517909731388  0.823111909642016  1.0000
  C   C36       1.0  0.834098353965267  0.17688935134948033  0.6067518604262858  1.0000
  C   C37       1.0  0.1622052505074194  0.5839165465701869  0.7007225769336713  1.0000
  C   C38       1.0  0.33779131861039957  0.29927432624161554  0.4160828174437087  1.0000
  C   C39       1.0  0.8378015492020553  0.41608246962497464  0.2992697722782722  1.0000
  C   C40       1.0  0.6621988622624926  0.7007305585814265  0.5839156773701646  1.0000
  N   N1        1.0  0.7391495474744331  0.7291254525325712  0.9690713829507018  1.0000
  N   N2        1.0  0.7608462630233179  0.030924453975558198  0.2708694895237329  1.0000
  N   N3        1.0  0.26084742157362945  0.27087167142136087  0.03092552835902043  1.0000
  N   N4        1.0  0.23915455863338758  0.9690736960532008  0.7291311691484239  1.0000
  N   N5        1.0  0.002082745083285344  0.7932204065432275  0.03132717587234168  1.0000
  N   N6        1.0  0.49791534707131296  0.9686749424300702  0.20677902524583666  1.0000
  N   N7        1.0  0.9979152690472193  0.20678165103468157  0.9686762023672914  1.0000
  N   N8        1.0  0.502086577453163  0.0313231764384483  0.7932191992121318  1.0000
  N   N9        1.0  0.9505796583652073  0.845548030919268  0.9316663557417755  1.0000
  N   N10       1.0  0.5494190126756991  0.0683359813466922  0.1544502792023223  1.0000
  N   N11       1.0  0.04941878936991629  0.15445501203078751  0.0683381884607215  1.0000
  N   N12       1.0  0.45058288173949285  0.9316621009263458  0.8455452496077882  1.0000
  O   O1        1.0  0.1863693463570399  0.5798682884119232  0.1685984985494571  1.0000
  O   O2        1.0  0.31362734467062126  0.8314008612951582  0.4201376055345064  1.0000
  O   O3        1.0  0.8136280258371047  0.4201375656006834  0.831399136632143  1.0000
  O   O4        1.0  0.6863762841630321  0.16860116246645876  0.5798625871270461  1.0000
  O   O5        1.0  0.4478379051347403  0.6269270643576449  0.2831399745551479  1.0000
  O   O6        1.0  0.052156784924242944  0.7168566506695059  0.3730712514532541  1.0000
  O   O7        1.0  0.5521556649821521  0.3730700432905963  0.7168561524535734  1.0000
  O   O8        1.0  0.9478491500092332  0.283145432756541  0.6269330582727762  1.0000
  O   O9        1.0  0.020431417976752266  0.5668325653341884  0.7010667889995403  1.0000
  O   O10       1.0  0.4795661281150956  0.29893360144720305  0.4331686642610819  1.0000
  O   O11       1.0  0.9795629217675741  0.4331636477665839  0.2989347233249759  1.0000
  O   O12       1.0  0.5204346634323258  0.7010645119860754  0.5668292987632242  1.0000
  O   O13       1.0  0.20505764660255466  0.5933303345728547  0.6037979455936409  1.0000
  O   O14       1.0  0.2949406559210601  0.3961996068530098  0.4066700775564556  1.0000
  O   O15       1.0  0.7949395003187193  0.4066697522607683  0.39620310072027826  1.0000
  O   O16       1.0  0.7050628652943729  0.6037995394183612  0.5933322699458969  1.0000
