data_image0
_chemical_formula_structural       Co4H44C72N8O16
_chemical_formula_sum              "Co4 H44 C72 N8 O16"
_cell_length_a       11.328526391547713
_cell_length_b       13.165139787317376
_cell_length_c       17.35513655678404
_cell_angle_alpha    89.98292941660223
_cell_angle_beta     90.15229175598523
_cell_angle_gamma    92.72728724922858

_space_group_name_H-M_alt    "P 1"
_space_group_IT_number       1

loop_
  _space_group_symop_operation_xyz
  'x, y, z'

loop_
  _atom_site_type_symbol
  _atom_site_label
  _atom_site_symmetry_multiplicity
  _atom_site_fract_x
  _atom_site_fract_y
  _atom_site_fract_z
  _atom_site_occupancy
  Co  Co1       1.0  0.46590676355437194  0.5381390344228835  0.3866793911058579  1.0000
  Co  Co2       1.0  0.5350142176730726  0.9619102008551154  0.8868400173762438  1.0000
  Co  Co3       1.0  0.5340990485724858  0.4618630024824243  0.6133168419915123  1.0000
  Co  Co4       1.0  0.4649739317259856  0.038091035115876117  0.11317291018057318  1.0000
  H   H1        1.0  0.5302756345276903  0.7368303243106167  0.6783844079541053  1.0000
  H   H2        1.0  0.4691721002555268  0.7630645856999722  0.1782360428202594  1.0000
  H   H3        1.0  0.46971740445966487  0.26316331935571924  0.3216239151281712  1.0000
  H   H4        1.0  0.5308295508225099  0.23690931136009397  0.8217405990556299  1.0000
  H   H5        1.0  0.5126892525223282  0.0546972014743474  0.6309583664419876  1.0000
  H   H6        1.0  0.4866276867702907  0.445263052542721  0.1308243501179263  1.0000
  H   H7        1.0  0.48728332411671715  0.9453093206151237  0.3690741377054394  1.0000
  H   H8        1.0  0.5134142912960299  0.5547223377962069  0.8691534780140272  1.0000
  H   H9        1.0  0.4916635464089012  0.8352145388766771  0.44421340716977636  1.0000
  H   H10       1.0  0.5086934133841509  0.664923952164216  0.9442289256629693  1.0000
  H   H11       1.0  0.5083605111288917  0.1648149083619188  0.5558018533089424  1.0000
  H   H12       1.0  0.49131429804501175  0.33508113181456173  0.0557546323737483  1.0000
  H   H13       1.0  0.26337839432932236  0.38711601197690726  0.3552097748321899  1.0000
  H   H14       1.0  0.7370155537385938  0.112975693722916  0.8550524364254315  1.0000
  H   H15       1.0  0.7366117879808483  0.6129080416523255  0.6447812563763478  1.0000
  H   H16       1.0  0.26295318620534397  0.886975316978024  0.1449564464698199  1.0000
  H   H17       1.0  0.0447501746411376  0.3784217637079052  0.35655460287145496  1.0000
  H   H18       1.0  0.955671769958755  0.12162786154269871  0.8564140432653815  1.0000
  H   H19       1.0  0.9552381351360137  0.6215992413287665  0.6434623559935346  1.0000
  H   H20       1.0  0.04429317860205371  0.8783178173012658  0.1436040561054597  1.0000
  H   H21       1.0  0.8678439998374824  0.37614842285618283  0.3639637041404953  1.0000
  H   H22       1.0  0.13264519034361646  0.1239292127762042  0.8640449384283215  1.0000
  H   H23       1.0  0.13218155191761127  0.6238764674456547  0.6360354245868366  1.0000
  H   H24       1.0  0.8673437997510189  0.8760712648151453  0.1359668375489846  1.0000
  H   H25       1.0  0.6513316322750881  0.3850919746096935  0.36047408505028494  1.0000
  H   H26       1.0  0.3491346356492001  0.1148336071163811  0.8605850209621764  1.0000
  H   H27       1.0  0.3486962145827234  0.6149268399350876  0.6395077603969667  1.0000
  H   H28       1.0  0.6508494746180913  0.8851927149928612  0.1394002427106003  1.0000
  H   H29       1.0  0.6686835319824025  0.6917286977926767  0.4125632641306183  1.0000
  H   H30       1.0  0.33200702319520997  0.8080873390417125  0.9122803012611129  1.0000
  H   H31       1.0  0.33129672056049486  0.3082922962242804  0.5873983726281365  1.0000
  H   H32       1.0  0.668035115963768  0.19192010842165536  0.08764278564515848  1.0000
  H   H33       1.0  0.8863619891100852  0.6982783190011191  0.4165574836528378  1.0000
  H   H34       1.0  0.114355752714566  0.8016630433644708  0.9162883402180171  1.0000
  H   H35       1.0  0.11361899583386047  0.3017548366503959  0.5834514006778946  1.0000
  H   H36       1.0  0.8856774524601291  0.19830788527071525  0.0836543337668445  1.0000
  H   H37       1.0  0.06271504253091109  0.695757662438396  0.4242730815702913  1.0000
  H   H38       1.0  0.938237003901257  0.8042880731667877  0.9239280565030654  1.0000
  H   H39       1.0  0.9373034833239443  0.3042656849461096  0.5757836610860068  1.0000
  H   H40       1.0  0.06175967751822499  0.19567364257498104  0.0760889163266185  1.0000
  H   H41       1.0  0.2804568729056526  0.6895278462482609  0.4181127135086129  1.0000
  H   H42       1.0  0.7204389788612813  0.8104082152911332  0.9178205393555174  1.0000
  H   H43       1.0  0.7195637916153782  0.31048790885699873  0.5818887167812719  1.0000
  H   H44       1.0  0.27956196563224717  0.18955046787027638  0.0822004709226789  1.0000
  C   C1        1.0  0.5087837998207617  0.6694124617099889  0.529512297410868  1.0000
  C   C2        1.0  0.49131183143195045  0.8307329428320431  0.0295625127853398  1.0000
  C   C3        1.0  0.49121989879600386  0.3305994541463377  0.4704925757152338  1.0000
  C   C4        1.0  0.5086772769293046  0.169269816147299  0.9704486868396954  1.0000
  C   C5        1.0  0.5114342764323679  0.7767479297053724  0.5577938978262083  1.0000
  C   C6        1.0  0.4883960661398207  0.7232776421344129  0.0577389574131431  1.0000
  C   C7        1.0  0.4885691211612693  0.22325790163503714  0.44221961870369597  1.0000
  C   C8        1.0  0.5116034022562558  0.27672133977007013  0.9422549657030926  1.0000
  C   C9        1.0  0.5222719305798335  0.797903869589824  0.6365419879369298  1.0000
  C   C10       1.0  0.4772351988437221  0.7020292608373636  0.13642885013327796  1.0000
  C   C11       1.0  0.477716899110227  0.2020935663049599  0.3634692120438245  1.0000
  C   C12       1.0  0.5227700010265791  0.2979446429476553  0.8635564378170955  1.0000
  C   C13       1.0  0.5208626859518047  0.8988416104994882  0.661503016510025  1.0000
  C   C14       1.0  0.4784730992150229  0.6010639152751339  0.1613705244185368  1.0000
  C   C15       1.0  0.4791247000442452  0.10116190486453291  0.3385099101250404  1.0000
  C   C16       1.0  0.5215450937955096  0.39892218276325764  0.8386130448895697  1.0000
  C   C17       1.0  0.5271623960309312  0.9228816709638185  0.7455461271079074  1.0000
  C   C18       1.0  0.472184654121996  0.5769407654419751  0.2453786927668204  1.0000
  C   C19       1.0  0.4728268292478217  0.0770891520450618  0.2544766001864147  1.0000
  C   C20       1.0  0.5277964458615825  0.4230787071128006  0.7546048404559471  1.0000
  C   C21       1.0  0.51259015439593  0.9776580511219208  0.6079799696443189  1.0000
  C   C22       1.0  0.48679828245199974  0.52231963760336  0.107866987541918  1.0000
  C   C23       1.0  0.4873886514371009  0.022350007068482107  0.3920375585913405  1.0000
  C   C24       1.0  0.5132323838387761  0.47766876909203404  0.8921137113849085  1.0000
  C   C25       1.0  0.5037760626624743  0.9580729532230521  0.5284596317333339  1.0000
  C   C26       1.0  0.4960813941951016  0.5419589017545619  0.028401227854565995  1.0000
  C   C27       1.0  0.49621773853753126  0.04193513848542809  0.47155157138250553  1.0000
  C   C28       1.0  0.5039615451347145  0.45804473882976293  0.9715794800568672  1.0000
  C   C29       1.0  0.5013957834695616  0.8559923379348506  0.5047296463712243  1.0000
  C   C30       1.0  0.4986275642446997  0.6441033123678184  0.0047015467664195  1.0000
  C   C31       1.0  0.49861596238289235  0.1440211149081208  0.49528618137351543  1.0000
  C   C32       1.0  0.5013883396942517  0.3559063511527754  0.9952860512878559  1.0000
  C   C33       1.0  0.21430887297190537  0.45359652456601657  0.3700122035142428  1.0000
  C   C34       1.0  0.7861837725012465  0.0464455009261613  0.8697722208603693  1.0000
  C   C35       1.0  0.7856795483267686  0.5464275249411941  0.6299811309549596  1.0000
  C   C36       1.0  0.2138011990409936  0.953511626765568  0.1302476232723535  1.0000
  C   C37       1.0  0.09160042662239223  0.44990056530889433  0.37139686293054547  1.0000
  C   C38       1.0  0.9088786052102619  0.05016086628647539  0.8711878735428655  1.0000
  C   C39       1.0  0.9083852474569267  0.5501204332145165  0.6286264318245287  1.0000
  C   C40       1.0  0.09110244620728031  0.9497886487546978  0.12883657761936007  1.0000
  C   C41       1.0  0.0306601786843217  0.5369130328464351  0.3908158166449738  1.0000
  C   C42       1.0  0.9699682165508533  0.9631110566930517  0.8905621150082792  1.0000
  C   C43       1.0  0.9693442618827317  0.4631118068023242  0.6092213228070236  1.0000
  C   C44       1.0  0.030033384956048802  0.03684382771309911  0.1094456436975051  1.0000
  C   C45       1.0  0.9002461226280473  0.5369167474968037  0.3910177582011727  1.0000
  C   C46       1.0  0.1003756475303987  0.9630624065474932  0.8908654990746  1.0000
  C   C47       1.0  0.09976077810181036  0.46310505782727773  0.6090049787665635  1.0000
  C   C48       1.0  0.8996244017768259  0.0369145281531544  0.1091134458586893  1.0000
  C   C49       1.0  0.8292569901138902  0.44870844382373326  0.3755150296167642  1.0000
  C   C50       1.0  0.17122220961039858  0.051315484191995595  0.875528885741403  1.0000
  C   C51       1.0  0.17075872638655196  0.551314144202266  0.6244817860014038  1.0000
  C   C52       1.0  0.8287628266069617  0.9486773826641651  0.1244707874706847  1.0000
  C   C53       1.0  0.7070914247860995  0.45249132794776165  0.3740494419343676  1.0000
  C   C54       1.0  0.2933652076152241  0.047483472779674706  0.8740961793349982  1.0000
  C   C55       1.0  0.29292427192835646  0.5475312612010441  0.6259375782868943  1.0000
  C   C56       1.0  0.7066183476374446  0.952532203028362  0.1258902374488571  1.0000
  C   C57       1.0  0.7169501855486968  0.6232940134681684  0.4027139364393335  1.0000
  C   C58       1.0  0.2837327173878776  0.8765965789598412  0.9024829635582633  1.0000
  C   C59       1.0  0.28304972795426403  0.37673082294258353  0.5972673077838309  1.0000
  C   C60       1.0  0.7162818159969502  0.12340548331094682  0.0974602668489197  1.0000
  C   C61       1.0  0.8394900797427025  0.6258479096685791  0.4047224932472773  1.0000
  C   C62       1.0  0.16118787332354148  0.8740794514759925  0.9044881991122296  1.0000
  C   C63       1.0  0.16050025342278929  0.3741784234993304  0.5952840952038798  1.0000
  C   C64       1.0  0.8388268179263674  0.12590816256806647  0.0954705904248669  1.0000
  C   C65       1.0  0.1014493999855333  0.624649245534691  0.40829190494295625  1.0000
  C   C66       1.0  0.8993630597523959  0.8753817361426002  0.9079905808267981  1.0000
  C   C67       1.0  0.8985628782914218  0.375373329491886  0.5917510035834042  1.0000
  C   C68       1.0  0.10062930806974889  0.12458148964704921  0.0920367596514566  1.0000
  C   C69       1.0  0.22374036629378213  0.6225125890507143  0.4051512836259121  1.0000
  C   C70       1.0  0.7770536683303958  0.877459028837066  0.9048777072289624  1.0000
  C   C71       1.0  0.7762748827213669  0.3775001104067925  0.5948703092450385  1.0000
  C   C72       1.0  0.22293941260964792  0.1225011577133159  0.09514444842350399  1.0000
  N   N1        1.0  0.2805876159779856  0.5383849719682701  0.3866757086486601  1.0000
  N   N2        1.0  0.7200802383285987  0.9616173791575875  0.8864194021544023  1.0000
  N   N3        1.0  0.7194106873952747  0.4616254124900081  0.6133199407661679  1.0000
  N   N4        1.0  0.27991068140866554  0.038335961682605585  0.11358431402264559  1.0000
  N   N5        1.0  0.6501126355276056  0.5379809588217769  0.388259149400632  1.0000
  N   N6        1.0  0.3504090035947555  0.9619484405239902  0.8881852857579701  1.0000
  N   N7        1.0  0.34989498345204584  0.4620393323713543  0.6117215258513512  1.0000
  N   N8        1.0  0.6495779381942268  0.0380657258170416  0.1117688670149377  1.0000
  O   O1        1.0  0.5500475853798932  0.6024980596970053  0.5735405012939551  1.0000
  O   O2        1.0  0.4493159206457448  0.8975189739627325  0.0732121273396302  1.0000
  O   O3        1.0  0.44994894044933875  0.39751155887766026  0.4264689754287048  1.0000
  O   O4        1.0  0.5506704689057002  0.10248225782018491  0.9268036796776685  1.0000
  O   O5        1.0  0.465420530403989  0.6526435138349527  0.46263559675306  1.0000
  O   O6        1.0  0.535640238292906  0.8477924113361579  0.9631340502945775  1.0000
  O   O7        1.0  0.5345909791269249  0.34738286628739706  0.5373652481632192  1.0000
  O   O8        1.0  0.4643506110556713  0.15220959020175684  0.03688464151750989  1.0000
  O   O9        1.0  0.5284006043086718  0.015366122490725297  0.7682777429748668  1.0000
  O   O10       1.0  0.47073468589891126  0.484456871167211  0.2681632392672809  1.0000
  O   O11       1.0  0.4716465708760039  0.984616234290691  0.23172947616689044  1.0000
  O   O12       1.0  0.5292117624131618  0.5155587252115126  0.7318093164101782  1.0000
  O   O13       1.0  0.5302754214116445  0.8507927253602718  0.7947470387553536  1.0000
  O   O14       1.0  0.469524952606193  0.6490425616943655  0.2945560524097103  1.0000
  O   O15       1.0  0.4696915211758038  0.14917424794898443  0.20526933136245154  1.0000
  O   O16       1.0  0.5304843605673069  0.3509762120129595  0.7054286578812423  1.0000
