data_image0
_chemical_formula_structural       Yb4H24C24S4N4O32
_chemical_formula_sum              "Yb4 H24 C24 S4 N4 O32"
_cell_length_a       7.483479043764608
_cell_length_b       9.263871337042639
_cell_length_c       14.632167456012281
_cell_angle_alpha    89.99993770333833
_cell_angle_beta     90.00014458194966
_cell_angle_gamma    101.2640018401025

_space_group_name_H-M_alt    "P 1"
_space_group_IT_number       1

loop_
  _space_group_symop_operation_xyz
  'x, y, z'

loop_
  _atom_site_type_symbol
  _atom_site_label
  _atom_site_symmetry_multiplicity
  _atom_site_fract_x
  _atom_site_fract_y
  _atom_site_fract_z
  _atom_site_occupancy
  Yb  Yb1       1.0  0.13679414638263412  0.27735210111051595  0.04370165319947721  1.0000
  Yb  Yb2       1.0  0.3632037865453269  0.722647662700531  0.5437048098093413  1.0000
  Yb  Yb3       1.0  0.8632016105766667  0.7226481037010757  0.9562954086137339  1.0000
  Yb  Yb4       1.0  0.636794139769748  0.2773503609018206  0.4562977194120067  1.0000
  H   H1        1.0  0.15098506535089476  0.0461778933052912  0.44922061054206364  1.0000
  H   H2        1.0  0.34901234308365753  0.9538225494233997  0.9492222239187101  1.0000
  H   H3        1.0  0.8490117762862894  0.9538212209016804  0.5507791849752124  1.0000
  H   H4        1.0  0.6509852604702003  0.046179866637849884  0.05077825502367971  1.0000
  H   H5        1.0  0.10355633548047648  0.12298941266190863  0.28889502377566606  1.0000
  H   H6        1.0  0.3964449148960085  0.8770079270759649  0.7888974344468098  1.0000
  H   H7        1.0  0.8964445220846498  0.8770097315902203  0.7111040883184503  1.0000
  H   H8        1.0  0.6035535193608439  0.12299229776313327  0.21110441134836583  1.0000
  H   H9        1.0  0.9190692328946212  0.664157577756157  0.22090338886962263  1.0000
  H   H10       1.0  0.5809310237818507  0.3358422606836626  0.7209050778488406  1.0000
  H   H11       1.0  0.0809343019552671  0.33584158652619317  0.7790950398004668  1.0000
  H   H12       1.0  0.41906900308667616  0.6641590747892535  0.27909540109548203  1.0000
  H   H13       1.0  0.9632421455993168  0.6048967925696116  0.38718297265487683  1.0000
  H   H14       1.0  0.5367545509862949  0.3951072435817051  0.8871838805485623  1.0000
  H   H15       1.0  0.03675520397965221  0.3951045228741066  0.6128161394362268  1.0000
  H   H16       1.0  0.46324439121074323  0.6048951824944806  0.11281659839468722  1.0000
  H   H17       1.0  0.2883926615062363  0.3624150613342606  0.22240388698288174  1.0000
  H   H18       1.0  0.21160343089407968  0.6375845054415945  0.7224041719076908  1.0000
  H   H19       1.0  0.7116028414877744  0.6375840428577672  0.7775959085335347  1.0000
  H   H20       1.0  0.7883923260732218  0.3624156993683058  0.2775963070342584  1.0000
  H   H21       1.0  0.46534487953112347  0.349022713966228  0.16168094481837164  1.0000
  H   H22       1.0  0.03465201320918958  0.6509758223529544  0.6616816750877987  1.0000
  H   H23       1.0  0.5346503694895973  0.6509752896079346  0.8383181672725046  1.0000
  H   H24       1.0  0.9653448284296003  0.34902329185368314  0.3383188038552305  1.0000
  C   C1        1.0  0.09494906353253893  0.9678381120627717  0.3964338213034822  1.0000
  C   C2        1.0  0.40505128296315723  0.032164604217477695  0.8964368206144755  1.0000
  C   C3        1.0  0.9050509633311846  0.032163223411167494  0.6035646073636016  1.0000
  C   C4        1.0  0.5949481671836592  0.9678400230937636  0.10356639203134681  1.0000
  C   C5        1.0  0.06955624745850739  0.007178453291203401  0.3071179055299638  1.0000
  C   C6        1.0  0.43044910417848564  0.9928188984408519  0.8071216478779919  1.0000
  C   C7        1.0  0.9304481180863745  0.9928185197706936  0.6928784728641662  1.0000
  C   C8        1.0  0.5695530920410192  0.0071802558238474  0.192882248197229  1.0000
  C   C9        1.0  0.009025145679046883  0.8990330835243011  0.24157908252403362  1.0000
  C   C10       1.0  0.49097957631725103  0.1009687255829661  0.7415821459675559  1.0000
  C   C11       1.0  0.9909778124427289  0.10096937259772426  0.7584193461445567  1.0000
  C   C12       1.0  0.5090212812558759  0.8990304186674716  0.2584203832553058  1.0000
  C   C13       1.0  0.9662685826367721  0.7518356892843555  0.2697594459379502  1.0000
  C   C14       1.0  0.5337378341084857  0.24816084898269247  0.7697618172185161  1.0000
  C   C15       1.0  0.03373846019766798  0.24816130380673931  0.7302382993094056  1.0000
  C   C16       1.0  0.4662705473771353  0.7518361541216477  0.23023934515844505  1.0000
  C   C17       1.0  0.9905459391522128  0.7160694118460497  0.360032497597885  1.0000
  C   C18       1.0  0.509452799645551  0.2839324699915976  0.860033446163456  1.0000
  C   C19       1.0  0.00945383374142487  0.2839308230093493  0.6399666144951512  1.0000
  C   C20       1.0  0.490544803906708  0.7160699460699858  0.13996634935318045  1.0000
  C   C21       1.0  0.9976678052622386  0.9414314394614388  0.1433147031110025  1.0000
  C   C22       1.0  0.5023387813246954  0.058568525905570774  0.6433164799433372  1.0000
  C   C23       1.0  0.0023402534621723976  0.05856995610179177  0.8566844089870004  1.0000
  C   C24       1.0  0.497670616049291  0.9414328796712538  0.3566853658585246  1.0000
  S   S1        1.0  0.8190351894243902  0.4018703817872193  0.09361331781728673  1.0000
  S   S2        1.0  0.6809631325769626  0.5981295727203815  0.5936142734963284  1.0000
  S   S3        1.0  0.18096165221279387  0.5981287324197522  0.9063864776999895  1.0000
  S   S4        1.0  0.3190353016766919  0.4018706521193919  0.4063862054473475  1.0000
  N   N1        1.0  0.060239316970104435  0.8235342763911289  0.4208635849875436  1.0000
  N   N2        1.0  0.4397592973302125  0.17646620443981925  0.9208665305623641  1.0000
  N   N3        1.0  0.939758609333765  0.17646374721359587  0.5791341602535596  1.0000
  N   N4        1.0  0.5602423221547851  0.8235362416659056  0.07913463180835832  1.0000
  O   O1        1.0  0.046682555914479486  0.07711003194210517  0.12363855605556753  1.0000
  O   O2        1.0  0.4533202751858169  0.9228918839720419  0.6236410089437712  1.0000
  O   O3        1.0  0.9533169630042618  0.922889102295762  0.8763591891861894  1.0000
  O   O4        1.0  0.5466813443023781  0.0771105621330079  0.3763615202784508  1.0000
  O   O5        1.0  0.9413337382221627  0.8402619520323922  0.08634911480976372  1.0000
  O   O6        1.0  0.558671496956002  0.15973916036264763  0.5863515787917066  1.0000
  O   O7        1.0  0.058668711956237005  0.15973830285322066  0.9136493138592527  1.0000
  O   O8        1.0  0.44133496915833337  0.8402611245664315  0.4136495835828953  1.0000
  O   O9        1.0  0.09883309854994593  0.7872829001332065  0.5048962855618555  1.0000
  O   O10       1.0  0.40116516061426927  0.21271910335200056  0.0048982991368546995  1.0000
  O   O11       1.0  0.9011639970557253  0.21271731469264665  0.49510214310370776  1.0000
  O   O12       1.0  0.5988335276110773  0.787282222105979  0.9951021798066081  1.0000
  O   O13       1.0  0.008899877944536182  0.4432190954109314  0.1306052485693101  1.0000
  O   O14       1.0  0.4910966153102194  0.5567783710715941  0.6306045834649866  1.0000
  O   O15       1.0  0.9910969636926481  0.5567800187960399  0.8693945469479658  1.0000
  O   O16       1.0  0.508899972356879  0.44321964251683704  0.3693958954782488  1.0000
  O   O17       1.0  0.8255628212541168  0.27866834662907536  0.028348255415956206  1.0000
  O   O18       1.0  0.6744351951462092  0.721331672524407  0.528349118433532  1.0000
  O   O19       1.0  0.17443268173989418  0.7213307575629526  0.9716515401004602  1.0000
  O   O20       1.0  0.32556457775223174  0.2786685623299689  0.47165204393675714  1.0000
  O   O21       1.0  0.7643397345563158  0.5273391470974359  0.045074976023599306  1.0000
  O   O22       1.0  0.7356653073575214  0.4726620061801298  0.5450774550846873  1.0000
  O   O23       1.0  0.23566271562208388  0.47266110778816967  0.9549234526454171  1.0000
  O   O24       1.0  0.264338735442145  0.5273393593372758  0.45492370728797493  1.0000
  O   O25       1.0  0.6899333662649384  0.35664591482355945  0.1700127307942338  1.0000
  O   O26       1.0  0.8100669060885367  0.643355074642578  0.670013822582689  1.0000
  O   O27       1.0  0.31006264467244893  0.6433553906048814  0.8299870647217562  1.0000
  O   O28       1.0  0.18993395147978728  0.3566440696088761  0.32998665636292657  1.0000
  O   O29       1.0  0.333278855466709  0.35325468494224305  0.15918635396033662  1.0000
  O   O30       1.0  0.16671802558999355  0.6467438538484555  0.6591858911281819  1.0000
  O   O31       1.0  0.6667166475289007  0.6467444192494509  0.8408141249818261  1.0000
  O   O32       1.0  0.8332788160471906  0.3532552603585159  0.34081390438909415  1.0000
