data_image0
_chemical_formula_structural       Cd2H36C42S2N8O12
_chemical_formula_sum              "Cd2 H36 C42 S2 N8 O12"
_cell_length_a       9.313882709348347
_cell_length_b       10.605303055525154
_cell_length_c       12.460062565292482
_cell_angle_alpha    102.4728251629901
_cell_angle_beta     98.15200584942336
_cell_angle_gamma    106.69055060127008

_space_group_name_H-M_alt    "P 1"
_space_group_IT_number       1

loop_
  _space_group_symop_operation_xyz
  'x, y, z'

loop_
  _atom_site_type_symbol
  _atom_site_label
  _atom_site_symmetry_multiplicity
  _atom_site_fract_x
  _atom_site_fract_y
  _atom_site_fract_z
  _atom_site_occupancy
  Cd  Cd1       1.0  0.08181657698714423  0.8682384942373533  0.9064763276392614  1.0000
  Cd  Cd2       1.0  0.9181730981783787  0.13176225339262262  0.09352912512944297  1.0000
  H   H1        1.0  0.48767191331453574  0.7860828723217355  0.44112987748981436  1.0000
  H   H2        1.0  0.5123305573268269  0.2139200894773623  0.5588685704060482  1.0000
  H   H3        1.0  0.23307218932397686  0.7892322820768597  0.6623358689293114  1.0000
  H   H4        1.0  0.7669251760019762  0.21076247773206086  0.3376604929401737  1.0000
  H   H5        1.0  0.24968956616235968  0.45207090331834365  0.6560308268466174  1.0000
  H   H6        1.0  0.7503197291199581  0.5479331065368739  0.34397579228214437  1.0000
  H   H7        1.0  0.26034356907278783  0.21363284034369912  0.6883089576836385  1.0000
  H   H8        1.0  0.7396577320314535  0.7863700660495782  0.31169737667380576  1.0000
  H   H9        1.0  0.7631620956678018  0.6400248829836244  0.8426246003589243  1.0000
  H   H10       1.0  0.23683743339137206  0.35997599413456527  0.15737634618932364  1.0000
  H   H11       1.0  0.5130187018194334  0.5432307004830434  0.6976691303154399  1.0000
  H   H12       1.0  0.4869790322895042  0.45677118619096996  0.30233020029120183  1.0000
  H   H13       1.0  0.6958004097348223  0.8614224054341688  0.5394277420619602  1.0000
  H   H14       1.0  0.3042045959910666  0.13858159629030103  0.4605719813128745  1.0000
  H   H15       1.0  0.9337330346920253  0.9418131698041351  0.6881816457570623  1.0000
  H   H16       1.0  0.0662675748519206  0.058187713794502785  0.311820223863002  1.0000
  H   H17       1.0  0.17646665963167868  0.5800076814361932  0.39655324282136223  1.0000
  H   H18       1.0  0.8235383137115447  0.419996302497239  0.6034496840201556  1.0000
  H   H19       1.0  0.2551334718074685  0.637179496654369  0.2876896732809869  1.0000
  H   H20       1.0  0.7448686166232433  0.36282243373248246  0.7123101461462087  1.0000
  H   H21       1.0  0.2819171356192101  0.8832787564193154  0.39643188251911715  1.0000
  H   H22       1.0  0.718082036898153  0.1167241548041034  0.6035694022280184  1.0000
  H   H23       1.0  0.0956357549760654  0.7706594275563532  0.328199198302393  1.0000
  H   H24       1.0  0.9043659836266682  0.22934148920930397  0.6717987891894452  1.0000
  H   H25       1.0  0.08537765285148409  0.9001065072641906  0.5098632008558895  1.0000
  H   H26       1.0  0.9146186252758638  0.09989129379071221  0.4901344080760311  1.0000
  H   H27       1.0  0.04289822774665451  0.7252078745134297  0.508577346804799  1.0000
  H   H28       1.0  0.9570958894111498  0.2747899135805767  0.49141841598349606  1.0000
  H   H29       1.0  0.762151482127024  0.27587330307012786  0.9393572928414928  1.0000
  H   H30       1.0  0.2378466300470591  0.7241204584935659  0.060636558431099295  1.0000
  H   H31       1.0  0.5534686592124414  0.22134508479584267  0.7669765731006849  1.0000
  H   H32       1.0  0.44653312105511833  0.7786405977854471  0.2330097628532713  1.0000
  H   H33       1.0  0.42102449972970385  0.8003753062364184  0.7778523511449509  1.0000
  H   H34       1.0  0.578979719856207  0.19961441507130215  0.22214623995559188  1.0000
  H   H35       1.0  0.6314901379431034  0.8713184354073035  0.9475271717619977  1.0000
  H   H36       1.0  0.36850972337087734  0.12868039426237496  0.05247583918738032  1.0000
  C   C1        1.0  0.12233103734325107  0.6100697925734834  0.8168450599086868  1.0000
  C   C2        1.0  0.8776699544113524  0.3899321224374006  0.18315543818004446  1.0000
  C   C3        1.0  0.14701355049442105  0.47609884999046415  0.8026645994400355  1.0000
  C   C4        1.0  0.8529892294965861  0.5239051031910266  0.19733968472454683  1.0000
  C   C5        1.0  0.21079107400204578  0.40996421278372003  0.7234539567399667  1.0000
  C   C6        1.0  0.789216434425711  0.5900408110750847  0.2765502455805163  1.0000
  C   C7        1.0  0.21623261302653418  0.28386521157855077  0.7404562973244214  1.0000
  C   C8        1.0  0.7837705086967829  0.7161397507763708  0.2595506196421908  1.0000
  C   C9        1.0  0.15700918750917478  0.25617290237075707  0.8324553210281496  1.0000
  C   C10       1.0  0.8429899688168518  0.7438299999571428  0.16754756545233113  1.0000
  C   C11       1.0  0.1402648832698361  0.1327951763681412  0.8726914312943779  1.0000
  C   C12       1.0  0.8597277401917084  0.867204608216312  0.12730935268769636  1.0000
  C   C13       1.0  0.7415468082958154  0.6850262554352823  0.773663427157871  1.0000
  C   C14       1.0  0.25845272076335846  0.3149746216829072  0.22633751939038407  1.0000
  C   C15       1.0  0.6044544829032859  0.6318620880073881  0.6936313892257788  1.0000
  C   C16       1.0  0.3955461523095067  0.3681418611087253  0.3063694470618402  1.0000
  C   C17       1.0  0.5833297681362808  0.6936776851806742  0.6067903041463654  1.0000
  C   C18       1.0  0.41667122500015796  0.30632728200439635  0.39321156320993833  1.0000
  C   C19       1.0  0.7031109662421213  0.8073541939259172  0.6040424727084928  1.0000
  C   C20       1.0  0.2968907575511111  0.19264976611840717  0.39595848578427006  1.0000
  C   C21       1.0  0.8370554069996956  0.854041955086828  0.6873219305083469  1.0000
  C   C22       1.0  0.1629452106399256  0.145958932959573  0.3126791382450379  1.0000
  C   C23       1.0  0.42994230094682706  0.635576943691639  0.525113669144176  1.0000
  C   C24       1.0  0.5700586854757788  0.3644310712198545  0.47489036834636533  1.0000
  C   C25       1.0  0.25218309723028637  0.6687992253102876  0.3773111571982214  1.0000
  C   C26       1.0  0.7478178945243172  0.33120268970059646  0.6226893408905101  1.0000
  C   C27       1.0  0.19253737773016155  0.7903257995826962  0.39819136853871134  1.0000
  C   C28       1.0  0.8074625416353314  0.20967611339550268  0.6018074056115382  1.0000
  C   C29       1.0  0.13458662395705548  0.8168778693284792  0.5073931919492907  1.0000
  C   C30       1.0  0.8654092881509782  0.18311890920970336  0.4926041867806178  1.0000
  C   C31       1.0  0.360070463017486  0.9760219408557235  0.6475698594107657  1.0000
  C   C32       1.0  0.6399298087443127  0.023968781494687605  0.3524244687378798  1.0000
  C   C33       1.0  0.6832291077885273  0.1722049107450943  0.9000767597081069  1.0000
  C   C34       1.0  0.31677081552712844  0.8277878501583016  0.09991710577275369  1.0000
  C   C35       1.0  0.5689795924887092  0.14139621428905966  0.8046264485165795  1.0000
  C   C36       1.0  0.43102397601525416  0.858591506462837  0.19536367351322087  1.0000
  C   C37       1.0  0.4734509633623744  0.0060905755172627  0.7560535670918684  1.0000
  C   C38       1.0  0.5265532967018771  0.9938991680292661  0.2439410196753188  1.0000
  C   C39       1.0  0.4938990492594614  0.9069684111116134  0.809102617058777  1.0000
  C   C40       1.0  0.5061026609107627  0.0930233357882031  0.1908936652303623  1.0000
  C   C41       1.0  0.6105173253772589  0.9459637920683976  0.9048468127018271  1.0000
  C   C42       1.0  0.38948619869820067  0.0540330585194866  0.09515222233072511  1.0000
  S   S1        1.0  0.09445485834737608  0.3846041832022777  0.8974294238325273  1.0000
  S   S2        1.0  0.9055442979786505  0.615398719125629  0.10257346264795333  1.0000
  N   N1        1.0  0.8561357525992862  0.7949237114150665  0.7709523601710092  1.0000
  N   N2        1.0  0.14386232995580164  0.20507613670595498  0.22904743310341766  1.0000
  N   N3        1.0  0.40471982916664473  0.7012716814367865  0.4464473048547931  1.0000
  N   N4        1.0  0.5952826347608846  0.2987343280887345  0.5535533131753142  1.0000
  N   N5        1.0  0.2509982323211659  0.8531203856264897  0.6106406952917001  1.0000
  N   N6        1.0  0.7489991249091189  0.1468743697346682  0.3893564674444577  1.0000
  N   N7        1.0  0.7051284143666051  0.0755606508753175  0.9489239742775555  1.0000
  N   N8        1.0  0.2948689428636797  0.9244341044858473  0.051073188458602224  1.0000
  O   O1        1.0  0.0514250623888088  0.6411087977467886  0.894623777212175  1.0000
  O   O2        1.0  0.948573768396244  0.35889310430319915  0.10537487473293083  1.0000
  O   O3        1.0  0.17326526729488725  0.6878587455341645  0.7570423388354116  1.0000
  O   O4        1.0  0.826737187155146  0.31214420736940696  0.24295771079380302  1.0000
  O   O5        1.0  0.08366454879144669  0.12188153632102677  0.9593823383210138  1.0000
  O   O6        1.0  0.9163230248378725  0.8781253338307596  0.04061840077250889  1.0000
  O   O7        1.0  0.1821587761304072  0.038327275459117495  0.817388372564942  1.0000
  O   O8        1.0  0.8178319876155555  0.9616734830990695  0.18261720240889917  1.0000
  O   O9        1.0  0.3311779591740772  0.5327877786005714  0.5339048498816867  1.0000
  O   O10       1.0  0.6688230124390273  0.4672232795895895  0.46610215860977183  1.0000
  O   O11       1.0  0.37288763351979526  0.06468905847323471  0.5937180357907155  1.0000
  O   O12       1.0  0.6271147924977213  0.935304724564496  0.40628030863579323  1.0000
