data_image0
_chemical_formula_structural       Er2H20C18N4Cl2O22
_chemical_formula_sum              "Er2 H20 C18 N4 Cl2 O22"
_cell_length_a       7.172003708902459
_cell_length_b       9.223937147553185
_cell_length_c       11.800835866038748
_cell_angle_alpha    100.18141042464747
_cell_angle_beta     98.26080640140341
_cell_angle_gamma    96.5721051564745

_space_group_name_H-M_alt    "P 1"
_space_group_IT_number       1

loop_
  _space_group_symop_operation_xyz
  'x, y, z'

loop_
  _atom_site_type_symbol
  _atom_site_label
  _atom_site_symmetry_multiplicity
  _atom_site_fract_x
  _atom_site_fract_y
  _atom_site_fract_z
  _atom_site_occupancy
  Er  Er1       1.0  0.6807741208498752  0.21774255829579664  0.9920279384055632  1.0000
  Er  Er2       1.0  0.3192282209083004  0.7822646532275928  0.00797474613008125  1.0000
  H   H1        1.0  0.8955517365917698  0.5245857185405784  0.07733604289960994  1.0000
  H   H2        1.0  0.10445706501315748  0.47541822143589485  0.9226633381328853  1.0000
  H   H3        1.0  0.6839298889842949  0.5286455231139867  0.09682998066897143  1.0000
  H   H4        1.0  0.3160773641866398  0.4713572820372035  0.903175043520214  1.0000
  H   H5        1.0  0.1030884677134907  0.3219111070897185  0.043338831164014394  1.0000
  H   H6        1.0  0.8969113157742683  0.6780894171234237  0.956661009295054  1.0000
  H   H7        1.0  0.0454039675973235  0.21760980441374042  0.9145709842774536  1.0000
  H   H8        1.0  0.9545934463681998  0.7823851454322932  0.08542618344296923  1.0000
  H   H9        1.0  0.6948745214349044  0.90166308050496  0.8975912185051199  1.0000
  H   H10       1.0  0.30512288345787647  0.09833963262506273  0.10241635442810092  1.0000
  H   H11       1.0  0.849859819240542  0.9923573885742839  0.8423587618367778  1.0000
  H   H12       1.0  0.15013593440303905  0.0076442087560835  0.1576425845185625  1.0000
  H   H13       1.0  0.8484521580422779  0.3555660849663981  0.586243230549421  1.0000
  H   H14       1.0  0.15155551841748147  0.6444311759922243  0.4137559702937281  1.0000
  H   H15       1.0  0.6619562570517272  0.8296832651870005  0.4102728602088987  1.0000
  H   H16       1.0  0.3380373525375191  0.17031386392454098  0.5897302239366269  1.0000
  H   H17       1.0  0.004173355184313677  0.5993957046141674  0.717883905528879  1.0000
  H   H18       1.0  0.9958350615803083  0.40060601083499153  0.2821142849895892  1.0000
  H   H19       1.0  0.6046491300280292  0.269951678350374  0.35765069672342525  1.0000
  H   H20       1.0  0.3953542837757027  0.7300455509361755  0.6423447516489774  1.0000
  C   C1        1.0  0.4067516408128781  0.3640466999435644  0.1775061746402997  1.0000
  C   C2        1.0  0.5932476131500337  0.6359504786452703  0.8224973909959135  1.0000
  C   C3        1.0  0.5303613462892471  0.45809071952825786  0.2836911012657808  1.0000
  C   C4        1.0  0.46964161484988404  0.5419120593867459  0.7163067790999307  1.0000
  C   C5        1.0  0.5440402790626421  0.6156580867067518  0.3001828240143567  1.0000
  C   C6        1.0  0.45595406348751766  0.3843434982542889  0.6998184019683152  1.0000
  C   C7        1.0  0.463679271919993  0.679975269357037  0.200454389757958  1.0000
  C   C8        1.0  0.5363144659370889  0.3200307454944493  0.7995533360710141  1.0000
  C   C9        1.0  0.6483908548107065  0.7090866616306855  0.4006245590461219  1.0000
  C   C10       1.0  0.3516115547717574  0.29091277573693464  0.5993745029821866  1.0000
  C   C11       1.0  0.7419520372010736  0.6423758614414864  0.48593357970860046  1.0000
  C   C12       1.0  0.25805493909435034  0.35762584707423173  0.514061099084465  1.0000
  C   C13       1.0  0.9097007768123787  0.5919854872765883  0.6360968073050159  1.0000
  C   C14       1.0  0.09031147370429692  0.4080140434711694  0.3638988581410771  1.0000
  C   C15       1.0  0.7228442532342853  0.48429478946793125  0.4692034534862516  1.0000
  C   C16       1.0  0.2771663900968376  0.5157036173263306  0.5307910724110698  1.0000
  C   C17       1.0  0.6189343463301141  0.3904291160366499  0.36926819024697727  1.0000
  C   C18       1.0  0.38106889341332106  0.6095669975888072  0.6307287824638693  1.0000
  N   N1        1.0  0.8302051695108829  0.456828017940218  0.5676832386002602  1.0000
  N   N2        1.0  0.16980669616547317  0.5431692882802253  0.432311236331806  1.0000
  N   N3        1.0  0.8602970866500851  0.7062152824232085  0.59094279494132  1.0000
  N   N4        1.0  0.13971616074392298  0.2937820416024479  0.409048409010687  1.0000
  Cl  Cl1       1.0  0.7605771919456855  0.0214240052213697  0.19718825022655304  1.0000
  Cl  Cl2       1.0  0.2394107953017226  0.9785730703359478  0.8028168959428399  1.0000
  O   O1        1.0  0.4693654551656792  0.24979993819178498  0.12218857583381751  1.0000
  O   O2        1.0  0.5306281397356827  0.7501971936377031  0.877812812635355  1.0000
  O   O3        1.0  0.24451571077278797  0.39840308389682383  0.1478149545921212  1.0000
  O   O4        1.0  0.7554810177162921  0.6015963107883594  0.8521793867545854  1.0000
  O   O5        1.0  0.5231744059742666  0.6423736359271004  0.10185960365554791  1.0000
  O   O6        1.0  0.47682639469385174  0.35763243941203643  0.898149571874967  1.0000
  O   O7        1.0  0.34366525835864076  0.770656264023792  0.20731711395393404  1.0000
  O   O8        1.0  0.6563275063817429  0.22934419154785962  0.7926863638326864  1.0000
  O   O9        1.0  0.856137519456446  0.1592177692861938  0.17167103758125535  1.0000
  O   O10       1.0  0.14384958060724526  0.8407748789600688  0.8283181621491594  1.0000
  O   O11       1.0  0.6063130547952227  0.9651481355677803  0.09448846032714192  1.0000
  O   O12       1.0  0.39367736979870216  0.0348467402008694  0.9055157360735749  1.0000
  O   O13       1.0  0.6830140248000306  0.04773760084104589  0.30267207826137377  1.0000
  O   O14       1.0  0.31697182181385836  0.9522639153399411  0.6973250341325397  1.0000
  O   O15       1.0  0.8944277120971973  0.9146197231225845  0.20357850123322424  1.0000
  O   O16       1.0  0.10556287186913949  0.08537627102511179  0.7964224751526814  1.0000
  O   O17       1.0  0.7851780786830673  0.4610614295547536  0.0916726273770081  1.0000
  O   O18       1.0  0.21482453433547022  0.5389391180380658  0.9083283016655841  1.0000
  O   O19       1.0  0.9959571570298208  0.28926904445746965  0.9706869085836871  1.0000
  O   O20       1.0  0.004040837868153294  0.7107292415000613  0.02931246882686621  1.0000
  O   O21       1.0  0.7840825431886883  0.996945088284789  0.9095082829447989  1.0000
  O   O22       1.0  0.21591588795719466  0.0030554126872459997  0.0904982198470634  1.0000
