data_image0
_chemical_formula_structural       Hg3H16C32N4O12F18
_chemical_formula_sum              "Hg3 H16 C32 N4 O12 F18"
_cell_length_a       9.31133447183409
_cell_length_b       10.701193017889329
_cell_length_c       11.857000244352061
_cell_angle_alpha    110.25968297492152
_cell_angle_beta     102.42846651872718
_cell_angle_gamma    101.35646522687318

_space_group_name_H-M_alt    "P 1"
_space_group_IT_number       1

loop_
  _space_group_symop_operation_xyz
  'x, y, z'

loop_
  _atom_site_type_symbol
  _atom_site_label
  _atom_site_symmetry_multiplicity
  _atom_site_fract_x
  _atom_site_fract_y
  _atom_site_fract_z
  _atom_site_occupancy
  Hg  Hg1       1.0  2.4571627151123893e-06  1.4269610844028266e-06  0.9999990163905392  1.0000
  Hg  Hg2       1.0  0.9852622596807878  0.3804825716361648  0.2790261515819878  1.0000
  Hg  Hg3       1.0  0.014741956760630552  0.619510182937489  0.720975920197226  1.0000
  H   H1        1.0  0.839978336295516  0.6708244788835671  0.015343738577222168  1.0000
  H   H2        1.0  0.1600179026614725  0.32917443049147715  0.9846613875185496  1.0000
  H   H3        1.0  0.5912164688948208  0.5020100814580529  0.8704893812081095  1.0000
  H   H4        1.0  0.40878250733098304  0.4979868243035524  0.1295113820084878  1.0000
  H   H5        1.0  0.5007750697778235  0.27480914947934554  0.8906032820943466  1.0000
  H   H6        1.0  0.4992275065706691  0.7251887971910236  0.10940014710205047  1.0000
  H   H7        1.0  0.6737010655288813  0.22775769418566222  0.05632956605027317  1.0000
  H   H8        1.0  0.32629958142248927  0.7722412446148609  0.943676362389425  1.0000
  H   H9        1.0  0.05057721851530762  0.7953984238793125  0.12694311095998492  1.0000
  H   H10       1.0  0.9494220274878628  0.20460266985210035  0.8730573466239092  1.0000
  H   H11       1.0  0.3046929852700158  0.9466445224477621  0.2775536721176478  1.0000
  H   H12       1.0  0.6953059080257447  0.053355516453727596  0.722447229824631  1.0000
  H   H13       1.0  0.4379624634217904  0.8706568603207214  0.4420953240580657  1.0000
  H   H14       1.0  0.5620363908202959  0.12934315458726076  0.5579072502710432  1.0000
  H   H15       1.0  0.3009822156600562  0.6465085649647833  0.44614986039720594  1.0000
  H   H16       1.0  0.6990178186879702  0.35349150528658396  0.5538495697442298  1.0000
  C   C1        1.0  0.8908801675142684  0.5402904078042567  0.11393119723356897  1.0000
  C   C2        1.0  0.10912157661299907  0.4597117194795429  0.886071725744145  1.0000
  C   C3        1.0  0.8016454187628527  0.5723430700102342  0.02291812345652023  1.0000
  C   C4        1.0  0.19835483160473186  0.42765797109376535  0.9770867156804213  1.0000
  C   C5        1.0  0.6606030904674968  0.4773363939948679  0.941688213261642  1.0000
  C   C6        1.0  0.339397654118045  0.5226626047894455  0.05831353421098838  1.0000
  C   C7        1.0  0.6103361644669717  0.3515634700365097  0.9523310695316736  1.0000
  C   C8        1.0  0.3896638113005506  0.6484365642245888  0.04767086919000004  1.0000
  C   C9        1.0  0.7041836335594098  0.32491820435778607  0.04433292217584038  1.0000
  C   C10       1.0  0.2958148875021108  0.675080767717027  0.9556692603182453  1.0000
  C   C11       1.0  0.04253292613875443  0.6378069280849699  0.20301512213571712  1.0000
  C   C12       1.0  0.9574703360977209  0.3621931162484841  0.796988254537325  1.0000
  C   C13       1.0  0.1096561049586952  0.7633646452461987  0.1967372328755558  1.0000
  C   C14       1.0  0.8903464275134212  0.23663645855756238  0.8032646626596928  1.0000
  C   C15       1.0  0.2527214924417008  0.8490280049135349  0.2828291778647553  1.0000
  C   C16       1.0  0.7472792326170109  0.15097098187401767  0.7171734058012901  1.0000
  C   C17       1.0  0.32554394782019347  0.807963840287904  0.37368428524591474  1.0000
  C   C18       1.0  0.6744578792371101  0.19203515385601116  0.6263184990061177  1.0000
  C   C19       1.0  0.25139309184016395  0.6827116316981969  0.37593476785655594  1.0000
  C   C20       1.0  0.7486065507467856  0.31728735972974675  0.6240667790300946  1.0000
  C   C21       1.0  0.1466078211478816  0.3560369563945613  0.5087790362117133  1.0000
  C   C22       1.0  0.853371726245953  0.6439329180989047  0.49119866292001974  1.0000
  C   C23       1.0  0.20639973512945176  0.27127551444058884  0.5828968221342946  1.0000
  C   C24       1.0  0.7936048487234969  0.7287214880866483  0.4171007630451482  1.0000
  C   C25       1.0  0.25679373395441735  0.21714548942428988  0.19643689136837134  1.0000
  C   C26       1.0  0.7432045954370848  0.7828493426677453  0.8035622519847648  1.0000
  C   C27       1.0  0.4174003183306922  0.3054412757635133  0.2939806722605098  1.0000
  C   C28       1.0  0.5825989910756846  0.6945566728312611  0.7060204827911177  1.0000
  C   C29       1.0  0.8010120540966809  0.0144059615593761  0.16049617912319283  1.0000
  C   C30       1.0  0.19898980382927786  0.9856129942245602  0.8394994673838168  1.0000
  C   C31       1.0  0.6888881217155569  0.03444930899346589  0.24091200251106665  1.0000
  C   C32       1.0  0.31112066667841276  0.9655675406381902  0.7590892815882525  1.0000
  N   N1        1.0  0.839883369187653  0.4175126666716621  0.12243861817891132  1.0000
  N   N2        1.0  0.1601140255257363  0.5824894671769342  0.8775609938746243  1.0000
  N   N3        1.0  0.1142974873313419  0.6010912640108825  0.2924312550510989  1.0000
  N   N4        1.0  0.8857039674917218  0.3989066633063627  0.707572809752726  1.0000
  O   O1        1.0  0.07300680040368943  0.27480574122705537  0.392094738517187  1.0000
  O   O2        1.0  0.9269921278005667  0.7251663319942591  0.6078879904397069  1.0000
  O   O3        1.0  0.17124267031739746  0.4832178251246261  0.5633269102035428  1.0000
  O   O4        1.0  0.8287197810553195  0.5167643276217502  0.43665836936214203  1.0000
  O   O5        1.0  0.2273184909563  0.08612866438947718  0.1633359481898324  1.0000
  O   O6        1.0  0.772684010883175  0.9138652142786512  0.8366594247051394  1.0000
  O   O7        1.0  0.1766937458171611  0.2823314436570214  0.15536084662731744  1.0000
  O   O8        1.0  0.8233026430714004  0.7176571674262958  0.844633437135421  1.0000
  O   O9        1.0  0.8378848747865958  0.9041984190549642  0.13309841082791954  1.0000
  O   O10       1.0  0.16213690832721284  0.09582793026952166  0.8669048602868228  1.0000
  O   O11       1.0  0.8389507391334946  0.11298240296745381  0.12581832726975506  1.0000
  O   O12       1.0  0.16103755052294833  0.8870282085680116  0.8741671615367463  1.0000
  F   F1        1.0  0.2854605582134511  0.1902887373292117  0.5227817193131656  1.0000
  F   F2        1.0  0.7145421839951281  0.8097029430613956  0.47722143243186804  1.0000
  F   F3        1.0  0.0861034645479961  0.18618754404499063  0.5943719562939762  1.0000
  F   F4        1.0  0.913911504786789  0.8138155104035503  0.40564798083857306  1.0000
  F   F5        1.0  0.3022013157029661  0.35647869260449727  0.7012481567012967  1.0000
  F   F6        1.0  0.6978106407745629  0.643537256230658  0.29874497538681055  1.0000
  F   F7        1.0  0.46922577347714167  0.24677598709187262  0.37305686286877193  1.0000
  F   F8        1.0  0.5307643588120426  0.7532280489641464  0.6269513268804942  1.0000
  F   F9        1.0  0.5208914004941007  0.32067857334329364  0.23010334588830256  1.0000
  F   F10       1.0  0.4791082664423882  0.6793172489544901  0.7699005708529043  1.0000
  F   F11       1.0  0.41706823467790594  0.4354604160048296  0.36663840411556226  1.0000
  F   F12       1.0  0.5829201719035241  0.5645375310067919  0.633355727915756  1.0000
  F   F13       1.0  0.6776612687886112  0.9472886197175395  0.30103461885903454  1.0000
  F   F14       1.0  0.322375291872902  0.052739778941749194  0.6989812416710706  1.0000
  F   F15       1.0  0.7304024208224716  0.16683129951879033  0.33019387030204667  1.0000
  F   F16       1.0  0.2695940442715212  0.8331876914638343  0.6697957561145669  1.0000
  F   F17       1.0  0.5438151607797225  0.0078846716303502  0.16318446901190947  1.0000
  F   F18       1.0  0.4561890556616959  0.9921080829433038  0.8368176027673114  1.0000
