data_image0
_chemical_formula_structural       Cu2H16C12N20O24
_chemical_formula_sum              "Cu2 H16 C12 N20 O24"
_cell_length_a       5.146444611227811
_cell_length_b       10.680402185766882
_cell_length_c       14.567178232785738
_cell_angle_alpha    90.00088701121864
_cell_angle_beta     89.99810757700564
_cell_angle_gamma    91.00504844441953

_space_group_name_H-M_alt    "P 1"
_space_group_IT_number       1

loop_
  _space_group_symop_operation_xyz
  'x, y, z'

loop_
  _atom_site_type_symbol
  _atom_site_label
  _atom_site_symmetry_multiplicity
  _atom_site_fract_x
  _atom_site_fract_y
  _atom_site_fract_z
  _atom_site_occupancy
  Cu  Cu1       1.0  0.4999861448726506  0.9999961048930855  0.5000125094454901  1.0000
  Cu  Cu2       1.0  0.5000623128971212  0.5000057603950978  0.9999921102687495  1.0000
  H   H1        1.0  0.5237202768355617  0.7709994673500089  0.4836126338559835  1.0000
  H   H2        1.0  0.47626241094071997  0.7290073171735614  0.9835798661917534  1.0000
  H   H3        1.0  0.47616056508859117  0.22900592719449256  0.5164291301331331  1.0000
  H   H4        1.0  0.5238052400294393  0.27100065977742105  0.016415216629979995  1.0000
  H   H5        1.0  0.2244072284881398  0.9149344681821746  0.6319801456270041  1.0000
  H   H6        1.0  0.7755833762387853  0.5850904252507049  0.1319512396839002  1.0000
  H   H7        1.0  0.7754610901624589  0.08506075917954799  0.3680444565279615  1.0000
  H   H8        1.0  0.22454680863518206  0.4149215332643478  0.8680376645767252  1.0000
  H   H9        1.0  0.108200507863927  0.05097750972567639  0.6039243965952679  1.0000
  H   H10       1.0  0.8918262649018446  0.44903858791806067  0.1039126602201392  1.0000
  H   H11       1.0  0.8917086679746972  0.9490181947248356  0.3960871623458217  1.0000
  H   H12       1.0  0.10830312569219562  0.5509640087849236  0.8960776169705864  1.0000
  H   H13       1.0  0.7882999325334907  0.8145223503928987  0.5284492644335756  1.0000
  H   H14       1.0  0.2117939254263348  0.6854831945494979  0.0285298916618046  1.0000
  H   H15       1.0  0.2117904723779347  0.18547880849857282  0.4713865561212813  1.0000
  H   H16       1.0  0.7882843433265094  0.3145124810062044  0.9714713693515549  1.0000
  C   C1        1.0  0.6131959845150234  0.5042572514156802  0.369091083179832  1.0000
  C   C2        1.0  0.3869896513773767  0.9958139968652376  0.8691236451033288  1.0000
  C   C3        1.0  0.38707055026827664  0.4958956069828275  0.6308051466885303  1.0000
  C   C4        1.0  0.6131043114211608  0.0041833759243913955  0.13085770807170147  1.0000
  C   C5        1.0  0.4094508857735661  0.5915848346603312  0.3474648842375245  1.0000
  C   C6        1.0  0.590551964696246  0.9084109618401255  0.8474298557745428  1.0000
  C   C7        1.0  0.5904183059391528  0.4084206908841139  0.6525700150600072  1.0000
  C   C8        1.0  0.4095273735474407  0.0915743934498607  0.15254669211724087  1.0000
  C   C9        1.0  0.8149879831827819  0.5067515594578041  0.4389361866513326  1.0000
  C   C10       1.0  0.1849391161007929  0.9932282334500043  0.9388841661867247  1.0000
  C   C11       1.0  0.18483123379783004  0.49323766138576985  0.5611179341370871  1.0000
  C   C12       1.0  0.8151009108184297  0.006751941629992997  0.0610834577079871  1.0000
  N   N1        1.0  0.1603467167215626  0.7657893382116611  0.3746975840079827  1.0000
  N   N2        1.0  0.8396352818039219  0.7342028479596578  0.8746620625800786  1.0000
  N   N3        1.0  0.8395382472933762  0.23421882109158793  0.6253386881703447  1.0000
  N   N4        1.0  0.1604425112520502  0.265787210253265  0.1253240959771844  1.0000
  N   N5        1.0  0.8303365070653469  0.6007193951853368  0.494098711006842  1.0000
  N   N6        1.0  0.17002151475794852  0.8994184302420435  0.9941967077955881  1.0000
  N   N7        1.0  0.1702690730551097  0.39955802548922054  0.505678070946935  1.0000
  N   N8        1.0  0.8301085110497726  0.10059165597227344  0.0057963153096452  1.0000
  N   N9        1.0  0.3687693676289783  0.6997369884494802  0.3960670717779847  1.0000
  N   N10       1.0  0.6311376912934392  0.8002248393839082  0.8959981691490454  1.0000
  N   N11       1.0  0.630975734104034  0.3002034020499663  0.6040316701015769  1.0000
  N   N12       1.0  0.3689240915743214  0.19975977640984874  0.10397975177412629  1.0000
  N   N13       1.0  0.5920545011041298  0.40590256781172235  0.31487316484033556  1.0000
  N   N14       1.0  0.40822148790854834  0.09419126541627781  0.814934426615288  1.0000
  N   N15       1.0  0.4083356021117624  0.5942863824689367  0.6849825625179733  1.0000
  N   N16       1.0  0.5918821041417388  0.9058050619755847  0.1850496724102157  1.0000
  N   N17       1.0  0.2707902174423538  0.543139876534994  0.2783374184609854  1.0000
  N   N18       1.0  0.7291817931855957  0.9568363290400083  0.7782875779603486  1.0000
  N   N19       1.0  0.7289703838225137  0.45682282908505556  0.7217414156322375  1.0000
  N   N20       1.0  0.2708934232676725  0.04314626140311619  0.22168896994423898  1.0000
  O   O1        1.0  0.6018069355683765  0.8298189075871674  0.5323342658658348  1.0000
  O   O2        1.0  0.3982951427760426  0.6701969712668754  0.0323292885421012  1.0000
  O   O3        1.0  0.39829784715087146  0.1701914627430909  0.4676615032594852  1.0000
  O   O4        1.0  0.6017900633823103  0.3298117452354247  0.9676678536219823  1.0000
  O   O5        1.0  0.269582763112119  0.997833085200689  0.6083956090539003  1.0000
  O   O6        1.0  0.7304407744509049  0.5021822762524694  0.1083763338562633  1.0000
  O   O7        1.0  0.7303038623853908  0.002148816757049599  0.3916090852130694  1.0000
  O   O8        1.0  0.2697111675730993  0.497834122623857  0.8916009002408883  1.0000
  O   O9        1.0  0.12657561529016453  0.8622243626567963  0.4280096128160196  1.0000
  O   O10       1.0  0.8733785569590254  0.6377622851740838  0.9279684863863834  1.0000
  O   O11       1.0  0.873282595821081  0.13776629351994527  0.5720445077899824  1.0000
  O   O12       1.0  0.126695352492888  0.36222781676423915  0.07201904513900097  1.0000
  O   O13       1.0  0.005806759017531196  0.7406727341704239  0.3121693334896705  1.0000
  O   O14       1.0  0.9942960936884049  0.7593555201452419  0.8121709045028851  1.0000
  O   O15       1.0  0.9942897982228162  0.25942393927415  0.6877907392017447  1.0000
  O   O16       1.0  0.005805317810292402  0.24063802070229198  0.18782280517258698  1.0000
  O   O17       1.0  0.3853104570081953  0.42839421687717305  0.2598154994090223  1.0000
  O   O18       1.0  0.6148303129006294  0.0716366539858413  0.7598252520691416  1.0000
  O   O19       1.0  0.614769965974716  0.5716726517922693  0.7401528109824936  1.0000
  O   O20       1.0  0.3852605962841906  0.928347634076729  0.240155414613298  1.0000
  O   O21       1.0  0.9667241843552078  0.40358194105972706  0.4375245018657807  1.0000
  O   O22       1.0  0.03239253675895531  0.0961135918030749  0.9371925710340037  1.0000
  O   O23       1.0  0.03160823015760881  0.5958814519760764  0.5630554643679913  1.0000
  O   O24       1.0  0.967529195620898  0.9038238712230608  0.0627324918847378  1.0000
