data_image0
_chemical_formula_structural       Zn2Cu4H48C24N4O24
_chemical_formula_sum              "Zn2 Cu4 H48 C24 N4 O24"
_cell_length_a       8.231160875068076
_cell_length_b       12.06237873021009
_cell_length_c       12.066545558680398
_cell_angle_alpha    88.35204024802438
_cell_angle_beta     74.51229830658158
_cell_angle_gamma    74.43984057133964

_space_group_name_H-M_alt    "P 1"
_space_group_IT_number       1

loop_
  _space_group_symop_operation_xyz
  'x, y, z'

loop_
  _atom_site_type_symbol
  _atom_site_label
  _atom_site_symmetry_multiplicity
  _atom_site_fract_x
  _atom_site_fract_y
  _atom_site_fract_z
  _atom_site_occupancy
  Zn  Zn1       1.0  0.7500948371059906  0.45379535403701954  0.5460310940423413  1.0000
  Zn  Zn2       1.0  0.24992346696956247  0.5461987216738251  0.4539655259822908  1.0000
  Cu  Cu1       1.0  0.9364451307640208  0.09873750484874927  0.4627438322761678  1.0000
  Cu  Cu2       1.0  0.5633141458970882  0.5373398181092811  0.9012455642560866  1.0000
  Cu  Cu3       1.0  0.06355248984407785  0.9012668077155865  0.5372662413533433  1.0000
  Cu  Cu4       1.0  0.4366725583083379  0.46265129346012657  0.0987496502962912  1.0000
  H   H1        1.0  0.4362636095725848  0.8275784645821175  0.17395391138037303  1.0000
  H   H2        1.0  0.06374404469315924  0.8254710170401295  0.1723855257406939  1.0000
  H   H3        1.0  0.5637206138031488  0.1724385278726288  0.8260333452971763  1.0000
  H   H4        1.0  0.9362902139162871  0.1745240908790109  0.827608883966441  1.0000
  H   H5        1.0  0.4829312964584743  0.9587507936557457  0.2014650974250642  1.0000
  H   H6        1.0  0.01750517972524794  0.7987407283248659  0.04083594246691999  1.0000
  H   H7        1.0  0.5170689905840575  0.0412672967551515  0.7985298714129528  1.0000
  H   H8        1.0  0.9824893023495421  0.20125923745863616  0.9591765411444371  1.0000
  H   H9        1.0  0.33091348373903184  0.961572321466292  0.12144857465780488  1.0000
  H   H10       1.0  0.16945658195397315  0.8785033037019263  0.03900578390572921  1.0000
  H   H11       1.0  0.669057997463767  0.03846026001667719  0.8785628742706494  1.0000
  H   H12       1.0  0.8305671336475128  0.1214838571622678  0.9609826171941549  1.0000
  H   H13       1.0  0.5303757272421592  0.9118869084957238  0.4282660962054975  1.0000
  H   H14       1.0  0.9697534888893599  0.5715940450172354  0.08822811794579623  1.0000
  H   H15       1.0  0.4695917244739434  0.08814656194760317  0.5717560228542737  1.0000
  H   H16       1.0  0.03022147455151723  0.42842114485122806  0.9117642626562201  1.0000
  H   H17       1.0  0.6911062220184835  0.7772856105841085  0.39160892071245  1.0000
  H   H18       1.0  0.8091946576648684  0.6091587757372422  0.2225075856257135  1.0000
  H   H19       1.0  0.30884252687959446  0.22273300049347708  0.6084230715978336  1.0000
  H   H20       1.0  0.19079287650176013  0.39085655228718963  0.7774840831951195  1.0000
  H   H21       1.0  0.6819132851039812  0.8899785120888025  0.2900851299382126  1.0000
  H   H22       1.0  0.8186605864649367  0.7100883397876171  0.10933871442427544  1.0000
  H   H23       1.0  0.31806247809647203  0.1100299586082087  0.7099371872424172  1.0000
  H   H24       1.0  0.18130500790817186  0.2899249817467151  0.8906488676242362  1.0000
  H   H25       1.0  0.029804632241869893  0.21515230323878143  0.2011663541199482  1.0000
  H   H26       1.0  0.47094219505416396  0.7986908092589573  0.7849933056961902  1.0000
  H   H27       1.0  0.9702109516309463  0.7848365917142459  0.7988367722572532  1.0000
  H   H28       1.0  0.5290653753050519  0.20129880499934671  0.21500135551465155  1.0000
  H   H29       1.0  0.045643240846253284  0.35942046817348233  0.1705160903110681  1.0000
  H   H30       1.0  0.45411897073657304  0.8299649048505059  0.6410776719112548  1.0000
  H   H31       1.0  0.9543660488312469  0.6405708668733323  0.8294740394186421  1.0000
  H   H32       1.0  0.5458913925806499  0.1700299339975118  0.35891709793232  1.0000
  H   H33       1.0  0.851170291933478  0.3206058420135705  0.17014409142312562  1.0000
  H   H34       1.0  0.6490660910965785  0.8298713927635007  0.6795632317241457  1.0000
  H   H35       1.0  0.14883509504286263  0.6793803433875211  0.8298593961972144  1.0000
  H   H36       1.0  0.35094462609220767  0.17011394379196074  0.3204334835779505  1.0000
  H   H37       1.0  0.48283829062373945  0.373951568712613  0.5535328161773663  1.0000
  H   H38       1.0  0.017133315396506508  0.4464556362287411  0.6260150649896516  1.0000
  H   H39       1.0  0.5171830054144522  0.6260356215018489  0.4464643267596601  1.0000
  H   H40       1.0  0.9828916097246532  0.5535289953095557  0.37398149085658633  1.0000
  H   H41       1.0  0.47033782674078134  0.42095053508131747  0.6863124718932099  1.0000
  H   H42       1.0  0.03018451453796446  0.31338374292674587  0.579341324074548  1.0000
  H   H43       1.0  0.5296812139574171  0.5790418124067003  0.3136832452680666  1.0000
  H   H44       1.0  0.9698183619309901  0.6866024170347487  0.42066263665129366  1.0000
  H   H45       1.0  0.6119884764633595  0.2965890080707752  0.6270798053675151  1.0000
  H   H46       1.0  0.8882091964894843  0.37292380110056905  0.7033542342183452  1.0000
  H   H47       1.0  0.3880336479397287  0.703405138673382  0.3729210662378506  1.0000
  H   H48       1.0  0.11180049386595674  0.6270728043231841  0.2966472266007401  1.0000
  C   C1        1.0  0.23555295136451804  0.9458177829017631  0.30432533236457  1.0000
  C   C2        1.0  0.26457657104296545  0.6954261309021278  0.05412987479773793  1.0000
  C   C3        1.0  0.7644354103688542  0.0541958716897071  0.6956737023245408  1.0000
  C   C4        1.0  0.7354144531340692  0.3045581517225884  0.9458722410995932  1.0000
  C   C5        1.0  0.37988355751620145  0.9204201959760142  0.19256982678884782  1.0000
  C   C6        1.0  0.12035667329185881  0.8072751141225254  0.07960282524712883  1.0000
  C   C7        1.0  0.6201022487739181  0.07959952109281691  0.8074344351049234  1.0000
  C   C8        1.0  0.8796723722601031  0.19270868324527154  0.9203913291994325  1.0000
  C   C9        1.0  0.7886062809341041  0.9186929119715401  0.425936278649445  1.0000
  C   C10       1.0  0.7114089912167996  0.5743039188466099  0.08136467940947514  1.0000
  C   C11       1.0  0.21137869672915596  0.08131733391682869  0.574076780240901  1.0000
  C   C12       1.0  0.2885765123013827  0.42568721287691585  0.9186357329346392  1.0000
  C   C13       1.0  0.6663393020084455  0.8701415077938606  0.3809981039004597  1.0000
  C   C14       1.0  0.8338860434561328  0.6192736327304617  0.12966816844138407  1.0000
  C   C15       1.0  0.3336273569222358  0.12987639807305124  0.6190272311835656  1.0000
  C   C16       1.0  0.16609432295245347  0.38074075212426106  0.870324054827698  1.0000
  C   C17       1.0  0.8778030069769328  0.34011294613155485  0.3375414022551269  1.0000
  C   C18       1.0  0.6222153277387008  0.6624672324771408  0.6597462563728556  1.0000
  C   C19       1.0  0.12222813208617823  0.6598864559273991  0.6624534339802395  1.0000
  C   C20       1.0  0.37777333276358155  0.3375307716359543  0.34024087407082243  1.0000
  C   C21       1.0  0.9586091841657807  0.3067114121233772  0.21161400687471132  1.0000
  C   C22       1.0  0.5416373026020693  0.788475317001044  0.6934390177265327  1.0000
  C   C23       1.0  0.041403234688651556  0.693281749574517  0.7883854116649047  1.0000
  C   C24       1.0  0.45838066445640646  0.21151352668577053  0.3065520593208788  1.0000
  N   N1        1.0  0.5533557394497635  0.37970818278557067  0.6108607345881012  1.0000
  N   N2        1.0  0.9469118216590647  0.38895766784138897  0.620300840456636  1.0000
  N   N3        1.0  0.4466645655965422  0.6202841829012229  0.3891355728935864  1.0000
  N   N4        1.0  0.05310173395977823  0.6110329206987116  0.37970011784401686  1.0000
  O   O1        1.0  0.12500949001023537  0.044156649685682184  0.3160077278812921  1.0000
  O   O2        1.0  0.3748966807211787  0.6838230546026693  0.9558775714069512  1.0000
  O   O3        1.0  0.8749517194083153  0.9558498031762425  0.6839958532398995  1.0000
  O   O4        1.0  0.6250739135472331  0.3161583016529974  0.044109433819087815  1.0000
  O   O5        1.0  0.23797503998193303  0.868478964676697  0.378913797504552  1.0000
  O   O6        1.0  0.2622119445666656  0.6207171916652356  0.131365375201753  1.0000
  O   O7        1.0  0.7620588575320895  0.13154650064247156  0.6210919796009051  1.0000
  O   O8        1.0  0.7378156095511771  0.3792700511902466  0.8686289312251957  1.0000
  O   O9        1.0  0.778099759222336  0.025187115268124696  0.41208383793862424  1.0000
  O   O10       1.0  0.721639743839212  0.5881640321569891  0.9749535635628845  1.0000
  O   O11       1.0  0.2218658803731089  0.974824805020745  0.5879543439354293  1.0000
  O   O12       1.0  0.27833719249102984  0.41184080128780215  0.025039661076633007  1.0000
  O   O13       1.0  0.8936521648338526  0.8496788965263775  0.4740420662992337  1.0000
  O   O14       1.0  0.6066711499291628  0.5261551039224982  0.15038575141016963  1.0000
  O   O15       1.0  0.10636641285987739  0.1503228875063485  0.525941782925564  1.0000
  O   O16       1.0  0.39334101322168635  0.47382675975034516  0.8496066775457223  1.0000
  O   O17       1.0  0.8367211614779891  0.26711744719461444  0.4089495009990927  1.0000
  O   O18       1.0  0.6626533977042115  0.5906947656124543  0.7326611753938224  1.0000
  O   O19       1.0  0.16331852791859092  0.7328829874596465  0.5910561204595766  1.0000
  O   O20       1.0  0.3373304862599724  0.4092911049302827  0.2673314499063295  1.0000
  O   O21       1.0  0.8458701013080372  0.4468569562449503  0.3707229896192387  1.0000
  O   O22       1.0  0.654468879618875  0.6295100302095874  0.5529529029323258  1.0000
  O   O23       1.0  0.1541450468435457  0.5531413916897492  0.6292707494409768  1.0000
  O   O24       1.0  0.345557619846211  0.37048234976533206  0.4470347799271366  1.0000
