data_image0
_chemical_formula_structural       Zn2H28C16S4N8O8
_chemical_formula_sum              "Zn2 H28 C16 S4 N8 O8"
_cell_length_a       8.580337388892323
_cell_length_b       8.578322591316942
_cell_length_c       12.184986207948784
_cell_angle_alpha    91.73265768539267
_cell_angle_beta     110.86526216631982
_cell_angle_gamma    116.81437987609966

_space_group_name_H-M_alt    "P 1"
_space_group_IT_number       1

loop_
  _space_group_symop_operation_xyz
  'x, y, z'

loop_
  _atom_site_type_symbol
  _atom_site_label
  _atom_site_symmetry_multiplicity
  _atom_site_fract_x
  _atom_site_fract_y
  _atom_site_fract_z
  _atom_site_occupancy
  Zn  Zn1       1.0  0.7099420420002786  0.9599300133065685  0.7500039470273306  1.0000
  Zn  Zn2       1.0  0.29005572750373426  0.0400668173150009  0.24999787734552828  1.0000
  H   H1        1.0  0.45532993340591327  0.7922228096669599  0.9913207547438958  1.0000
  H   H2        1.0  0.30095412182056686  0.463921918933316  0.5088413583314946  1.0000
  H   H3        1.0  0.5446656472124333  0.20777946262364114  0.00867577773536255  1.0000
  H   H4        1.0  0.6990473751935226  0.5360749353173802  0.49115973404148144  1.0000
  H   H5        1.0  0.4431218333027474  0.7889739548343828  0.8450030159477322  1.0000
  H   H6        1.0  0.4439238210958152  0.5980730014439432  0.6551457240076815  1.0000
  H   H7        1.0  0.5568799960093358  0.21102829151011093  0.15499668075590733  1.0000
  H   H8        1.0  0.5560790823095729  0.401926560813024  0.3448541525166533  1.0000
  H   H9        1.0  0.8796772644220354  0.747946269420389  0.08581870736446723  1.0000
  H   H10       1.0  0.16213866178477337  0.7938051105647332  0.4142709887487115  1.0000
  H   H11       1.0  0.12032067123097084  0.252053257248079  0.9141824191737272  1.0000
  H   H12       1.0  0.8378628284461344  0.20619175593495948  0.585729281582232  1.0000
  H   H13       1.0  0.6949081737143458  0.8612166914880747  0.1917789798830043  1.0000
  H   H14       1.0  0.1693122119570702  0.5029450229467827  0.3083067861362636  1.0000
  H   H15       1.0  0.3050906245001315  0.13878689747942738  0.8082200188541648  1.0000
  H   H16       1.0  0.8306905252993174  0.4970518432632858  0.6916937882227359  1.0000
  H   H17       1.0  0.7781515065768119  0.7078505499993639  0.23834521394969232  1.0000
  H   H18       1.0  0.9694348851725181  0.5396483563851363  0.2618012246206974  1.0000
  H   H19       1.0  0.2218480151828359  0.2921543562242875  0.761655642989254  1.0000
  H   H20       1.0  0.030567315037217258  0.460349851868699  0.7381992598279581  1.0000
  H   H21       1.0  0.5359634342171447  0.6255232562191823  0.13328513328414002  1.0000
  H   H22       1.0  0.9922397000530054  0.4025204826782272  0.3668520499614374  1.0000
  H   H23       1.0  0.46403341377620677  0.37447897903480504  0.8667141693492867  1.0000
  H   H24       1.0  0.007764450377855841  0.5974790792891156  0.6331481305909605  1.0000
  H   H25       1.0  0.9220767556713341  0.7993353731449349  0.45181561568038114  1.0000
  H   H26       1.0  0.8476999858077435  0.4704499079074723  0.048246110124992615  1.0000
  H   H27       1.0  0.07790462278613572  0.2006587896928309  0.5481813100782702  1.0000
  H   H28       1.0  0.15230470845295238  0.5295482997671145  0.9517549823797822  1.0000
  C   C1        1.0  0.6564476310577376  0.7520945281615924  0.9551209398827396  1.0000
  C   C2        1.0  0.29693792582850875  0.7012316726843935  0.5449843834638698  1.0000
  C   C3        1.0  0.34355155162074874  0.24790499821725834  0.04488049068351069  1.0000
  C   C4        1.0  0.7030655214067068  0.29876653527981045  0.4550164050128487  1.0000
  C   C5        1.0  0.6849295155623593  0.7334679850718119  0.16199156474858253  1.0000
  C   C6        1.0  0.07145183034570131  0.5228089594871366  0.3381400131760302  1.0000
  C   C7        1.0  0.3150680424098127  0.2665355919363179  0.8380079520025632  1.0000
  C   C8        1.0  0.9285528639149873  0.4771892481874432  0.6618610793287445  1.0000
  C   C9        1.0  0.8347948860844596  0.8818555014136108  0.5808101810958277  1.0000
  C   C10       1.0  0.8009824799070486  0.2540718835649116  0.9191255117696784  1.0000
  C   C11       1.0  0.16520072166659358  0.1181467218810042  0.4191896395515755  1.0000
  C   C12       1.0  0.1990211334771601  0.7459290204461908  0.08087457887236836  1.0000
  C   C13       1.0  0.9422158021803994  0.9177964306337785  0.5037974707575046  1.0000
  C   C14       1.0  0.9139939604567432  0.43847780481467424  0.9961908641624788  1.0000
  C   C15       1.0  0.05777266039957139  0.08220181755289958  0.4961972032563651  1.0000
  C   C16       1.0  0.08601090673612093  0.5615230866578076  0.0038103525496638122  1.0000
  S   S1        1.0  0.7462615563316463  0.7438297393781995  0.848831866892695  1.0000
  S   S2        1.0  0.3951077099729902  0.897476219248212  0.6512041957305997  1.0000
  S   S3        1.0  0.25373887337232054  0.2561697867110269  0.1511698677016184  1.0000
  S   S4        1.0  0.6048932499944469  0.1025219770462442  0.3487968067320253  1.0000
  N   N1        1.0  0.49514777973111274  0.7598339105705064  0.926419459905965  1.0000
  N   N2        1.0  0.33335221483961414  0.5686026252236757  0.5737340682398298  1.0000
  N   N3        1.0  0.5048520993598444  0.24016698206047948  0.0735805406939321  1.0000
  N   N4        1.0  0.6666499853701211  0.4313955830301595  0.4262664162088257  1.0000
  N   N5        1.0  0.7482055974828157  0.7392004212088353  0.06556330681785025  1.0000
  N   N6        1.0  0.1736234529574078  0.6825464933367444  0.4345418649945998  1.0000
  N   N7        1.0  0.251793758127846  0.26080178896791756  0.934438247955768  1.0000
  N   N8        1.0  0.8263812345201059  0.31745172658683884  0.5654584054681422  1.0000
  O   O1        1.0  0.7314535010308845  0.7221674842279598  0.5819045649198671  1.0000
  O   O2        1.0  0.640220945306325  0.14961258816583006  0.9180180049271414  1.0000
  O   O3        1.0  0.26854640519277245  0.27783335940703324  0.4180987238481748  1.0000
  O   O4        1.0  0.3597821310312384  0.8503896578890391  0.08198199580456125  1.0000
  O   O5        1.0  0.8549051367207524  0.019200363520830904  0.644807545585337  1.0000
  O   O6        1.0  0.8742955268577717  0.2101561636694527  0.8551143382068318  1.0000
  O   O7        1.0  0.1450917112725989  0.9808018717331564  0.35519175704808953  1.0000
  O   O8        1.0  0.12570668013513864  0.7898420323353863  0.1448869682838563  1.0000
