data_image0
_chemical_formula_structural       Al4H32C56O24
_chemical_formula_sum              "Al4 H32 C56 O24"
_cell_length_a       6.708631410495092
_cell_length_b       19.20741155618095
_cell_length_c       19.820118434441227
_cell_angle_alpha    99.10572088296715
_cell_angle_beta     90.03714050406055
_cell_angle_gamma    89.94358145030691

_space_group_name_H-M_alt    "P 1"
_space_group_IT_number       1

loop_
  _space_group_symop_operation_xyz
  'x, y, z'

loop_
  _atom_site_type_symbol
  _atom_site_label
  _atom_site_symmetry_multiplicity
  _atom_site_fract_x
  _atom_site_fract_y
  _atom_site_fract_z
  _atom_site_occupancy
  Al  Al1       1.0  0.17212362359502012  0.7492815406617269  0.7513366094889874  1.0000
  Al  Al2       1.0  0.8284803914984167  0.2514042079820058  0.24960960326072273  1.0000
  Al  Al3       1.0  0.6721237046894828  0.7507756482362851  0.7485460071166443  1.0000
  Al  Al4       1.0  0.3285476075820384  0.24846304154210944  0.2504511739217321  1.0000
  H   H1        1.0  0.2513395558553952  0.91087496218622  0.6506772349608949  1.0000
  H   H2        1.0  0.7498399802565954  0.141676730665786  0.397151187734849  1.0000
  H   H3        1.0  0.7526087253982395  0.5891763813326776  0.8498859302567539  1.0000
  H   H4        1.0  0.24898223857029927  0.3582418101975691  0.10237956824862242  1.0000
  H   H5        1.0  0.6831749471564947  0.9505911670553717  0.5004861627799073  1.0000
  H   H6        1.0  0.32289623573816323  0.9971205557833189  0.4529816359620398  1.0000
  H   H7        1.0  0.18256808570673397  0.5495066912311586  0.9989780591251362  1.0000
  H   H8        1.0  0.8218851989282568  0.5030270988372862  0.0477017803454416  1.0000
  H   H9        1.0  0.6211668283941166  0.8685079666419072  0.9481195231060084  1.0000
  H   H10       1.0  0.37485064313364086  0.1307050616749947  0.052177331078723896  1.0000
  H   H11       1.0  0.1207347248706085  0.6315224465912835  0.5517243614044317  1.0000
  H   H12       1.0  0.8753811432310883  0.36922165545441743  0.44793904701842985  1.0000
  H   H13       1.0  0.3806139398406287  0.029506521960684023  0.9568378568174866  1.0000
  H   H14       1.0  0.6146857066356545  0.9700232740602602  0.043106369819376794  1.0000
  H   H15       1.0  0.8809333532402447  0.47045363045503313  0.5432269439025531  1.0000
  H   H16       1.0  0.11447985652421269  0.5299312595044154  0.4567993427032917  1.0000
  H   H17       1.0  0.29115637838526703  0.9920289687739866  0.5657673986187817  1.0000
  H   H18       1.0  0.7116175743585984  0.06402444196979928  0.4852947035623956  1.0000
  H   H19       1.0  0.7914712319300037  0.5080136295291239  0.9348633920264574  1.0000
  H   H20       1.0  0.2112828971427447  0.43600349782881404  0.0142598061735484  1.0000
  H   H21       1.0  0.641479260550227  0.8734553372456446  0.5892618325058335  1.0000
  H   H22       1.0  0.36314583662586836  0.07928528656866261  0.36874530128652344  1.0000
  H   H23       1.0  0.1418266372178678  0.6266064387828295  0.9101070402438509  1.0000
  H   H24       1.0  0.8615818067885429  0.4208268970328817  0.1319614459933049  1.0000
  H   H25       1.0  0.3580109864721237  0.8673473150409026  0.9014982084468457  1.0000
  H   H26       1.0  0.6394185939855033  0.13260866170212177  0.1003980578429591  1.0000
  H   H27       1.0  0.8576553143256617  0.6326193200072866  0.5986397166755566  1.0000
  H   H28       1.0  0.14023586971443078  0.36712862781892147  0.3995240095317385  1.0000
  H   H29       1.0  0.4205527933759683  0.8439238291764326  0.770871657761866  1.0000
  H   H30       1.0  0.5825320488326611  0.15589273087277178  0.2321481357536399  1.0000
  H   H31       1.0  0.9209736863208988  0.6561141156598892  0.7292904564373117  1.0000
  H   H32       1.0  0.08198863923806239  0.3439472895042499  0.2679332147695703  1.0000
  C   C1        1.0  0.4163283380857408  0.6682374911113556  0.6431739664944088  1.0000
  C   C2        1.0  0.5821638184063643  0.3330005626721118  0.35599972226838617  1.0000
  C   C3        1.0  0.9167609932883849  0.8318037108256959  0.856741512968128  1.0000
  C   C4        1.0  0.081428147513833  0.16687703101757023  0.1440711446502903  1.0000
  C   C5        1.0  0.4278250970683927  0.6612985593050026  0.82353743836034  1.0000
  C   C6        1.0  0.5730599805231265  0.33684105900606914  0.1744137704871207  1.0000
  C   C7        1.0  0.9265785764128792  0.8387416564264853  0.6763833552646332  1.0000
  C   C8        1.0  0.0744541833919996  0.16303140178363404  0.32564450726589905  1.0000
  C   C9        1.0  0.14969844172644284  0.9649029653576519  0.5694206461634508  1.0000
  C   C10       1.0  0.8535409949459662  0.0657827628801968  0.45878732595910066  1.0000
  C   C11       1.0  0.6499873657764323  0.5351462876985592  0.9309236476883527  1.0000
  C   C12       1.0  0.3529824413726884  0.43422166532937473  0.0409790927502414  1.0000
  C   C13       1.0  0.12767037710626988  0.9203057176897147  0.6176246209197912  1.0000
  C   C14       1.0  0.874689808763513  0.1100438108938135  0.4102906576245075  1.0000
  C   C15       1.0  0.6284640362675445  0.5797367273034554  0.8826782780842991  1.0000
  C   C16       1.0  0.3738318433901213  0.3899136342552723  0.0894808642311631  1.0000
  C   C17       1.0  0.9439914679953103  0.8874350862302334  0.6252692426404919  1.0000
  C   C18       1.0  0.0587102103603954  0.1154116349451328  0.37780045515050625  1.0000
  C   C19       1.0  0.44480674325131986  0.6126046604875127  0.8746870310063031  1.0000
  C   C20       1.0  0.5575158525387492  0.3845102673449787  0.1222862788407966  1.0000
  C   C21       1.0  0.7831466433808032  0.8996772755799896  0.5835349243117988  1.0000
  C   C22       1.0  0.22106383615648176  0.07548722766486551  0.39457401364989403  1.0000
  C   C23       1.0  0.2834766875745061  0.6003699684790648  0.9161035710795886  1.0000
  C   C24       1.0  0.7197755949212449  0.42455307969115097  0.10585929134732909  1.0000
  C   C25       1.0  0.8069444673651348  0.943430808601221  0.5344596903905836  1.0000
  C   C26       1.0  0.19807495836508338  0.030130717809605287  0.44226798807106593  1.0000
  C   C27       1.0  0.3067570686369407  0.5566259866137103  0.965234800644737  1.0000
  C   C28       1.0  0.6971127608910236  0.4699512120010354  0.058158849070480294  1.0000
  C   C29       1.0  0.9901269919890863  0.9771104426316201  0.5266246549294635  1.0000
  C   C30       1.0  0.0143672118276186  0.024520079581563402  0.4754176283653422  1.0000
  C   C31       1.0  0.48992685646995676  0.5229501352198086  0.973414808763664  1.0000
  C   C32       1.0  0.5138049026176076  0.475525998018597  0.0246480982358861  1.0000
  C   C33       1.0  0.9185731493538897  0.8895896527468637  0.9163235925295723  1.0000
  C   C34       1.0  0.07756081830805779  0.10954464222995604  0.0840802985649844  1.0000
  C   C35       1.0  0.41836943921412467  0.6104415722539683  0.583588549077504  1.0000
  C   C36       1.0  0.5780040701218779  0.3903729117012062  0.41594788240782066  1.0000
  C   C37       1.0  0.25096450633557044  0.038981693086071786  0.9901063582773303  1.0000
  C   C38       1.0  0.7444381791633389  0.9604787349186739  0.0099179348598426  1.0000
  C   C39       1.0  0.7513003216474419  0.46098207416299897  0.5099254454584141  1.0000
  C   C40       1.0  0.24427659128067344  0.5395168814530678  0.49001044781722664  1.0000
  C   C41       1.0  0.24782649047788397  0.0953610101828417  0.04219861544758881  1.0000
  C   C42       1.0  0.7479865616951571  0.9039164046861288  0.9579926074958465  1.0000
  C   C43       1.0  0.7482579611220146  0.4045821869888755  0.4578587571090438  1.0000
  C   C44       1.0  0.24777161366950648  0.5961156090163088  0.5418956084915507  1.0000
  C   C45       1.0  0.9087577087989729  0.0674636351564715  0.07297970145799579  1.0000
  C   C46       1.0  0.0870284808374677  0.9318942704019834  0.9273009752183938  1.0000
  C   C47       1.0  0.4089630635052259  0.43250065438838453  0.4269975996193835  1.0000
  C   C48       1.0  0.586954730183983  0.5681222621252714  0.5726596924007906  1.0000
  C   C49       1.0  0.9102757904767882  0.006871223973391202  0.021154970596597898  1.0000
  C   C50       1.0  0.08516875072919561  0.9925686756518316  0.9789553992396307  1.0000
  C   C51       1.0  0.4103397364105916  0.4931019311506191  0.478811924628566  1.0000
  C   C52       1.0  0.5852907096097225  0.5074167629293315  0.5210261561827566  1.0000
  C   C53       1.0  0.27203108443774937  0.911593317822259  0.8857661714674377  1.0000
  C   C54       1.0  0.7240555330975695  0.08742003490760912  0.11480155037739338  1.0000
  C   C55       1.0  0.7719041195868073  0.588350442387586  0.6142671400212194  1.0000
  C   C56       1.0  0.22415628476670688  0.41247488290964907  0.3852111797677651  1.0000
  O   O1        1.0  0.5921949931441688  0.6802926822306927  0.8000518518845823  1.0000
  O   O2        1.0  0.407848334960768  0.31605069591915946  0.19565446056864738  1.0000
  O   O3        1.0  0.0907661664448085  0.8201018627133791  0.7004362396639223  1.0000
  O   O4        1.0  0.9093480657812518  0.1832317225991957  0.3036236779323573  1.0000
  O   O5        1.0  0.24848598205581138  0.6896234140908958  0.6674798595482656  1.0000
  O   O6        1.0  0.7512292940089579  0.3117590191195418  0.33271216263382547  1.0000
  O   O7        1.0  0.7489645182304939  0.8108582237756039  0.8320789631343644  1.0000
  O   O8        1.0  0.2504583396503719  0.18755350512555682  0.1678242537308421  1.0000
  O   O9        1.0  0.2547882267834892  0.6806082885249439  0.8067964984852479  1.0000
  O   O10       1.0  0.745557753070372  0.32033196779030965  0.1943742816008154  1.0000
  O   O11       1.0  0.7534970334852886  0.8191215545449141  0.6925784204324045  1.0000
  O   O12       1.0  0.2470431832908915  0.18002237513389474  0.3063546919334641  1.0000
  O   O13       1.0  0.08714097013851328  0.8099725036086554  0.8337437078068248  1.0000
  O   O14       1.0  0.9121867393418056  0.18867270511053388  0.1682266412433222  1.0000
  O   O15       1.0  0.5866880764816855  0.6896734618648351  0.6665103876348653  1.0000
  O   O16       1.0  0.4130233110448387  0.31173341804521465  0.3313532970621011  1.0000
  O   O17       1.0  0.4218309640568307  0.7926683039064174  0.7595580309982708  1.0000
  O   O18       1.0  0.5797460074892198  0.20721965473433812  0.24125361036577428  1.0000
  O   O19       1.0  0.922020570116011  0.707384484124745  0.7403221955577663  1.0000
  O   O20       1.0  0.07950535637893097  0.2926236310398664  0.25884009207626235  1.0000
  O   O21       1.0  0.3331516955010301  0.9425988117973604  0.8403699944511445  1.0000
  O   O22       1.0  0.6619518811046348  0.05521185526320951  0.15915386630048542  1.0000
  O   O23       1.0  0.8334792977500242  0.5571796831862558  0.6595214907971041  1.0000
  O   O24       1.0  0.16106299750171618  0.4448190029537073  0.341060970174091  1.0000
