data_image0
_chemical_formula_structural       Cd2H24C28S4N16
_chemical_formula_sum              "Cd2 H24 C28 S4 N16"
_cell_length_a       8.044699541445823
_cell_length_b       9.409524769288215
_cell_length_c       12.231608992278836
_cell_angle_alpha    112.62882652204772
_cell_angle_beta     98.3760928820967
_cell_angle_gamma    90.03235216585435

_space_group_name_H-M_alt    "P 1"
_space_group_IT_number       1

loop_
  _space_group_symop_operation_xyz
  'x, y, z'

loop_
  _atom_site_type_symbol
  _atom_site_label
  _atom_site_symmetry_multiplicity
  _atom_site_fract_x
  _atom_site_fract_y
  _atom_site_fract_z
  _atom_site_occupancy
  Cd  Cd1       1.0  0.9999993360220857  0.999997474768243  0.49999927486272366  1.0000
  Cd  Cd2       1.0  0.4999987166381529  0.4999992167915509  0.49999991865254867  1.0000
  H   H1        1.0  0.8839651898353295  0.18044176576540852  0.3029192230308908  1.0000
  H   H2        1.0  0.6160728056185647  0.8772024007342623  0.6971233118514776  1.0000
  H   H3        1.0  0.11603750471776661  0.8195601030575547  0.6970837932143186  1.0000
  H   H4        1.0  0.38392859214936687  0.12279835719650829  0.3028727044064752  1.0000
  H   H5        1.0  0.641168879557746  0.7784090558984217  0.2908342303249256  1.0000
  H   H6        1.0  0.8590952656201266  0.48729499931517495  0.7084541306401138  1.0000
  H   H7        1.0  0.35882294201376647  0.22159863592938217  0.7091661862807258  1.0000
  H   H8        1.0  0.14089089229083376  0.5127045751116697  0.2915531144096306  1.0000
  H   H9        1.0  0.4449644580193137  0.8758869299125891  0.02071963094734733  1.0000
  H   H10       1.0  0.054781335909801485  0.8550553165899331  0.9791544985034194  1.0000
  H   H11       1.0  0.5550406363556561  0.12411267221888521  0.9792747683521412  1.0000
  H   H12       1.0  0.9452122204311165  0.14494195108044042  0.02084869702179758  1.0000
  H   H13       1.0  0.3392563475761675  0.8572845574838368  0.1336957770977634  1.0000
  H   H14       1.0  0.1605984145512735  0.7235663021096811  0.8662283489352305  1.0000
  H   H15       1.0  0.6607428932888338  0.14272084695601717  0.8662973275529071  1.0000
  H   H16       1.0  0.8394021283147663  0.2764402180644935  0.13377094009508989  1.0000
  H   H17       1.0  0.37180542804904343  0.6234474346133823  0.18463110627538987  1.0000
  H   H18       1.0  0.1278567996959339  0.4387163657322262  0.8151953599431963  1.0000
  H   H19       1.0  0.628193478238664  0.3765533506130723  0.815361402860546  1.0000
  H   H20       1.0  0.872158174157441  0.561280892662829  0.1848001281690018  1.0000
  H   H21       1.0  0.5761489978512344  0.6555032233424853  0.8879834937349927  1.0000
  H   H22       1.0  0.9240229751333329  0.7675376125398614  0.11199390955261632  1.0000
  H   H23       1.0  0.42384412683509953  0.3445045081009113  0.11200970474794053  1.0000
  H   H24       1.0  0.07598419902009819  0.23245619433183856  0.8880022329659597  1.0000
  C   C1        1.0  0.7984221164378622  0.07920533876210809  0.2737079365285311  1.0000
  C   C2        1.0  0.7015647533012553  0.8051417642739409  0.7262136507062992  1.0000
  C   C3        1.0  0.2015753939629192  0.9207942435716773  0.7262930691647611  1.0000
  C   C4        1.0  0.2984339361469281  0.19485666534558277  0.2737863089445796  1.0000
  C   C5        1.0  0.6772855742764677  0.8761031225303171  0.27125334428852454  1.0000
  C   C6        1.0  0.822885478367574  0.6045437874600521  0.7282709782770881  1.0000
  C   C7        1.0  0.32270472845446807  0.12390109795622813  0.7287483384524123  1.0000
  C   C8        1.0  0.1771057146626518  0.3954557807967305  0.27173512494056956  1.0000
  C   C9        1.0  0.4524788039031264  0.8292552308409356  0.09069738108076558  1.0000
  C   C10       1.0  0.04730315993148788  0.7384188893903881  0.9091610319385454  1.0000
  C   C11       1.0  0.5475244264191371  0.1707535982759794  0.9093012269870685  1.0000
  C   C12       1.0  0.9526883479262621  0.2615842025925446  0.090835526721925  1.0000
  C   C13       1.0  0.4727307253665245  0.6579273267639109  0.04188027969327381  1.0000
  C   C14       1.0  0.027086721134907094  0.6159259944019482  0.9579842084277602  1.0000
  C   C15       1.0  0.5272582179886526  0.3420757247248716  0.9581241903517397  1.0000
  C   C16       1.0  0.972915736828895  0.3840724233268276  0.04201611826047009  1.0000
  C   C17       1.0  0.42938268597481505  0.5693594633298958  0.10414267357894867  1.0000
  C   C18       1.0  0.0704368926571064  0.46512764298528714  0.8957599076426919  1.0000
  C   C19       1.0  0.5706119618572743  0.4306354931912679  0.8958599387308797  1.0000
  C   C20       1.0  0.9295706619027797  0.5348719027977183  0.10424289242448032  1.0000
  C   C21       1.0  0.542983098500315  0.5872936219424076  0.9372203498479693  1.0000
  C   C22       1.0  0.9570891642494244  0.6500847214614325  0.06277676063661629  1.0000
  C   C23       1.0  0.45700973222201907  0.4127106051433671  0.06277913076170445  1.0000
  C   C24       1.0  0.0429193838136328  0.3499113450531439  0.9372275502574183  1.0000
  C   C25       1.0  0.6551434225010693  0.2077036997801969  0.5723985213666936  1.0000
  C   C26       1.0  0.8446703485914071  0.6354484164897515  0.42754506412804727  1.0000
  C   C27       1.0  0.344872951341351  0.7922958424683842  0.42760105708289603  1.0000
  C   C28       1.0  0.1553316924547588  0.36454422843280554  0.5724543142648599  1.0000
  S   S1        1.0  0.7624028141961149  0.1189980016396888  0.6479954107000198  1.0000
  S   S2        1.0  0.7371464906090847  0.4712075299479821  0.35184711859540846  1.0000
  S   S3        1.0  0.23760996102726747  0.8810038645274075  0.35200369066578224  1.0000
  S   S4        1.0  0.2628507571229903  0.5287885770809666  0.6481552755789652  1.0000
  N   N1        1.0  0.5988442699590025  0.9113419715475786  0.18074247375337651  1.0000
  N   N2        1.0  0.9010767284061812  0.7302892544019173  0.8190408927517865  1.0000
  N   N3        1.0  0.4011570298209294  0.08865761826398709  0.8192556365468208  1.0000
  N   N4        1.0  0.09891825921908289  0.2697103261747743  0.18096149946516965  1.0000
  N   N5        1.0  0.6744382780413359  0.0412830614663875  0.18083619628374242  1.0000
  N   N6        1.0  0.8253499423470883  0.8600937881162238  0.819205459150588  1.0000
  N   N7        1.0  0.32556520472093803  0.9587119060467447  0.8191607475856771  1.0000
  N   N8        1.0  0.17465252604848294  0.1399046392968089  0.1807932363224225  1.0000
  N   N9        1.0  0.8052395856036795  0.9802188326781548  0.33125302190391914  1.0000
  N   N10       1.0  0.6949877416664945  0.6486664383002181  0.6683624668858245  1.0000
  N   N11       1.0  0.19475038254996951  0.019780768594991102  0.6687480653222906  1.0000
  N   N12       1.0  0.30500714275488855  0.35133196931513305  0.3316428349809827  1.0000
  N   N13       1.0  0.5753870865800295  0.27237557403114476  0.5185347199974899  1.0000
  N   N14       1.0  0.9247136078882078  0.7539356110921958  0.48145751336596027  1.0000
  N   N15       1.0  0.424627274176629  0.7276309025436375  0.4814659148364485  1.0000
  N   N16       1.0  0.07530006285034571  0.24606160768725976  0.5185451928689488  1.0000
