data_image0
_chemical_formula_structural       Mn2H24C40N20
_chemical_formula_sum              "Mn2 H24 C40 N20"
_cell_length_a       7.353036661584451
_cell_length_b       11.148224300766433
_cell_length_c       11.148136139987622
_cell_angle_alpha    74.70029120334401
_cell_angle_beta     80.30763513964544
_cell_angle_gamma    80.3084744303822

_space_group_name_H-M_alt    "P 1"
_space_group_IT_number       1

loop_
  _space_group_symop_operation_xyz
  'x, y, z'

loop_
  _atom_site_type_symbol
  _atom_site_label
  _atom_site_symmetry_multiplicity
  _atom_site_fract_x
  _atom_site_fract_y
  _atom_site_fract_z
  _atom_site_occupancy
  Mn  Mn1       1.0  0.24999463052643023  0.5828031557249035  0.4172022888534457  1.0000
  Mn  Mn2       1.0  0.7499864318495001  0.4171743431383632  0.5828269018246671  1.0000
  H   H1        1.0  0.10477222874114024  0.5466572948157593  0.9959716797171507  1.0000
  H   H2        1.0  0.39523377669650733  0.004026935519910101  0.4533422213521945  1.0000
  H   H3        1.0  0.8952107791484423  0.4533624542357445  0.004020930386815282  1.0000
  H   H4        1.0  0.6047992833325682  0.9959685981962848  0.5466355265912312  1.0000
  H   H5        1.0  0.35436789151017917  0.6491500617999791  0.8443755457903918  1.0000
  H   H6        1.0  0.14565101545463213  0.15562699870653773  0.3508521142925147  1.0000
  H   H7        1.0  0.6456272528631642  0.35084532580460603  0.1556364253510907  1.0000
  H   H8        1.0  0.8543842467322021  0.8443741719489138  0.6491489889732236  1.0000
  H   H9        1.0  0.6321668892178206  0.6666630610389108  0.27219170952911037  1.0000
  H   H10       1.0  0.8678442989865403  0.727808501802052  0.3333460678182191  1.0000
  H   H11       1.0  0.3678260846322984  0.3333501526933419  0.7278175813571011  1.0000
  H   H12       1.0  0.13217548954154523  0.2721926125507324  0.6666434627393015  1.0000
  H   H13       1.0  0.8997506423378212  0.7528979729478493  0.12429210916933187  1.0000
  H   H14       1.0  0.6002613697512373  0.8757001485643702  0.24709809008791686  1.0000
  H   H15       1.0  0.1002305366851957  0.2470954880990207  0.875697838694137  1.0000
  H   H16       1.0  0.3997751957429045  0.12431886499151554  0.7528712013030585  1.0000
  H   H17       1.0  0.90717522532443  0.7906424130387891  0.89607894258922  1.0000
  H   H18       1.0  0.5928260244237294  0.1039082870644421  0.20935539863114627  1.0000
  H   H19       1.0  0.09282551287351029  0.20934267381915114  0.10390817659696691  1.0000
  H   H20       1.0  0.40718054490318417  0.8961106120794257  0.7906319000718725  1.0000
  H   H21       1.0  0.6468775819637571  0.7353609180819447  0.8106353002691619  1.0000
  H   H22       1.0  0.8531138222554091  0.1893676741469008  0.2646300681129432  1.0000
  H   H23       1.0  0.35309389238612704  0.26462124020225275  0.1893776624294503  1.0000
  H   H24       1.0  0.14689725243344043  0.8106362227858456  0.7353651582566058  1.0000
  C   C1        1.0  0.066831285917786  0.5098381304430646  0.24406003004796864  1.0000
  C   C2        1.0  0.43316015481692466  0.7559447991316689  0.49016102900951336  1.0000
  C   C3        1.0  0.9331737715593393  0.4901432134303931  0.7559625493441544  1.0000
  C   C4        1.0  0.5668173912602866  0.24404207452262483  0.5098553300386044  1.0000
  C   C5        1.0  0.21009938749293164  0.5695546700329146  0.15759388896192655  1.0000
  C   C6        1.0  0.289891899146255  0.8424100885447674  0.4304443592684136  1.0000
  C   C7        1.0  0.7898988894874962  0.43042383499719256  0.8424105272854232  1.0000
  C   C8        1.0  0.7100974296987629  0.1575937250471284  0.5695669725196808  1.0000
  C   C9        1.0  0.21199676090538597  0.5817967257307189  0.02802368886596437  1.0000
  C   C10       1.0  0.28800518576166917  0.9719800301411681  0.41820502068289034  1.0000
  C   C11       1.0  0.7879830482472983  0.41820517623026626  0.9719785353776232  1.0000
  C   C12       1.0  0.7120174982046947  0.02802766521465121  0.5817859999286412  1.0000
  C   C13       1.0  0.34885181545549676  0.6384939268219938  0.9449506390829326  1.0000
  C   C14       1.0  0.15115184596211148  0.055054587252520513  0.3615122450133015  1.0000
  C   C15       1.0  0.651125747869358  0.36149858013133956  0.05505435280890939  1.0000
  C   C16       1.0  0.8488822554418932  0.9449587820712324  0.6384821686582427  1.0000
  C   C17       1.0  0.4896531352443958  0.6774974341734393  0.9924188474476595  1.0000
  C   C18       1.0  0.010352928497809402  0.0075873382430984  0.3225015888289278  1.0000
  C   C19       1.0  0.5103361148664761  0.32248479162145577  0.007585670463150464  1.0000
  C   C20       1.0  0.989662363298095  0.9924372244069063  0.6774921225640255  1.0000
  C   C21       1.0  0.4814540370329539  0.6595477046902687  0.12609378394756024  1.0000
  C   C22       1.0  0.01854300790160581  0.8739107724038818  0.34045333065047595  1.0000
  C   C23       1.0  0.5185622925846473  0.3404440091686851  0.8739058391326394  1.0000
  C   C24       1.0  0.9814409798763962  0.1261108577572259  0.6595377641480411  1.0000
  C   C25       1.0  0.6335993612490896  0.6867353245993613  0.17104593428462783  1.0000
  C   C26       1.0  0.8664029592422507  0.8289548499198748  0.31326845472892717  1.0000
  C   C27       1.0  0.3664087410498881  0.3132713751692436  0.8289641572541553  1.0000
  C   C28       1.0  0.1336015382921545  0.17105184111507302  0.6867052929603616  1.0000
  C   C29       1.0  0.7825366100192995  0.7330577120906696  0.08837358831795679  1.0000
  C   C30       1.0  0.717468672265788  0.9116230134806785  0.26693806530045083  1.0000
  C   C31       1.0  0.2174522731025519  0.2669385938356045  0.9116146730724211  1.0000
  C   C32       1.0  0.2825517435367074  0.08840063300780802  0.73303015149434  1.0000
  C   C33       1.0  0.7871462291277708  0.7549527255513341  0.9579899192553539  1.0000
  C   C34       1.0  0.712855947411519  0.04200386311136841  0.24504934936415884  1.0000
  C   C35       1.0  0.21283975855579484  0.24503699937190504  0.041996852081020095  1.0000
  C   C36       1.0  0.2871613960447519  0.9580169530710451  0.7549415212580115  1.0000
  C   C37       1.0  0.6427218716850688  0.7264435572261763  0.9108253868108847  1.0000
  C   C38       1.0  0.8572772897793399  0.08917532825398672  0.2735592133727209  1.0000
  C   C39       1.0  0.357247715864986  0.2735470429540285  0.08917748665454892  1.0000
  C   C40       1.0  0.1427455739794823  0.9108389376823568  0.7264354222982021  1.0000
  N   N1        1.0  0.03870544602392557  0.5159769826709423  0.3650827033187695  1.0000
  N   N2        1.0  0.46129185619058416  0.6349238731980904  0.48402059816849163  1.0000
  N   N3        1.0  0.9613329275477799  0.4840232600651009  0.6349254475882802  1.0000
  N   N4        1.0  0.5386714965422926  0.3650770289463167  0.5159793938917403  1.0000
  N   N5        1.0  0.8937974234168989  0.4468486116414498  0.41578943432601523  1.0000
  N   N6        1.0  0.606204710793186  0.5842157543715985  0.5531450299739405  1.0000
  N   N7        1.0  0.10620313267286717  0.553126146489035  0.5842219820204092  1.0000
  N   N8        1.0  0.3938042921150354  0.4157871933254  0.4468722295420733  1.0000
  N   N9        1.0  0.8453652391546315  0.4023198088300575  0.32680562043812955  1.0000
  N   N10       1.0  0.6546376859562882  0.6731999075840845  0.5976740455345536  1.0000
  N   N11       1.0  0.15462663527546988  0.5976652403315156  0.6732166696273933  1.0000
  N   N12       1.0  0.3453744783090471  0.32679929932788104  0.4023285752136019  1.0000
  N   N13       1.0  0.9508873794793473  0.44056023515845066  0.21973287084861684  1.0000
  N   N14       1.0  0.5491021689203281  0.7802672858885703  0.5594428449852414  1.0000
  N   N15       1.0  0.04908257395778281  0.5594369352487905  0.7802816692969968  1.0000
  N   N16       1.0  0.4509049862148231  0.2197290866057813  0.4405584426060968  1.0000
  N   N17       1.0  0.3342171971133467  0.6105012046459635  0.20879116673825848  1.0000
  N   N18       1.0  0.16576969359103091  0.791212409748226  0.38950004349116085  1.0000
  N   N19       1.0  0.6657664677908103  0.3894885091085172  0.7912147274696082  1.0000
  N   N20       1.0  0.83423039445141  0.20879144573010677  0.610498315152732  1.0000
