data_image0
_chemical_formula_structural       Zn3H44C66N4O12
_chemical_formula_sum              "Zn3 H44 C66 N4 O12"
_cell_length_a       10.660101177876994
_cell_length_b       10.755311051308917
_cell_length_c       12.774447507512917
_cell_angle_alpha    83.28051596497582
_cell_angle_beta     75.81475656173265
_cell_angle_gamma    76.15005476048911

_space_group_name_H-M_alt    "P 1"
_space_group_IT_number       1

loop_
  _space_group_symop_operation_xyz
  'x, y, z'

loop_
  _atom_site_type_symbol
  _atom_site_label
  _atom_site_symmetry_multiplicity
  _atom_site_fract_x
  _atom_site_fract_y
  _atom_site_fract_z
  _atom_site_occupancy
  Zn  Zn1       1.0  0.49999957482178564  0.5000006675317081  9.171716183716145e-08  1.0000
  Zn  Zn2       1.0  0.6484507857546689  0.7305876008468388  0.147960163925994  1.0000
  Zn  Zn3       1.0  0.35154859610334915  0.26941251623460966  0.8520384174055592  1.0000
  H   H1        1.0  0.7725864966626901  0.10272840839578379  0.5517625019365013  1.0000
  H   H2        1.0  0.22741411967361103  0.8972785768598467  0.4482297576729692  1.0000
  H   H3        1.0  0.1141383153141788  0.847230830414645  0.3709203657374758  1.0000
  H   H4        1.0  0.8858630199146516  0.152773175053099  0.6290774837755251  1.0000
  H   H5        1.0  0.7727666194918185  0.3890855104566667  0.8914079134904186  1.0000
  H   H6        1.0  0.22723346985095821  0.6109116998401233  0.10859233927748585  1.0000
  H   H7        1.0  0.31653788030825325  0.6329067105846561  0.6163213834644026  1.0000
  H   H8        1.0  0.683460492252486  0.3670856375307281  0.3836804194986457  1.0000
  H   H9        1.0  0.9900855114459829  0.09559999069197998  0.21791725394636796  1.0000
  H   H10       1.0  0.009909009263424196  0.9043922740114496  0.7820861234913252  1.0000
  H   H11       1.0  0.3204998699371302  0.9610447061335773  0.9154921550790789  1.0000
  H   H12       1.0  0.6794942347665796  0.03895718492006489  0.08451048013641575  1.0000
  H   H13       1.0  0.7261887738213487  0.7299046123009488  0.7357042578751917  1.0000
  H   H14       1.0  0.27381616633655886  0.27009649418867815  0.2642970210685576  1.0000
  H   H15       1.0  0.016010905422071224  0.5215883971770905  0.9120174412262118  1.0000
  H   H16       1.0  0.9839906274761246  0.47840683893038255  0.08798660167988719  1.0000
  H   H17       1.0  0.9792808222062631  0.2520082293094673  0.9339396538534573  1.0000
  H   H18       1.0  0.02071877221771246  0.7479870453955826  0.06606086597606262  1.0000
  H   H19       1.0  0.9705519002911129  0.7849919244250356  0.272409542295982  1.0000
  H   H20       1.0  0.0294511254153917  0.21501308924347023  0.727587093449813  1.0000
  H   H21       1.0  0.5542091619411876  0.33261417320105113  0.20121635797765694  1.0000
  H   H22       1.0  0.4457907411399944  0.6673917334527815  0.798781619864336  1.0000
  H   H23       1.0  0.1901921328170673  0.505951385628542  0.7426392525040555  1.0000
  H   H24       1.0  0.8098072387074781  0.49404477526773144  0.2573651511094893  1.0000
  H   H25       1.0  0.19305226885280286  0.02692574648629888  0.25655766544179676  1.0000
  H   H26       1.0  0.8069468878242317  0.9730752713870174  0.7434440159803373  1.0000
  H   H27       1.0  0.4878878755633523  0.6244597296557899  0.443202103778745  1.0000
  H   H28       1.0  0.5121117497281064  0.37553936982861563  0.5567996470097044  1.0000
  H   H29       1.0  0.7503025999554964  0.18548831860538675  0.2577285327520684  1.0000
  H   H30       1.0  0.24969080182657424  0.8145164500316183  0.7422739984139498  1.0000
  H   H31       1.0  0.5308061697995184  0.8252480352514339  0.9525561817741847  1.0000
  H   H32       1.0  0.46918889159274363  0.1747539168069707  0.04744390466569117  1.0000
  H   H33       1.0  0.9030169310758182  0.7252924300112299  0.5671644061559604  1.0000
  H   H34       1.0  0.0969894435112977  0.2747067606916714  0.43283752815224125  1.0000
  H   H35       1.0  0.4127643718045277  0.8916568833034547  0.27839267917809  1.0000
  H   H36       1.0  0.5872357484057176  0.10834415177269106  0.7216088045487368  1.0000
  H   H37       1.0  0.03455694133501201  0.5795974149698464  0.4439873020191031  1.0000
  H   H38       1.0  0.9654438772337742  0.4204007717242176  0.556012718370333  1.0000
  H   H39       1.0  0.20898936376816118  0.5594418589651796  0.2749445529055947  1.0000
  H   H40       1.0  0.7910107759017962  0.4405630738935498  0.7250542433129894  1.0000
  H   H41       1.0  0.11802339265243944  0.10268625367581309  0.9728193202282611  1.0000
  H   H42       1.0  0.8819736026509302  0.8973156889863033  0.02718272190131902  1.0000
  H   H43       1.0  0.6297621469958301  0.029706865722999992  0.45928964055845267  1.0000
  H   H44       1.0  0.3702382110104451  0.9702972101457944  0.540703704489232  1.0000
  C   C1        1.0  0.8184869735720569  0.03142300862296571  0.49196244515151477  1.0000
  C   C2        1.0  0.18151413996459095  0.968585897623761  0.5080303310897705  1.0000
  C   C3        1.0  0.008902894477557882  0.8915062912521702  0.38973983764089587  1.0000
  C   C4        1.0  0.9910967697332964  0.1085006037974097  0.6102565381310541  1.0000
  C   C5        1.0  0.46144590327426727  0.5845368806705622  0.2443879273969216  1.0000
  C   C6        1.0  0.5385549438804347  0.41546514540350193  0.7556125402580136  1.0000
  C   C7        1.0  0.7522327529607935  0.6397613156871741  0.9354265731688544  1.0000
  C   C8        1.0  0.24776926572997832  0.3602359144146233  0.0645740679018729  1.0000
  C   C9        1.0  0.35945740243709423  0.5903315010791913  0.3484716703418016  1.0000
  C   C10       1.0  0.6405422228543641  0.40966759840521405  0.6515300804466478  1.0000
  C   C11       1.0  0.7735794487112884  0.3426764952047278  0.9716389384733546  1.0000
  C   C12       1.0  0.22642186249473173  0.657323641681728  0.028360031161021496  1.0000
  C   C13       1.0  0.8598072559116046  0.6281464279373239  0.8347771410716761  1.0000
  C   C14       1.0  0.14019476962383234  0.3718507583625339  0.1652258510793558  1.0000
  C   C15       1.0  0.2924591558634405  0.6181272603265525  0.541207920723366  1.0000
  C   C16       1.0  0.7075430731117366  0.38186514199949767  0.45879387515189773  1.0000
  C   C17       1.0  0.9990972366451698  0.12217194386267491  0.13158045074816727  1.0000
  C   C18       1.0  0.0008973080870476593  0.8778241894220499  0.8684218065681506  1.0000
  C   C19       1.0  0.059258875042296204  0.6158568036855172  0.6433405691623975  1.0000
  C   C20       1.0  0.9407438488516747  0.3841375342322663  0.35666095965124367  1.0000
  C   C21       1.0  0.8824857918272501  0.20408931124912028  0.10040745703935261  1.0000
  C   C22       1.0  0.11751262877911024  0.7959107740288542  0.8995921056809378  1.0000
  C   C23       1.0  0.16307830436038268  0.6074767029567026  0.5424388929442402  1.0000
  C   C24       1.0  0.8369234296960002  0.3925137637776075  0.45756316999265323  1.0000
  C   C25       1.0  0.33544905297446787  0.9462430909358232  0.997807144847407  1.0000
  C   C26       1.0  0.6645457523693282  0.0537559371350937  0.0021948107241271868  1.0000
  C   C27       1.0  0.828676595729526  0.6833029077605772  0.7367430887456408  1.0000
  C   C28       1.0  0.1713268882579229  0.31669623133384306  0.2632594386484683  1.0000
  C   C29       1.0  0.9908663347358768  0.5657631773847028  0.8365032486449309  1.0000
  C   C30       1.0  0.009134724984789974  0.4342340063129767  0.16349915750797092  1.0000
  C   C31       1.0  0.8871305554573752  0.2637737378446019  0.9957620856333307  1.0000
  C   C32       1.0  0.11286834060808106  0.736224385242515  0.004239897533587125  1.0000
  C   C33       1.0  0.9280990560027007  0.8547659301691437  0.33398307668374366  1.0000
  C   C34       1.0  0.07190443831823501  0.14523716511044424  0.6660136284283737  1.0000
  C   C35       1.0  0.6506041742552072  0.31104000108935276  0.1450489463880942  1.0000
  C   C36       1.0  0.34939281420350454  0.6889619853747035  0.8549507446611814  1.0000
  C   C37       1.0  0.08918263176410325  0.5580054233363185  0.7414902002155089  1.0000
  C   C38       1.0  0.9108210602261974  0.4419889025829988  0.2585126982896996  1.0000
  C   C39       1.0  0.9566929292371853  0.9810306017915023  0.47012224156475213  1.0000
  C   C40       1.0  0.043308169402877204  0.018974377471344894  0.5298747895716573  1.0000
  C   C41       1.0  0.2637838892613758  0.9824972387568491  0.18694904855069439  1.0000
  C   C42       1.0  0.7362152479559612  0.017499881333875995  0.8130553203796894  1.0000
  C   C43       1.0  0.3889342503861428  0.6119385638332204  0.4451774007762381  1.0000
  C   C44       1.0  0.6110677683046363  0.38805866626857716  0.5548232402944961  1.0000
  C   C45       1.0  0.7598272496778052  0.22938950922122098  0.1755427952213324  1.0000
  C   C46       1.0  0.2401726339436722  0.7706124996500205  0.8244578701289029  1.0000
  C   C47       1.0  0.23549856008292377  0.002537933575588598  0.08344126385443222  1.0000
  C   C48       1.0  0.7644969573087366  0.9974581585093816  0.9165639305403275  1.0000
  C   C49       1.0  0.45362249534435517  0.8719673617274849  0.017451369835718787  1.0000
  C   C50       1.0  0.5463730369438906  0.1280326573413646  0.9825495696639166  1.0000
  C   C51       1.0  0.9275660007607555  0.6790797162336231  0.6424485339611438  1.0000
  C   C52       1.0  0.07243698830790629  0.3209174872690568  0.35755426049458805  1.0000
  C   C53       1.0  0.3847576911691277  0.9074360580014157  0.20047069383265637  1.0000
  C   C54       1.0  0.6152414655079069  0.0925649598719005  0.7995309875894777  1.0000
  C   C55       1.0  0.13401585339772026  0.5883057817973452  0.4447662022846899  1.0000
  C   C56       1.0  0.8659842405081692  0.4116913992981494  0.555235617870082  1.0000
  C   C57       1.0  0.23121797710319214  0.5780552058204123  0.3495425254411231  1.0000
  C   C58       1.0  0.7687814138810509  0.42194485285845224  0.6504591906641721  1.0000
  C   C59       1.0  0.11309214032097262  0.079389353699554  0.05914467782217509  1.0000
  C   C60       1.0  0.8869031404819127  0.9206077121805194  0.9408596981959859  1.0000
  C   C61       1.0  0.7908245577343679  0.903734875457523  0.35806507322516273  1.0000
  C   C62       1.0  0.2091767969541678  0.09627302779281172  0.6419300887795955  1.0000
  C   C63       1.0  0.7021719881215347  0.860620643870234  0.3014818001443872  1.0000
  C   C64       1.0  0.29783343098428366  0.1393825004156497  0.6985137258836859  1.0000
  C   C65       1.0  0.7367848620977212  0.9922890646865241  0.43847468555108554  1.0000
  C   C66       1.0  0.2632179224569029  0.007716951978366601  0.5615195644312436  1.0000
  N   N1        1.0  0.6568358671485653  0.3676294976013422  0.04474002254632127  1.0000
  N   N2        1.0  0.34316593897624154  0.6323725748768465  0.9552586800264393  1.0000
  N   N3        1.0  0.47869411252253274  0.8516145402487107  0.11723303970514111  1.0000
  N   N4        1.0  0.5213004539509427  0.14838547621795328  0.8827673137963572  1.0000
  O   O1        1.0  0.7622784972793254  0.8051254670685922  0.21121195121958186  1.0000
  O   O2        1.0  0.2377194673276364  0.19488047818281012  0.7887825035458321  1.0000
  O   O3        1.0  0.5777119566408687  0.5962266111492623  0.24853418251816348  1.0000
  O   O4        1.0  0.4222888664910229  0.4037715463435133  0.751467405258147  1.0000
  O   O5        1.0  0.426841228065726  0.5720262609286664  0.1589550050556312  1.0000
  O   O6        1.0  0.5731591218886294  0.4279738441543158  0.8410449459674824  1.0000
  O   O7        1.0  0.785378140654167  0.658131127348973  0.021855194974037345  1.0000
  O   O8        1.0  0.2146192969592633  0.3418650429435884  0.9781472529498031  1.0000
  O   O9        1.0  0.6365818117563223  0.6354200978514937  0.929624233350971  1.0000
  O   O10       1.0  0.3634190022493513  0.36457811804386603  0.07037421965159749  1.0000
  O   O11       1.0  0.580560218299155  0.8785547481563325  0.3414670755818179  1.0000
  O   O12       1.0  0.41944181072509673  0.12144643813063279  0.6585277432069176  1.0000
