data_image0
_chemical_formula_structural       Zn2H28C34N4Cl4O8
_chemical_formula_sum              "Zn2 H28 C34 N4 Cl4 O8"
_cell_length_a       9.666946911959405
_cell_length_b       10.933100513655804
_cell_length_c       17.1444123012818
_cell_angle_alpha    90.69824383994974
_cell_angle_beta     96.82100316866969
_cell_angle_gamma    94.64861711320161

_space_group_name_H-M_alt    "P 1"
_space_group_IT_number       1

loop_
  _space_group_symop_operation_xyz
  'x, y, z'

loop_
  _atom_site_type_symbol
  _atom_site_label
  _atom_site_symmetry_multiplicity
  _atom_site_fract_x
  _atom_site_fract_y
  _atom_site_fract_z
  _atom_site_occupancy
  Zn  Zn1       1.0  0.3405996788280845  0.4873776607294502  0.49250069456788004  1.0000
  Zn  Zn2       1.0  0.6278457545270442  0.5086899214493458  0.5054343193204429  1.0000
  H   H1        1.0  0.250716914661659  0.5358825073778846  0.09558617281305705  1.0000
  H   H2        1.0  0.6744120017331311  0.2397002704823592  0.8843054023703228  1.0000
  H   H3        1.0  0.793607670700986  0.2542198983435995  0.9720790064775993  1.0000
  H   H4        1.0  0.8427784016043203  0.43220631493564093  0.8872208951624638  1.0000
  H   H5        1.0  0.7765814991686355  0.48273446348327537  0.9734700646872406  1.0000
  H   H6        1.0  0.6528089470985776  0.8513452378845869  0.11288272706457285  1.0000
  H   H7        1.0  0.7496088474532739  0.8243976161641057  0.2050482462284505  1.0000
  H   H8        1.0  0.8380336737143992  0.8509693663718635  0.12081291903497515  1.0000
  H   H9        1.0  0.8223143407677608  0.6265497202203106  0.14767540584725222  1.0000
  H   H10       1.0  0.7233949749850479  0.6543658924510822  0.05786749261378078  1.0000
  H   H11       1.0  0.8542737275805551  0.9834039441457775  0.4305394504421683  1.0000
  H   H12       1.0  0.34630576302078714  0.6435191970441706  0.8873392809362455  1.0000
  H   H13       1.0  0.8193035126933451  0.829012068283312  0.4590174304738637  1.0000
  H   H14       1.0  0.8614695364699899  0.8603142012233675  0.36254313414912065  1.0000
  H   H15       1.0  0.605678282279939  0.8052082076817938  0.36099452090399325  1.0000
  H   H16       1.0  0.6381086781284537  0.9578214044335102  0.3307174997355275  1.0000
  H   H17       1.0  0.4875982619900652  0.0659939582061213  0.7185369504072338  1.0000
  H   H18       1.0  0.5165304132430535  0.2139056628176945  0.6793558455751734  1.0000
  H   H19       1.0  0.3781690690202026  0.1837168217891758  0.7378053361546786  1.0000
  H   H20       1.0  0.281106611918716  0.1830814170483208  0.5960935809237282  1.0000
  H   H21       1.0  0.25518340258210503  0.03420386594365249  0.6341038059076207  1.0000
  H   H22       1.0  0.2586168260671329  0.49379855455654115  0.24009368291822838  1.0000
  H   H23       1.0  0.3227784398159699  0.6208938931841672  0.7400738365543871  1.0000
  H   H24       1.0  0.6223137613444294  0.13271428850020328  0.41519766073735537  1.0000
  H   H25       1.0  0.35680309756736506  0.8642304903068379  0.5840831213907192  1.0000
  H   H26       1.0  0.16930417054727803  0.6341177379028481  0.5704982835752829  1.0000
  H   H27       1.0  0.7984555278938714  0.3680233075031367  0.4220134795619897  1.0000
  H   H28       1.0  0.6182144217889416  0.2925504158162937  0.9731122123473521  1.0000
  C   C1        1.0  0.4921987159365385  0.2625720605360655  0.5090512274978349  1.0000
  C   C2        1.0  0.8820752048935815  0.4260760082599402  0.4555017637648716  1.0000
  C   C3        1.0  0.47517619175009423  0.5001521432601449  0.347850873882109  1.0000
  C   C4        1.0  0.48944514810969514  0.5168553681532726  0.6515189130810624  1.0000
  C   C5        1.0  0.48005830612986233  0.5337989939482455  0.26354960416340123  1.0000
  C   C6        1.0  0.5078375231083426  0.5248239369325347  0.73965279991701  1.0000
  C   C7        1.0  0.6017701541431534  0.5779035738006114  0.23116908769949152  1.0000
  C   C8        1.0  0.6194619784296123  0.4764714927998241  0.7860557621139247  1.0000
  C   C9        1.0  0.6011301149834408  0.6057396143151337  0.15101881798473463  1.0000
  C   C10       1.0  0.6344324428891851  0.4858348180732222  0.8685912819365167  1.0000
  C   C11       1.0  0.4718893565182114  0.5826357564863328  0.10249290130764876  1.0000
  C   C12       1.0  0.4869920835840985  0.7340890494731126  0.4915822701835492  1.0000
  C   C13       1.0  0.5323804372670721  0.5464214741576896  0.90352774091162  1.0000
  C   C14       1.0  0.3483728217247162  0.5475027804415689  0.13486990644558006  1.0000
  C   C15       1.0  0.421667607061174  0.5970864125492523  0.8578018779186107  1.0000
  C   C16       1.0  0.35299833726904234  0.5229843286262508  0.21408142656361648  1.0000
  C   C17       1.0  0.40933683921402764  0.5847149917532447  0.7768500498368166  1.0000
  C   C18       1.0  0.5652622520256827  0.07232308420089589  0.45289373212141  1.0000
  C   C19       1.0  0.4149861161556529  0.9249069385739831  0.5471864708915815  1.0000
  C   C20       1.0  0.7499267027751627  0.4290193281995727  0.9185614344345578  1.0000
  C   C21       1.0  0.7064473955489703  0.29568851508816607  0.9380560289947009  1.0000
  C   C22       1.0  0.7289398169010326  0.6687190470600015  0.12137110965335293  1.0000
  C   C23       1.0  0.5679078613223253  0.9452213825029216  0.44370503522605975  1.0000
  C   C24       1.0  0.7431115743477007  0.807019458755121  0.14141990585760306  1.0000
  C   C25       1.0  0.6495635553904009  0.8971791128818083  0.3815376582236779  1.0000
  C   C26       1.0  0.8055713725219035  0.8924419745186895  0.4101230674485803  1.0000
  C   C27       1.0  0.33552596258679307  0.10412842888286629  0.6188651693957679  1.0000
  C   C28       1.0  0.43500555195371504  0.1442808787832561  0.6929911862431691  1.0000
  C   C29       1.0  0.4120871028421647  0.05155249838199439  0.5560489824323721  1.0000
  C   C30       1.0  0.4910902982658172  0.8709523200960021  0.4930265741085618  1.0000
  C   C31       1.0  0.4898873365071524  0.1255102811833666  0.5072188390917273  1.0000
  C   C32       1.0  0.9446280207079739  0.5858101381565389  0.5452465825014554  1.0000
  C   C33       1.0  0.023157834275544107  0.4146010197183402  0.44868876677070074  1.0000
  C   C34       1.0  0.08561157731246281  0.5744908202296486  0.5382973949515273  1.0000
  N   N1        1.0  0.4528524068007371  0.5905675572542535  0.019490381754898995  1.0000
  N   N2        1.0  0.5488748272004358  0.546671124648384  0.9864413661575991  1.0000
  N   N3        1.0  0.12313733919451411  0.4887933136890652  0.49035658318477704  1.0000
  N   N4        1.0  0.8446887194043596  0.5112612507715114  0.5038626352902751  1.0000
  Cl  Cl1       1.0  0.7392124766111294  0.39710694857005535  0.7420109913021802  1.0000
  Cl  Cl2       1.0  0.7606860688729427  0.6042438152477203  0.29076744194018994  1.0000
  Cl  Cl3       1.0  0.8987105064966272  0.6947310719316419  0.6067671326242486  1.0000
  Cl  Cl4       1.0  0.0693937516041387  0.30573791462845185  0.3871999951941233  1.0000
  O   O1        1.0  0.37482820466074424  0.30805964883454345  0.4940334854196419  1.0000
  O   O2        1.0  0.5966634957690928  0.6848313732824209  0.47702279820987287  1.0000
  O   O3        1.0  0.6110050005478057  0.322851678405776  0.5234527170829323  1.0000
  O   O4        1.0  0.3742247755410517  0.674859296904593  0.5067122611868837  1.0000
  O   O5        1.0  0.35925622751465613  0.5109570897965128  0.3749802254713045  1.0000
  O   O6        1.0  0.5980990886393442  0.5446552684087964  0.6182370775646644  1.0000
  O   O7        1.0  0.5836947663438322  0.4628091809432532  0.3864839336635483  1.0000
  O   O8        1.0  0.3672264896379005  0.4860488119596624  0.6176177867741255  1.0000
