data_image0
_chemical_formula_structural       Cu2H28C32S4N8Cl4
_chemical_formula_sum              "Cu2 H28 C32 S4 N8 Cl4"
_cell_length_a       8.757009613390286
_cell_length_b       9.92769263904143
_cell_length_c       10.264111924129262
_cell_angle_alpha    90.00032356102332
_cell_angle_beta     98.72776296439957
_cell_angle_gamma    89.99988917363903

_space_group_name_H-M_alt    "P 1"
_space_group_IT_number       1

loop_
  _space_group_symop_operation_xyz
  'x, y, z'

loop_
  _atom_site_type_symbol
  _atom_site_label
  _atom_site_symmetry_multiplicity
  _atom_site_fract_x
  _atom_site_fract_y
  _atom_site_fract_z
  _atom_site_occupancy
  Cu  Cu1       1.0  0.5000005097217796  0.5000014055611287  0.49999941635149975  1.0000
  Cu  Cu2       1.0  0.9999993218378193  1.0623788143e-06  0.9999987778697627  1.0000
  H   H1        1.0  0.3834967441643755  0.41139704552364975  0.22905639853505722  1.0000
  H   H2        1.0  0.11650444119977271  0.9113987692673359  0.27094049787361735  1.0000
  H   H3        1.0  0.6165019549682144  0.5886017364688667  0.7709430915515012  1.0000
  H   H4        1.0  0.8834942871975856  0.08860102000006975  0.729056073303269  1.0000
  H   H5        1.0  0.1452422121675099  0.45513905444048647  0.0640659762192541  1.0000
  H   H6        1.0  0.35475544142043713  0.9551403309677722  0.43593165234113923  1.0000
  H   H7        1.0  0.8547564772086389  0.544861742121668  0.9359344868434429  1.0000
  H   H8        1.0  0.6452398113835116  0.0448604655873979  0.5640654184444286  1.0000
  H   H9        1.0  0.9402506825595438  0.6081409216229118  0.13783111105891524  1.0000
  H   H10       1.0  0.5597520743942823  0.10813850060576158  0.3621706122074427  1.0000
  H   H11       1.0  0.05975259866607981  0.3918628967959207  0.8621729020772051  1.0000
  H   H12       1.0  0.4402466344947342  0.8918582668171168  0.637827904902977  1.0000
  H   H13       1.0  0.929009070836713  0.6593281847201168  0.5299435685222702  1.0000
  H   H14       1.0  0.5709928568804443  0.1593293942389522  0.9700567612839776  1.0000
  H   H15       1.0  0.0709919291004439  0.3406685827074227  0.4700572101062406  1.0000
  H   H16       1.0  0.4290069975307063  0.8406703950364612  0.02994288659351697  1.0000
  H   H17       1.0  0.012288089850550004  0.7144600607194674  0.692272184336616  1.0000
  H   H18       1.0  0.4877125362041497  0.21445962704760285  0.8077268643403809  1.0000
  H   H19       1.0  0.9877105897730444  0.2855367067119303  0.3077292516861546  1.0000
  H   H20       1.0  0.5122873279614949  0.78554116950837  0.19227181056900375  1.0000
  H   H21       1.0  0.8353646740440936  0.8254620856197757  0.3749671771231036  1.0000
  H   H22       1.0  0.6646378330382348  0.325463145746866  0.12503278259093517  1.0000
  H   H23       1.0  0.16463633564819702  0.1745346818049214  0.625032628534626  1.0000
  H   H24       1.0  0.3353643124223424  0.6745346289663982  0.8749691267992926  1.0000
  H   H25       1.0  0.182164635481378  0.9354005037219291  0.7000318579157889  1.0000
  H   H26       1.0  0.31783570679040457  0.43539930257368525  0.7999683653512192  1.0000
  H   H27       1.0  0.8178351896656438  0.06459727099519336  0.29997070886869887  1.0000
  H   H28       1.0  0.6821629630767561  0.5645994794273503  0.20003404364769037  1.0000
  C   C1        1.0  0.2880577451563937  0.47198730754045926  0.2534249854458323  1.0000
  C   C2        1.0  0.2119468282207393  0.9719897367407239  0.24657270644725318  1.0000
  C   C3        1.0  0.7119444100560841  0.5280155035869709  0.7465759509869938  1.0000
  C   C4        1.0  0.7880519099291804  0.02801408165744589  0.7534228917695598  1.0000
  C   C5        1.0  0.1567414807671952  0.49680863139656123  0.16271038222664908  1.0000
  C   C6        1.0  0.34325842985771265  0.9968093534307199  0.33728778343796506  1.0000
  C   C7        1.0  0.8432584029080843  0.5031931724371361  0.8372863467438588  1.0000
  C   C8        1.0  0.6567379294497471  0.0031914431381352  0.6627143099897737  1.0000
  C   C9        1.0  0.0440594159931038  0.5784602468414234  0.2043902746067728  1.0000
  C   C10       1.0  0.45594443927761563  0.07846382511392137  0.2956119781773197  1.0000
  C   C11       1.0  0.9559415644311785  0.4215405497253926  0.7956124499740084  1.0000
  C   C12       1.0  0.5440554151328882  0.9215369714448935  0.7043876697028537  1.0000
  C   C13       1.0  0.1840694466765171  0.594686049844469  0.4104914323981247  1.0000
  C   C14       1.0  0.3159367275783325  0.09468765684699318  0.08950830330660857  1.0000
  C   C15       1.0  0.8159315532573999  0.4053157540000709  0.5895093462437655  1.0000
  C   C16       1.0  0.6840665926691472  0.9053141469936886  0.9104918179410217  1.0000
  C   C17       1.0  0.019965330620216503  0.7208157043877533  0.5863179182676034  1.0000
  C   C18       1.0  0.4800375880726548  0.22081791446167634  0.9136824527524181  1.0000
  C   C19       1.0  0.9800356595624466  0.2791800557592197  0.4136838333290099  1.0000
  C   C20       1.0  0.5199622663378491  0.7791828820971389  0.08631719512775499  1.0000
  C   C21       1.0  0.010980428781003606  0.8645589502658875  0.5409191717800679  1.0000
  C   C22       1.0  0.4890200142355141  0.36456040205251117  0.9590797019062192  1.0000
  C   C23       1.0  0.9890182801086669  0.1354368098735961  0.4590793453276801  1.0000
  C   C24       1.0  0.5109798304204958  0.6354393872257373  0.040920918942056496  1.0000
  C   C25       1.0  0.9074093979101008  0.902431729373731  0.42918970191979605  1.0000
  C   C26       1.0  0.5925895347165167  0.4024336022385952  0.07081116659833948  1.0000
  C   C27       1.0  0.0925893012244288  0.09756403076858788  0.5708097881587335  1.0000
  C   C28       1.0  0.40741029042920474  0.5975661870453306  0.9291914001915059  1.0000
  C   C29       1.0  0.1036233548220054  0.9634420736791467  0.611150050666147  1.0000
  C   C30       1.0  0.3963781262201849  0.4634432723476108  0.8888485335321402  1.0000
  C   C31       1.0  0.8963753443118776  0.036554693746573684  0.38884943941505407  1.0000
  C   C32       1.0  0.6036251842734471  0.5365565169291102  0.11115256068092086  1.0000
  S   S1        1.0  0.20558701457621711  0.6407254087931306  0.5761858236841063  1.0000
  S   S2        1.0  0.2944160069877597  0.14072698186576818  0.9238141215478705  1.0000
  S   S3        1.0  0.7944139756038596  0.35927438048744875  0.4238159279232149  1.0000
  S   S4        1.0  0.7055850319660736  0.8592758292508192  0.07618276521356651  1.0000
  N   N1        1.0  0.3035490280869695  0.5230538972093512  0.37586931474272933  1.0000
  N   N2        1.0  0.19645262681335396  0.023054898718015696  0.12412843601649118  1.0000
  N   N3        1.0  0.6964531173710214  0.4769479066375196  0.6241325946582065  1.0000
  N   N4        1.0  0.8035461015833648  0.9769458978327918  0.8758681351630739  1.0000
  N   N5        1.0  0.05601103447502001  0.6257203180979258  0.3277249128214308  1.0000
  N   N6        1.0  0.44399276985078734  0.12572017716945535  0.17227661823208246  1.0000
  N   N7        1.0  0.9439922760173189  0.37428148574559117  0.6722761813969809  1.0000
  N   N8        1.0  0.5560082398389171  0.8742806193888412  0.8277231874363549  1.0000
  Cl  Cl1       1.0  0.5764845194339827  0.7073283072502717  0.4443270524755646  1.0000
  Cl  Cl2       1.0  0.9235158288261546  0.20732752242329153  0.05567196361903373  1.0000
  Cl  Cl3       1.0  0.4235176357785022  0.29267450387715843  0.5556738839572688  1.0000
  Cl  Cl4       1.0  0.07648402558499612  0.792672266852122  0.9443276842584607  1.0000
