data_image0
_chemical_formula_structural       Al2H17C24N2O10F
_chemical_formula_sum              "Al2 H17 C24 N2 O10 F1"
_cell_length_a       6.6403184179234325
_cell_length_b       11.17639790607036
_cell_length_c       15.220180838522472
_cell_angle_alpha    82.96375084441101
_cell_angle_beta     78.22568270174911
_cell_angle_gamma    72.797707985439

_space_group_name_H-M_alt    "P 1"
_space_group_IT_number       1

loop_
  _space_group_symop_operation_xyz
  'x, y, z'

loop_
  _atom_site_type_symbol
  _atom_site_label
  _atom_site_symmetry_multiplicity
  _atom_site_fract_x
  _atom_site_fract_y
  _atom_site_fract_z
  _atom_site_occupancy
  Al  Al1       1.0  0.5050937000340382  0.5029482969585786  0.4923914586676119  1.0000
  Al  Al2       1.0  0.008930714648670379  0.4977666452787163  0.4913060573902897  1.0000
  H   H1        1.0  0.3043266279180301  0.35477936480889116  0.5514284881965354  1.0000
  H   H2        1.0  0.7281204408832167  0.6369241115870636  0.4197270570731817  1.0000
  H   H3        1.0  0.868995532158074  0.4622940134916078  0.9382521250780869  1.0000
  H   H4        1.0  0.2049632169949118  0.445382201362115  0.04353897425578172  1.0000
  H   H5        1.0  0.6447727950629056  0.5616279216476913  0.22744262710772037  1.0000
  H   H6        1.0  0.7366336879366885  0.5835424745616746  0.0604483910314286  1.0000
  H   H7        1.0  0.2967298192578126  0.5950120154070078  0.753899618455286  1.0000
  H   H8        1.0  0.19793125961115982  0.5941892102498014  0.9211034749107015  1.0000
  H   H9        1.0  0.6997107110181985  0.12483976707264334  0.4169636253685028  1.0000
  H   H10       1.0  0.1956344810764747  0.0939564995365174  0.6604982282352836  1.0000
  H   H11       1.0  0.38679313901367607  0.1075282309360759  0.5611182591548599  1.0000
  H   H12       1.0  0.5044315696409924  0.8727377883750762  0.5548829478043517  1.0000
  H   H13       1.0  0.31314270410997835  0.8591812922743145  0.6537310187842635  1.0000
  H   H14       1.0  0.056814496619232095  0.478679332321164  0.6984504841488502  1.0000
  H   H15       1.0  0.12478402681119147  0.446053912107068  0.8053014632998414  1.0000
  H   H16       1.0  0.024237612595854257  0.4205808602448472  0.2834848077777751  1.0000
  H   H17       1.0  0.9749648214106157  0.40741236352194227  0.17710531492039658  1.0000
  C   C1        1.0  0.8587339338186198  0.2734999487185235  0.49764470780443304  1.0000
  C   C2        1.0  0.6799079811528586  0.5226842216218657  0.6531041023328399  1.0000
  C   C3        1.0  0.1501436816999941  0.7258821237702122  0.4858024386140514  1.0000
  C   C4        1.0  0.33183715729096974  0.4865048187196663  0.32966583905672314  1.0000
  C   C5        1.0  0.6345608486251565  0.5300147842564584  0.7514493445876838  1.0000
  C   C6        1.0  0.37716786625179577  0.49096069240089685  0.23066772946434363  1.0000
  C   C7        1.0  0.8019593509402155  0.49640027732690584  0.8033312413922076  1.0000
  C   C8        1.0  0.7420273905828267  0.49365931802356044  0.8980341995118195  1.0000
  C   C9        1.0  0.24674430016386148  0.45885381420529087  0.17843741968134452  1.0000
  C   C10       1.0  0.3017214910565897  0.47216170788782114  0.0836063917848477  1.0000
  C   C11       1.0  0.5526561987804043  0.534155449212534  0.18576468074057567  1.0000
  C   C12       1.0  0.6044404306070206  0.5455259934981386  0.09297986094262711  1.0000
  C   C13       1.0  0.42024610857305317  0.5649007753591064  0.7957268443819104  1.0000
  C   C14       1.0  0.3651503438845154  0.5630259275102533  0.8885780028116701  1.0000
  C   C15       1.0  0.528926591384888  0.5240636844504962  0.9411320613348765  1.0000
  C   C16       1.0  0.4769604480500218  0.5139787621991871  0.0404207751752423  1.0000
  C   C17       1.0  0.9321920816796094  0.13462567122995484  0.4956745964776985  1.0000
  C   C18       1.0  0.07407979707757303  0.8646223083085616  0.48739110796429236  1.0000
  C   C19       1.0  0.10237252463119971  0.060083617097532696  0.5357441490765495  1.0000
  C   C20       1.0  0.9024315299498014  0.9420480043476189  0.4471012524840605  1.0000
  C   C21       1.0  0.16894053239046505  0.9299408094128625  0.531790236798038  1.0000
  C   C22       1.0  0.8318507492566951  0.07182228008056059  0.450717261725714  1.0000
  C   C23       1.0  0.2645199337895292  0.060053766630574004  0.5930300934643783  1.0000
  C   C24       1.0  0.3392970522017292  0.9124084789783637  0.5888204263331716  1.0000
  N   N1        1.0  0.013520508562145012  0.4603004739659866  0.7656597317226215  1.0000
  N   N2        1.0  0.07760100446687798  0.41324432822543145  0.216239872063106  1.0000
  O   O1        1.0  0.6676703379876514  0.32860801099394615  0.48606171204245646  1.0000
  O   O2        1.0  0.8646451377003715  0.5306099909122749  0.611363673648576  1.0000
  O   O3        1.0  0.022171229695182097  0.6677854073147953  0.4723911175641007  1.0000
  O   O4        1.0  0.4669366416492338  0.5087266415373364  0.36985573003146044  1.0000
  O   O5        1.0  0.3407993359771168  0.6749823068924671  0.49960816405970127  1.0000
  O   O6        1.0  0.1562892907738203  0.4632155703577184  0.37095738586067745  1.0000
  O   O7        1.0  0.9939367449826905  0.32704034191338854  0.5107485017029205  1.0000
  O   O8        1.0  0.5363453278508671  0.5053850919628076  0.6154509313996358  1.0000
  O   O9        1.0  0.26443319420835115  0.44471561337177684  0.5366674631320123  1.0000
  O   O10       1.0  0.7526887906597608  0.5520916691696767  0.44735311317050025  1.0000
  F   F1        1.0  0.7997731841273179  0.8898564609143378  0.3998916820178949  1.0000
