data_image0
_chemical_formula_structural       Zn2H16C24O10
_chemical_formula_sum              "Zn2 H16 C24 O10"
_cell_length_a       6.178224895136427
_cell_length_b       7.423047229248693
_cell_length_c       11.788203091002204
_cell_angle_alpha    90.89250486364806
_cell_angle_beta     104.47770202721009
_cell_angle_gamma    91.21744831575548

_space_group_name_H-M_alt    "P 1"
_space_group_IT_number       1

loop_
  _space_group_symop_operation_xyz
  'x, y, z'

loop_
  _atom_site_type_symbol
  _atom_site_label
  _atom_site_symmetry_multiplicity
  _atom_site_fract_x
  _atom_site_fract_y
  _atom_site_fract_z
  _atom_site_occupancy
  Zn  Zn1       1.0  0.6887735886572486  0.7510971276604083  0.9986150287202803  1.0000
  Zn  Zn2       1.0  0.3112366783684948  0.2489048575889825  0.0013788935839401048  1.0000
  H   H1        1.0  0.08204397356318081  0.6525732983489404  0.9638914310497809  1.0000
  H   H2        1.0  0.11791487420767059  0.8508937780442238  0.019794389419217896  1.0000
  H   H3        1.0  0.917966658576468  0.34741209972604986  0.0361370869895552  1.0000
  H   H4        1.0  0.8820714453733771  0.14910915293620516  0.9802174547982574  1.0000
  H   H5        1.0  0.22427665155281318  0.14240440562237214  0.632461393110404  1.0000
  H   H6        1.0  0.5906344520674054  0.35638257879671886  0.3682887049155569  1.0000
  H   H7        1.0  0.7757197464474501  0.8576233635690826  0.3675089303307218  1.0000
  H   H8        1.0  0.4093872421555887  0.6436073485952106  0.6317066190127818  1.0000
  H   H9        1.0  0.8643689418330779  0.9140021529929142  0.7833282861597722  1.0000
  H   H10       1.0  0.09181671224646948  0.5934090725803215  0.21637084064976617  1.0000
  H   H11       1.0  0.1356208124426317  0.08598483337801349  0.21666683340581733  1.0000
  H   H12       1.0  0.908184507510704  0.4065685409568474  0.7836265729704124  1.0000
  H   H13       1.0  0.08200842330425928  0.15065059469294076  0.41490570098856233  1.0000
  H   H14       1.0  0.6592464174443221  0.3454625515632017  0.586022528844417  1.0000
  H   H15       1.0  0.9180248156074241  0.8493840959048596  0.5850731956823694  1.0000
  H   H16       1.0  0.3407098479031987  0.6545388792243827  0.4139826045423405  1.0000
  C   C1        1.0  0.5138921962885021  0.074738605271051  0.8386290629577714  1.0000
  C   C2        1.0  0.6806716770657742  0.4308011039913567  0.1616558950942988  1.0000
  C   C3        1.0  0.4861087051648738  0.9252836275064454  0.1613562244836331  1.0000
  C   C4        1.0  0.31929275613479996  0.5691949559149589  0.8383528322236913  1.0000
  C   C5        1.0  0.54076099737226  0.0339563375041863  0.718621793445287  1.0000
  C   C6        1.0  0.8257730611351307  0.47064634871865957  0.281327650550601  1.0000
  C   C7        1.0  0.459266143276487  0.9661012542119563  0.28135404760753596  1.0000
  C   C8        1.0  0.17416219738760222  0.5293819552072421  0.7186707320829909  1.0000
  C   C9        1.0  0.37489640747185854  0.07841177021196437  0.6208443496767089  1.0000
  C   C10       1.0  0.7543918106838489  0.42225876791783884  0.3795268345400515  1.0000
  C   C11       1.0  0.6251105619254603  0.9215942169899235  0.37915087250414814  1.0000
  C   C12       1.0  0.2455836851607529  0.5777578277812196  0.620462504240983  1.0000
  C   C13       1.0  0.39974996341186386  0.04183951522818319  0.5066097230421036  1.0000
  C   C14       1.0  0.8917753326441797  0.4574622229189487  0.4935708880802423  1.0000
  C   C15       1.0  0.6002667690688313  0.9581557412449084  0.4933875388683617  1.0000
  C   C16       1.0  0.10826904076304086  0.5425168480103222  0.5064452228346212  1.0000
  C   C17       1.0  0.7378118778252228  0.9499730563892896  0.7053169966561653  1.0000
  C   C18       1.0  0.0391480701968732  0.555728818281338  0.29446721874619897  1.0000
  C   C19       1.0  0.26221438396869706  0.050070799209159085  0.2946797352178834  1.0000
  C   C20       1.0  0.9608386219026243  0.4442508596153231  0.7055731871841644  1.0000
  C   C21       1.0  0.2334486475103859  0.08650765778944697  0.4046578065483785  1.0000
  C   C22       1.0  0.8231473471978816  0.4101662113959533  0.5958992950365243  1.0000
  C   C23       1.0  0.7665991405961776  0.9135122273938167  0.5953288214277919  1.0000
  C   C24       1.0  0.17686590994549078  0.5898015419086063  0.40414120805532144  1.0000
  O   O1        1.0  0.6637500583563992  0.0254281801730585  0.9278096079144903  1.0000
  O   O2        1.0  0.744411941144712  0.48426192346049385  0.07192253252724608  1.0000
  O   O3        1.0  0.3362661004218026  0.9745428074203417  0.0721880731129048  1.0000
  O   O4        1.0  0.25554637410233033  0.515657577487481  0.928060491093852  1.0000
  O   O5        1.0  0.3415716144692027  0.16114898052663312  0.8469411082391147  1.0000
  O   O6        1.0  0.5002869240417879  0.3392217580083852  0.1538237641650113  1.0000
  O   O7        1.0  0.6584351329077265  0.8388422338615908  0.15304962812370349  1.0000
  O   O8        1.0  0.4996898695656852  0.6608013479336706  0.8461853608834886  1.0000
  O   O9        1.0  0.9997426768345791  0.7601928142355092  0.9804728156176735  1.0000
  O   O10       1.0  0.0002564357491295001  0.239784592135635  0.0195404242264701  1.0000
