data_image0
_chemical_formula_structural       Zn4H56C40N8O24
_chemical_formula_sum              "Zn4 H56 C40 N8 O24"
_cell_length_a       9.30286009
_cell_length_b       9.302855615
_cell_length_c       14.7797
_cell_angle_alpha    90.0
_cell_angle_beta     90.0
_cell_angle_gamma    90.0

_space_group_name_H-M_alt    "P 1"
_space_group_IT_number       1

loop_
  _space_group_symop_operation_xyz
  'x, y, z'

loop_
  _atom_site_type_symbol
  _atom_site_label
  _atom_site_symmetry_multiplicity
  _atom_site_fract_x
  _atom_site_fract_y
  _atom_site_fract_z
  _atom_site_occupancy
  Zn  Zn1       1.0  0.6045065652492242  0.0754832740677784  0.006640865511478502  1.0000
  Zn  Zn2       1.0  0.3954945000145642  0.9245161223541133  0.5066408655114785  1.0000
  Zn  Zn3       1.0  0.9245167525678681  0.6045068560380997  0.7566412038133379  1.0000
  Zn  Zn4       1.0  0.07548216281945491  0.3954936153225432  0.2566418804170567  1.0000
  H   H1        1.0  0.6082752986990272  0.7751060855307088  0.0739933828156154  1.0000
  H   H2        1.0  0.3917257665647612  0.22489116101368012  0.5739927062118966  1.0000
  H   H3        1.0  0.2248932027096657  0.6082745163620373  0.8239937211174819  1.0000
  H   H4        1.0  0.7751121623070676  0.3917216552436003  0.3239957509286384  1.0000
  H   H5        1.0  0.5733204571928567  0.8841790457047766  0.1550410360156178  1.0000
  H   H6        1.0  0.4266816830091642  0.11581927577836379  0.6550410360156178  1.0000
  H   H7        1.0  0.11582029500348771  0.5733196580413633  0.905042050921196  1.0000
  H   H8        1.0  0.8841829201367659  0.426681888258031  0.4050434041286338  1.0000
  H   H9        1.0  0.5439542195673257  0.2726313408444767  0.1247427214354815  1.0000
  H   H10       1.0  0.4560468456964628  0.7273680555774149  0.6247427214354816  1.0000
  H   H11       1.0  0.7273687806262572  0.5439534062896456  0.8747430597373409  1.0000
  H   H12       1.0  0.2726322846375311  0.45604706507099724  0.3747417065299032  1.0000
  H   H13       1.0  0.5678146235562735  0.1244725327277934  0.1830842303970996  1.0000
  H   H14       1.0  0.43218644170752196  0.8755268636940983  0.6830849070008187  1.0000
  H   H15       1.0  0.875527517473394  0.5678138217562747  0.9330852453026779  1.0000
  H   H16       1.0  0.1244756976668668  0.4321844997268585  0.433085245302678  1.0000
  H   H17       1.0  0.3607686203523245  0.2116145924941364  0.025857087762268808  1.0000
  H   H18       1.0  0.6392302950349986  0.7883848039277552  0.5258550579511052  1.0000
  H   H19       1.0  0.7883865745636527  0.3607698688334438  0.7758560728566908  1.0000
  H   H20       1.0  0.21161341576190307  0.6392295275884479  0.2758560728566906  1.0000
  H   H21       1.0  0.2528996434686803  0.1188011558749764  0.8708830355149291  1.0000
  H   H22       1.0  0.7470992719186429  0.8811993154856665  0.3708816823074912  1.0000
  H   H23       1.0  0.881198891598082  0.2528986901835282  0.6208826972130694  1.0000
  H   H24       1.0  0.1187989488510084  0.7470985563608608  0.1208826972130694  1.0000
  H   H25       1.0  0.3711621981407234  0.3140175577152604  0.7956555275140929  1.0000
  H   H26       1.0  0.6288388671230649  0.6859818387066312  0.2956548509103669  1.0000
  H   H27       1.0  0.6859836586019199  0.3711613017440101  0.5456545126085076  1.0000
  H   H28       1.0  0.3140174066618684  0.6288370197391302  0.0456565424196711  1.0000
  H   H29       1.0  0.3315066517355305  0.369956295403604  0.9061706259261018  1.0000
  H   H30       1.0  0.66849118871356  0.6300463258345417  0.4061699493223827  1.0000
  H   H31       1.0  0.630046022760297  0.3315068112018622  0.6561702876242421  1.0000
  H   H32       1.0  0.3699518176887935  0.6684925852200294  0.15617164083167984  1.0000
  H   H33       1.0  0.3051319672163332  0.9917040940767096  0.0983105205112409  1.0000
  H   H34       1.0  0.6948690980474623  0.0082953023451822  0.598310520511241  1.0000
  H   H35       1.0  0.0082952983548523  0.3051331889342634  0.8483115354168191  1.0000
  H   H36       1.0  0.9917036170324707  0.6948662074876211  0.3483115354168191  1.0000
  H   H37       1.0  0.3191577612987615  0.9010297855729945  0.9941987997050035  1.0000
  H   H38       1.0  0.6808433039650269  0.0989696108488971  0.4941987997050035  1.0000
  H   H39       1.0  0.0989706381792956  0.3191579148248422  0.7441998146105817  1.0000
  H   H40       1.0  0.90102935214626  0.6808425565358007  0.24419913800686296  1.0000
  H   H41       1.0  0.8207099672720091  0.831298508764398  0.9657435536580579  1.0000
  H   H42       1.0  0.1792921729300119  0.1687030375349963  0.4657435536580579  1.0000
  H   H43       1.0  0.16870188144471854  0.820709287123556  0.7157445685636361  1.0000
  H   H44       1.0  0.8312991838190698  0.179291184237087  0.21574321535619845  1.0000
  H   H45       1.0  0.0840730691887686  0.8012754694355237  0.9715765543278965  1.0000
  H   H46       1.0  0.9159269211367871  0.1987239269863679  0.4715765543278962  1.0000
  H   H47       1.0  0.1987238313932309  0.0840731096308645  0.7215775692334746  1.0000
  H   H48       1.0  0.8012761589323247  0.9159273617297786  0.2215762160260368  1.0000
  H   H49       1.0  0.1159955099357006  0.2495137080551189  0.0473866181316254  1.0000
  H   H50       1.0  0.8840044803898551  0.7504856883667728  0.5473859415279066  1.0000
  H   H51       1.0  0.7504853273569979  0.1159966406723569  0.7973876330372038  1.0000
  H   H52       1.0  0.24951251309209252  0.8840049056270374  0.2973896628483672  1.0000
  H   H53       1.0  0.8516112166962628  0.2627913515134139  0.0367984465178566  1.0000
  H   H54       1.0  0.1483898485675255  0.7372080449084777  0.5367984465178566  1.0000
  H   H55       1.0  0.7372076902857075  0.8516116263511435  0.7867994614234419  1.0000
  H   H56       1.0  0.2627912251016156  0.1483888450094994  0.2868008146308796  1.0000
  C   C1        1.0  0.4605271882574371  0.0326910373100517  0.8408262684628269  1.0000
  C   C2        1.0  0.5394738770063583  0.967311583928094  0.3408282982739834  1.0000
  C   C3        1.0  0.9673132684939674  0.4605252599096659  0.5908259301609604  1.0000
  C   C4        1.0  0.0326877967698209  0.539471986634716  0.090827959972124  1.0000
  C   C5        1.0  0.3640891045583814  0.1407331312214524  0.8926730583164757  1.0000
  C   C6        1.0  0.6359098108289417  0.8592684150779419  0.3926717051090378  1.0000
  C   C7        1.0  0.8592690766781175  0.364089279698014  0.6426727200146161  1.0000
  C   C8        1.0  0.1407309136474382  0.6359090417851263  0.1426727200146161  1.0000
  C   C9        1.0  0.3992815074143508  0.295725324981305  0.866880924511321  1.0000
  C   C10       1.0  0.6007195578494375  0.7042772962568407  0.3668802479076022  1.0000
  C   C11       1.0  0.7042758825366776  0.3992816994827635  0.6168805862094615  1.0000
  C   C12       1.0  0.29572195791240574  0.6007187718778724  0.1168819394169063  1.0000
  C   C13       1.0  0.5554281102812979  0.3421691286778099  0.8794041827641979  1.0000
  C   C14       1.0  0.44457188004425774  0.6578302677440817  0.3794041827641976  1.0000
  C   C15       1.0  0.6578299513047912  0.555428377461709  0.629404521066057  1.0000
  C   C16       1.0  0.3421678891442923  0.4445720938989339  0.1294051976697759  1.0000
  C   C17       1.0  0.2843028890483907  0.002377764518279  0.025294153467257306  1.0000
  C   C18       1.0  0.7156981762153976  0.9976227068423641  0.5252934768635384  1.0000
  C   C19       1.0  0.9976233018892984  0.2843030258080574  0.7752944917691167  1.0000
  C   C20       1.0  0.0023766884362573  0.7156963706138342  0.2752944917691167  1.0000
  C   C21       1.0  0.8894608668676655  0.9214299731986131  0.9846377125381451  1.0000
  C   C22       1.0  0.1105401983961229  0.0785694232232785  0.4846404189530206  1.0000
  C   C23       1.0  0.0785683104904109  0.8894602197908057  0.73464075725488  1.0000
  C   C24       1.0  0.921430604896905  0.1105391766310859  0.2346380508400046  1.0000
  C   C25       1.0  0.038006591153624904  0.9059960026048445  0.9871715934694196  1.0000
  C   C26       1.0  0.9619955490484031  0.0940033938170473  0.4871722700731382  1.0000
  C   C27       1.0  0.09400334859814313  0.0380055344973798  0.7371732849787238  1.0000
  C   C28       1.0  0.90599556678918  0.9619938619245119  0.2371719317712788  1.0000
  C   C29       1.0  0.12450472099919811  0.0227908514089066  0.0114833183352872  1.0000
  C   C30       1.0  0.8754963442645974  0.977208545012985  0.5114819651278424  1.0000
  C   C31       1.0  0.9772080749416078  0.12450478089033369  0.7614829800334277  1.0000
  C   C32       1.0  0.0227897655074827  0.8754956904703094  0.2614836566371466  1.0000
  C   C33       1.0  0.0560558790474062  0.1541343926361662  0.027384182358233006  1.0000
  C   C34       1.0  0.9439430363399168  0.8458650037857254  0.5273828291507954  1.0000
  C   C35       1.0  0.8458645968951687  0.05605698095100561  0.7773858738675372  1.0000
  C   C36       1.0  0.1541332435539218  0.9439424154708859  0.2773845206600924  1.0000
  C   C37       1.0  0.9070511561353598  0.1622802784948973  0.022685169523065  1.0000
  C   C38       1.0  0.0929499091284285  0.8377191179269943  0.522684492919339  1.0000
  C   C39       1.0  0.8377187149548961  0.9070505175200411  0.7726855078249244  1.0000
  C   C40       1.0  0.1622791254941873  0.0929499538405949  0.2726875376360809  1.0000
  N   N1        1.0  0.3772377490415408  0.11779608814234169  0.9909071226073609  1.0000
  N   N2        1.0  0.622762241284015  0.8822043832183012  0.4909064460036419  1.0000
  N   N3        1.0  0.8822050337854748  0.377239005444892  0.7409067843055013  1.0000
  N   N4        1.0  0.11779388160184821  0.622761465915751  0.24090678430550136  1.0000
  N   N5        1.0  0.8246549905922508  0.0472080851488101  0.0032260465368026004  1.0000
  N   N6        1.0  0.1753471496097703  0.9527913112730815  0.5032267231405214  1.0000
  N   N7        1.0  0.9527908529472455  0.8246543123414938  0.7532270614423808  1.0000
  N   N8        1.0  0.0472080624400775  0.1753450840803978  0.253226384838662  1.0000
  O   O1        1.0  0.5478992428875744  0.9562612135628612  0.8855944301981751  1.0000
  O   O2        1.0  0.4520975226232835  0.0437435575527871  0.38559646000933884  1.0000
  O   O3        1.0  0.0437413866341387  0.5478995064463348  0.6355947685000345  1.0000
  O   O4        1.0  0.956255378876712  0.4520966651593028  0.1355961217074793  1.0000
  O   O5        1.0  0.4444117142473303  0.027703321503182103  0.7553712186309627  1.0000
  O   O6        1.0  0.5555872011399856  0.9723035994899689  0.2553725718384001  1.0000
  O   O7        1.0  0.9722988320251105  0.4444087032087083  0.505370880329103  1.0000
  O   O8        1.0  0.0276968585475075  0.555586393458178  0.005371556932821902  1.0000
  O   O9        1.0  0.6425411047969476  0.2627816770646518  0.9234984471944614  1.0000
  O   O10       1.0  0.3574578105903754  0.7372177193572398  0.4234984471944614  1.0000
  O   O11       1.0  0.7372184396680552  0.6425414138817658  0.673498785496321  1.0000
  O   O12       1.0  0.2627815506575004  0.3574579825401258  0.1734987854963208  1.0000
  O   O13       1.0  0.5898239839055748  0.45944602140318125  0.8415610601027055  1.0000
  O   O14       1.0  0.4101749314817411  0.5405565998349644  0.34155767708411133  1.0000
  O   O15       1.0  0.540556339808397  0.589824267631613  0.5915593685934084  1.0000
  O   O16       1.0  0.45944472545539844  0.41017620372903  0.09156139840456493  1.0000
  O   O17       1.0  0.5694560542401987  0.8692588958342142  0.0883732416760807  1.0000
  O   O18       1.0  0.430550385714767  0.1307415755264287  0.5883732416760807  1.0000
  O   O19       1.0  0.130740437696943  0.5694563281685419  0.8383735799779404  1.0000
  O   O20       1.0  0.8692606275668525  0.4305495178858579  0.3383756097891037  1.0000
  O   O21       1.0  0.6068123077620129  0.1836006136917803  0.1329235370136033  1.0000
  O   O22       1.0  0.3931876825635428  0.8163987827301113  0.6329242136173292  1.0000
  O   O23       1.0  0.8163983900138378  0.6068125996600244  0.8829238753154698  1.0000
  O   O24       1.0  0.18360375018818334  0.3931867967618672  0.382923198711744  1.0000
