data_image0
_chemical_formula_structural       Cd4H44C28S8N12O8
_chemical_formula_sum              "Cd4 H44 C28 S8 N12 O8"
_cell_length_a       10.54352900547623
_cell_length_b       10.37868349521598
_cell_length_c       13.349063688016146
_cell_angle_alpha    90.00018111909958
_cell_angle_beta     89.99986383990061
_cell_angle_gamma    119.90604887176538

_space_group_name_H-M_alt    "P 1"
_space_group_IT_number       1

loop_
  _space_group_symop_operation_xyz
  'x, y, z'

loop_
  _atom_site_type_symbol
  _atom_site_label
  _atom_site_symmetry_multiplicity
  _atom_site_fract_x
  _atom_site_fract_y
  _atom_site_fract_z
  _atom_site_occupancy
  Cd  Cd1       1.0  0.2917816365004313  0.08994728591583369  0.9397354009143516  1.0000
  Cd  Cd2       1.0  0.7082331837516592  0.41004592420035385  0.4397482788467217  1.0000
  Cd  Cd3       1.0  0.7082253626615936  0.9100580438442876  0.06025939100504022  1.0000
  Cd  Cd4       1.0  0.2917958265135637  0.5899482410927134  0.5602674882903431  1.0000
  H   H1        1.0  0.5001538941981706  0.5042947547110685  0.7129700162771899  1.0000
  H   H2        1.0  0.4998511725414829  0.9957220568984654  0.21297828400217617  1.0000
  H   H3        1.0  0.49984526973465626  0.49571392660326535  0.287020280957016  1.0000
  H   H4        1.0  0.5001396788806218  0.0042755143638331  0.7870232499689539  1.0000
  H   H5        1.0  0.509491127151108  0.6885936415111189  0.7998519953269682  1.0000
  H   H6        1.0  0.4905102527141665  0.8114123277714426  0.2998455696252266  1.0000
  H   H7        1.0  0.49050570259156956  0.3114083690105218  0.20014579306298697  1.0000
  H   H8        1.0  0.5094886185744513  0.1885919040837862  0.7001522187655953  1.0000
  H   H9        1.0  0.650480703095873  0.7100410887840737  0.8721116337273289  1.0000
  H   H10       1.0  0.3495265232523579  0.7899617621172724  0.3721076778401839  1.0000
  H   H11       1.0  0.34951499440216344  0.2899509112770816  0.1278854055345278  1.0000
  H   H12       1.0  0.6504778873915029  0.21004023480627146  0.6278961034719546  1.0000
  H   H13       1.0  0.4808406841206292  0.5822180125701308  0.9054308258968934  1.0000
  H   H14       1.0  0.5191610677533234  0.9177816165318048  0.40542611815235574  1.0000
  H   H15       1.0  0.5191519162114488  0.41777733054642147  0.09456546425614933  1.0000
  H   H16       1.0  0.4808400994097397  0.08222149869972378  0.5945694228861174  1.0000
  H   H17       1.0  0.697707440593348  0.44908061033410734  0.7230251365816972  1.0000
  H   H18       1.0  0.30228506374706404  0.05091417621419941  0.22302439866479776  1.0000
  H   H19       1.0  0.3022801290322619  0.5509102918197755  0.27697340091917516  1.0000
  H   H20       1.0  0.6977101250968829  0.9490844997544201  0.7769726406062321  1.0000
  H   H21       1.0  0.739429253728808  0.6675626882355985  0.6286479733804529  1.0000
  H   H22       1.0  0.2605568549514317  0.8324305269701283  0.12864505243324945  1.0000
  H   H23       1.0  0.2605626533162138  0.33242931863055253  0.37134981500136643  1.0000
  H   H24       1.0  0.7394291120858156  0.1675648280602502  0.8713557324236166  1.0000
  H   H25       1.0  0.9057752034618574  0.7067122986116348  0.6881598992036616  1.0000
  H   H26       1.0  0.09421640586309368  0.7932866583260818  0.18816319771948292  1.0000
  H   H27       1.0  0.0942135681015017  0.29327526389351993  0.3118423838727367  1.0000
  H   H28       1.0  0.9057698538110871  0.20671314618125794  0.8118413327239228  1.0000
  H   H29       1.0  0.801388020241326  0.7822704488136196  0.7365275375257527  1.0000
  H   H30       1.0  0.19860552972305345  0.7177230958218955  0.23652294268504906  1.0000
  H   H31       1.0  0.198607276608044  0.2177226644705286  0.26347249820278773  1.0000
  H   H32       1.0  0.8013868162790702  0.28227558525554036  0.7634778421698416  1.0000
  H   H33       1.0  0.8995390974611368  0.5700432230499501  0.8482615934537778  1.0000
  H   H34       1.0  0.10045336027754086  0.9299506785880282  0.348259990779269  1.0000
  H   H35       1.0  0.10044438907210211  0.4299432364379285  0.1517376931615644  1.0000
  H   H36       1.0  0.8995490088223121  0.0700490969971455  0.6517407940671589  1.0000
  H   H37       1.0  0.7308288829580363  0.4452333896966678  0.9063540616909552  1.0000
  H   H38       1.0  0.2691667739175472  0.05476308622098709  0.40635190088143264  1.0000
  H   H39       1.0  0.26915894099413146  0.5547541745046729  0.09364522492154494  1.0000
  H   H40       1.0  0.7308368354357669  0.9452411371318592  0.5936473857371285  1.0000
  H   H41       1.0  0.8020478539492968  0.6403680656710546  0.9146889117735031  1.0000
  H   H42       1.0  0.19794980284785174  0.8596271502096614  0.414688432339439  1.0000
  H   H43       1.0  0.19794700394152187  0.3596183734053824  0.08531037483059832  1.0000
  H   H44       1.0  0.8020535138656157  0.1403726236733718  0.5853116033898405  1.0000
  C   C1        1.0  0.942118052920627  0.9690947967003826  0.8780139690301073  1.0000
  C   C2        1.0  0.05790520550857535  0.530921394187331  0.3780226507552059  1.0000
  C   C3        1.0  0.05788963952262801  0.0309138693244293  0.12198831405503094  1.0000
  C   C4        1.0  0.9421441505219974  0.4691083345533258  0.6219916181755496  1.0000
  C   C5        1.0  0.38473878786408716  0.8315336333832946  0.9458265869634633  1.0000
  C   C6        1.0  0.6152598842489849  0.6684561171323508  0.44583377709186334  1.0000
  C   C7        1.0  0.6152514468965506  0.1684761764757141  0.054174947024172616  1.0000
  C   C8        1.0  0.384754511180283  0.3315391868741884  0.5541700042017298  1.0000
  C   C9        1.0  0.4594642562703299  0.36381486046992245  0.8396828809617748  1.0000
  C   C10       1.0  0.540542495918082  0.1361902836724909  0.3396788979585424  1.0000
  C   C11       1.0  0.5405325734771935  0.6361871500398024  0.16030741626607894  1.0000
  C   C12       1.0  0.4594494877598052  0.8638172980229086  0.6603061554678508  1.0000
  C   C13       1.0  0.553101401219557  0.5113420735585948  0.7852799136192987  1.0000
  C   C14       1.0  0.44689780963272346  0.9886594033354755  0.2852845219135674  1.0000
  C   C15       1.0  0.4468939339479475  0.4886588271359997  0.21471113272479417  1.0000
  C   C16       1.0  0.5530981805022535  0.011337046202641  0.7147162629348289  1.0000
  C   C17       1.0  0.7103610119311554  0.5443446252060867  0.7669182139065359  1.0000
  C   C18       1.0  0.28963399327772527  0.955650125888788  0.2669170538344404  1.0000
  C   C19       1.0  0.289631842725548  0.45564737996268434  0.233081821822971  1.0000
  C   C20       1.0  0.7103611955647651  0.0443485500834058  0.7330822327852221  1.0000
  C   C21       1.0  0.793435902305454  0.6828316999783511  0.7015182192789668  1.0000
  C   C22       1.0  0.2065543031614752  0.8171606269237657  0.2015168634611371  1.0000
  C   C23       1.0  0.20655396319265404  0.31715808555659203  0.2984810673344002  1.0000
  C   C24       1.0  0.7934316638762623  0.1828347281054192  0.798483172279518  1.0000
  C   C25       1.0  0.7893208464198267  0.5504285936408307  0.8647909258939637  1.0000
  C   C26       1.0  0.21067118927834358  0.9495664737781766  0.3647906549306441  1.0000
  C   C27       1.0  0.21066752449874568  0.4495600820777881  0.13520836071943887  1.0000
  C   C28       1.0  0.7893288839475474  0.0504344184295178  0.6352116281519218  1.0000
  S   S1        1.0  0.08573242262166049  0.058639633831646186  0.8081053577672608  1.0000
  S   S2        1.0  0.9142983917102467  0.44137760428430534  0.30810967020414654  1.0000
  S   S3        1.0  0.9142792379751015  0.9413501125897028  0.19189917263803127  1.0000
  S   S4        1.0  0.0857516192955572  0.5586476732808094  0.6919023513715462  1.0000
  S   S5        1.0  0.23271621455791094  0.8168366571250091  0.9034859205330366  1.0000
  S   S6        1.0  0.7672770043852066  0.6831340561381722  0.40348161212359923  1.0000
  S   S7        1.0  0.767267310277461  0.18315758981262326  0.09652909753279462  1.0000
  S   S8        1.0  0.23273031879698175  0.31685458555899965  0.5965161762386375  1.0000
  N   N1        1.0  0.831663240054155  0.9006296921177748  0.924133328574307  1.0000
  N   N2        1.0  0.16835536693717046  0.5993888786684208  0.4241457157646737  1.0000
  N   N3        1.0  0.16832356659418926  0.0993712238877791  0.07585921601063463  1.0000
  N   N4        1.0  0.831685645208168  0.40065087753867346  0.5758670549549053  1.0000
  N   N5        1.0  0.4951518013210432  0.8399740428125924  0.9735512799402246  1.0000
  N   N6        1.0  0.5048594151368421  0.6600413607608715  0.4735586660168566  1.0000
  N   N7        1.0  0.5048436104662316  0.1600424327433956  0.026447257586120508  1.0000
  N   N8        1.0  0.4951521757638914  0.33996173577684624  0.5264473626382584  1.0000
  N   N9        1.0  0.5487170712748153  0.6322386365441659  0.8443591248502148  1.0000
  N   N10       1.0  0.4512864005392814  0.8677641329123702  0.3443551702405261  1.0000
  N   N11       1.0  0.4512775706032031  0.36775892790598863  0.15563716530370192  1.0000
  N   N12       1.0  0.5487136726895231  0.13223675928817608  0.655642618144775  1.0000
  O   O1        1.0  0.4477258237388924  0.24604446651918715  0.8004088240614425  1.0000
  O   O2        1.0  0.5522829825086504  0.25395498665790944  0.300411865788469  1.0000
  O   O3        1.0  0.5522804821351102  0.7539575269929131  0.1995889643191334  1.0000
  O   O4        1.0  0.4477082312551416  0.7460336839435584  0.6995784314276039  1.0000
  O   O5        1.0  0.3978768813839864  0.36463086230850916  0.9208084827642583  1.0000
  O   O6        1.0  0.6021264840038042  0.13536787071220865  0.42081411463433244  1.0000
  O   O7        1.0  0.6021173598526417  0.6353678153467754  0.07917956711318651  1.0000
  O   O8        1.0  0.3978854378558694  0.8646474627033953  0.5791806772931951  1.0000
