data_image0
_chemical_formula_structural       Dy2H42C54O12
_chemical_formula_sum              "Dy2 H42 C54 O12"
_cell_length_a       7.5734902597452285
_cell_length_b       13.18126770698279
_cell_length_c       13.2988
_cell_angle_alpha    116.56490477749331
_cell_angle_beta     101.49370718575331
_cell_angle_gamma    100.76462724597349

_space_group_name_H-M_alt    "P 1"
_space_group_IT_number       1

loop_
  _space_group_symop_operation_xyz
  'x, y, z'

loop_
  _atom_site_type_symbol
  _atom_site_label
  _atom_site_symmetry_multiplicity
  _atom_site_fract_x
  _atom_site_fract_y
  _atom_site_fract_z
  _atom_site_occupancy
  Dy  Dy1       1.0  0.503004913624018  0.9994909386296555  5.443213340310215e-05  1.0000
  Dy  Dy2       1.0  0.0035071481456512  0.0004146397641094  0.0005810183396377997  1.0000
  H   H1        1.0  0.575710112083982  0.1748850439559391  0.3500380698286705  1.0000
  H   H2        1.0  0.3976419667913831  0.172283715608252  0.8250894829374928  1.0000
  H   H3        1.0  0.9008863573182778  0.8251617264264652  0.17523891216974627  1.0000
  H   H4        1.0  0.22573056961721963  0.6506734498310109  0.825872015507585  1.0000
  H   H5        1.0  0.075068632074256  0.3493286395423354  0.1752347902597647  1.0000
  H   H6        1.0  0.7253835875310131  0.8278095230235821  0.6528607829610492  1.0000
  H   H7        1.0  0.2383665047316796  0.0318798999669312  0.3795962008383  1.0000
  H   H8        1.0  0.2072869348312238  0.3493214905808841  0.9671970703176315  1.0000
  H   H9        1.0  0.706281965471824  0.9681901045401914  0.3476085011798417  1.0000
  H   H10       1.0  0.8567288006651311  0.6190768274615408  0.6510931450665325  1.0000
  H   H11       1.0  0.7376422773353398  0.380904708647634  0.032040835079122636  1.0000
  H   H12       1.0  0.3581155952099024  0.6506305560623105  0.6178757197425071  1.0000
  H   H13       1.0  0.7382792671562797  0.2584474671068264  0.5421326374875477  1.0000
  H   H14       1.0  0.47781031357978776  0.2820908698629552  0.7418236440686812  1.0000
  H   H15       1.0  0.9796176245313363  0.7416475587653723  0.2836248359168181  1.0000
  H   H16       1.0  0.19602333019052762  0.45806076871896556  0.7165120266242794  1.0000
  H   H17       1.0  0.23801814064972152  0.54196098029837  0.258498534768286  1.0000
  H   H18       1.0  0.695839987915875  0.7177887935455517  0.4596857863913825  1.0000
  H   H19       1.0  0.941222799005601  0.2954862363802491  0.7326346266683643  1.0000
  H   H20       1.0  0.6432629611590244  0.4363145216076774  0.7059785574172394  1.0000
  H   H21       1.0  0.1454822853445492  0.7046025341506805  0.4370925352983831  1.0000
  H   H22       1.0  0.20869654141396407  0.2672835834592533  0.5627537515445198  1.0000
  H   H23       1.0  0.4414852781216893  0.7327033143710082  0.29549673333431054  1.0000
  H   H24       1.0  0.7069630062878502  0.5635588864595675  0.2695896420387882  1.0000
  H   H25       1.0  0.8319137747152752  0.1758296004875461  0.8237044085689647  1.0000
  H   H26       1.0  0.6551155092450784  0.6489299968573476  0.8255957324852119  1.0000
  H   H27       1.0  0.15593715722146587  0.8243056382928061  0.6478096451176328  1.0000
  H   H28       1.0  0.007743850521336496  0.1754489182903285  0.3511628570074876  1.0000
  H   H29       1.0  0.33241699327171403  0.8245361922995756  0.17570946218307168  1.0000
  H   H30       1.0  0.5060451378181129  0.3509541346520706  0.17657227251311267  1.0000
  H   H31       1.0  0.5140384226364318  0.0205353917656623  0.7212730172084605  1.0000
  H   H32       1.0  0.4945274920874922  0.7030664010590755  0.9797383010466447  1.0000
  H   H33       1.0  0.9934306109882698  0.9796338045815817  0.7006970003438722  1.0000
  H   H34       1.0  0.7914949521077546  0.2772152781539319  0.297573000157243  1.0000
  H   H35       1.0  0.014390517330973294  0.7228046836230391  0.020422473818648278  1.0000
  H   H36       1.0  0.2913072684470066  0.2968838583437616  0.2766163236047916  1.0000
  H   H37       1.0  0.30842831793170694  0.984529055934594  0.5312232407547556  1.0000
  H   H38       1.0  0.32558497005764053  0.5485219396692784  0.014727094790494291  1.0000
  H   H39       1.0  0.8237285806967023  0.015599033884306801  0.5466326945547522  1.0000
  H   H40       1.0  0.7762395290738056  0.4676895261721867  0.45186571717157153  1.0000
  H   H41       1.0  0.8085646427102587  0.5323912017771093  0.9842751009854709  1.0000
  H   H42       1.0  0.2771454845519727  0.4514202771519251  0.46621851662961694  1.0000
  C   C1        1.0  0.2950478310165749  0.0836044232993984  0.21668179529838483  1.0000
  C   C2        1.0  0.21008442252959722  0.1326981288182054  0.9165254070921309  1.0000
  C   C3        1.0  0.7115339529222666  0.9163646021272384  0.13298869786853362  1.0000
  C   C4        1.0  0.07721161303368969  0.7830194922977896  0.867482211614103  1.0000
  C   C5        1.0  0.7941966432725209  0.2169155755619556  0.0844802174170241  1.0000
  C   C6        1.0  0.5773070288646521  0.8672610667864405  0.783797987161023  1.0000
  C   C7        1.0  0.4321414299963209  0.1225314120158529  0.3317361371980709  1.0000
  C   C8        1.0  0.3074901459928867  0.2079936716721207  0.8771088926109272  1.0000
  C   C9        1.0  0.8095691528053095  0.8774903370014756  0.20918113955110582  1.0000
  C   C10       1.0  0.0993936144899905  0.6680910007842087  0.7911710345720806  1.0000
  C   C11       1.0  0.9313194586323164  0.331886960844237  0.12310747655219963  1.0000
  C   C12       1.0  0.5995534661180955  0.7920146730424875  0.669139421326129  1.0000
  C   C13       1.0  0.3838120161424072  0.0893155498779237  0.4076050134989161  1.0000
  C   C14       1.0  0.2940357642129854  0.3184227855729915  0.9099716254925171  1.0000
  C   C15       1.0  0.7943309628122178  0.9107589227301106  0.318238811432053  1.0000
  C   C16       1.0  0.974818140726363  0.5916212410120991  0.6811058251775038  1.0000
  C   C17       1.0  0.8831994481016848  0.4083692312988916  0.08951654280265588  1.0000
  C   C18       1.0  0.4757561934982704  0.6815373036518366  0.5915560836013753  1.0000
  C   C19       1.0  0.5085712699956062  0.11751730917873  0.5217384511098545  1.0000
  C   C20       1.0  0.390760704128887  0.4042675146668486  0.8821342085170372  1.0000
  C   C21       1.0  0.8908666628181123  0.8825830784145552  0.40417591354312066  1.0000
  C   C22       1.0  0.9861788142349681  0.4776516039530208  0.5950510505194657  1.0000
  C   C23       1.0  0.008565381132186235  0.5223540599010477  0.11745457958300416  1.0000
  C   C24       1.0  0.48666108810056846  0.5956595106112701  0.4778896691787011  1.0000
  C   C25       1.0  0.6885416776190709  0.20565953575863463  0.5806486142232927  1.0000
  C   C26       1.0  0.4815687951786529  0.37425706811914233  0.7946603151233519  1.0000
  C   C27       1.0  0.9827067631228061  0.7944471071759196  0.3749297069019376  1.0000
  C   C28       1.0  0.10777826886841521  0.4192159930591899  0.6247689431312224  1.0000
  C   C29       1.0  0.1885874267801881  0.5808093304388677  0.2056124118106339  1.0000
  C   C30       1.0  0.6074512290928666  0.6256270633902759  0.4203985427870832  1.0000
  C   C31       1.0  0.8027996163139334  0.22674539755596612  0.6884616040724438  1.0000
  C   C32       1.0  0.574502738536644  0.4614207806005552  0.7742426789821765  1.0000
  C   C33       1.0  0.07587073768481645  0.7733719688207615  0.46166711199698074  1.0000
  C   C34       1.0  0.11427448012233302  0.3112631006806268  0.5378747422251706  1.0000
  C   C35       1.0  0.30307522901951955  0.6887506057550752  0.2266674400415595  1.0000
  C   C36       1.0  0.6131638529567454  0.5384490529859605  0.3127973243279031  1.0000
  C   C37       1.0  0.7417144307218067  0.1601099278787643  0.7398363916085273  1.0000
  C   C38       1.0  0.5808760481124013  0.5805224783606846  0.8408464367019945  1.0000
  C   C39       1.0  0.08145134358572645  0.8400253109015877  0.5796732923125631  1.0000
  C   C40       1.0  0.0013600107209797102  0.2594063215613289  0.4193809880556572  1.0000
  C   C41       1.0  0.24205817773935936  0.7405877252303839  0.16000424380654718  1.0000
  C   C42       1.0  0.5003298602465803  0.41936344038909823  0.2602734405770164  1.0000
  C   C43       1.0  0.5635289068871927  0.0726593633191612  0.6821835433327834  1.0000
  C   C44       1.0  0.49131076466660767  0.6110378203108056  0.9276662695384061  1.0000
  C   C45       1.0  0.9906991420284825  0.9274687264997398  0.6094755835890452  1.0000
  C   C46       1.0  0.8804659257632111  0.3167141837863952  0.3891515157653203  1.0000
  C   C47       1.0  0.06384092110612732  0.6832896928273087  0.07248070197554313  1.0000
  C   C48       1.0  0.38026863420414253  0.3888892049673133  0.316613576180913  1.0000
  C   C49       1.0  0.44753609772959635  0.0523831214060664  0.5752032956057178  1.0000
  C   C50       1.0  0.3958949197580139  0.5240331722216638  0.9473328775406387  1.0000
  C   C51       1.0  0.8949389258604583  0.9477262023890276  0.522774727330102  1.0000
  C   C52       1.0  0.8714621245873104  0.4238181369927503  0.47593829865316195  1.0000
  C   C53       1.0  0.9476954867074241  0.5761982503034986  0.05217867991670733  1.0000
  C   C54       1.0  0.3719640129647388  0.4759010020179062  0.4233146104623131  1.0000
  O   O1        1.0  0.3500307229738624  0.10347317440983521  0.1386918273909075  1.0000
  O   O2        1.0  0.24542046193916892  0.0338717793509886  0.8970727290289416  1.0000
  O   O3        1.0  0.7467530189295174  0.8964458082866499  0.03515591646556961  1.0000
  O   O4        1.0  0.21240781003633208  0.8619761970343874  0.9657436314921101  1.0000
  O   O5        1.0  0.8504528706461798  0.1379740623684427  0.10379780008864972  1.0000
  O   O6        1.0  0.7113580067903911  0.966153544147069  0.8632140515306688  1.0000
  O   O7        1.0  0.1195023501897339  0.0317467505599183  0.191773065601673  1.0000
  O   O8        1.0  0.0877450133981199  0.1609722713536925  0.9683495447395316  1.0000
  O   O9        1.0  0.5877749761266813  0.9681918917805561  0.15985186989379233  1.0000
  O   O10       1.0  0.9254259696152829  0.8072643014359216  0.8406734382289116  1.0000
  O   O11       1.0  0.6181746054628049  0.19267434090455282  0.03342510912727187  1.0000
  O   O12       1.0  0.42672724986449856  0.8388868387906498  0.8073354430329545  1.0000
