data_image0
_chemical_formula_structural       Na2H12C8N22O4
_chemical_formula_sum              "Na2 H12 C8 N22 O4"
_cell_length_a       6.156661707414652
_cell_length_b       7.4895032878218935
_cell_length_c       11.66142543729629
_cell_angle_alpha    75.28207040798624
_cell_angle_beta     77.36332220759837
_cell_angle_gamma    88.30305242996866

_space_group_name_H-M_alt    "P 1"
_space_group_IT_number       1

loop_
  _space_group_symop_operation_xyz
  'x, y, z'

loop_
  _atom_site_type_symbol
  _atom_site_label
  _atom_site_symmetry_multiplicity
  _atom_site_fract_x
  _atom_site_fract_y
  _atom_site_fract_z
  _atom_site_occupancy
  Na  Na1       1.0  0.28608998870956986  0.4648507024037515  0.42395417597749946  1.0000
  Na  Na2       1.0  0.7139098856748232  0.5351494064005706  0.5760463405775698  1.0000
  H   H1        1.0  0.4845080840012272  0.45389165211276616  0.12412950773206428  1.0000
  H   H2        1.0  0.5154934465572155  0.5461084738465231  0.8758699526776539  1.0000
  H   H3        1.0  0.23133440254775914  0.13946481788680393  0.010489846315479688  1.0000
  H   H4        1.0  0.7686688250811855  0.8605367003660404  0.989509190006871  1.0000
  H   H5        1.0  0.522692070169974  0.7902065989086182  0.3590764928179979  1.0000
  H   H6        1.0  0.477306139339909  0.20979349856477825  0.6409242224287723  1.0000
  H   H7        1.0  0.9383184787125175  0.17621191061174807  0.557135314107498  1.0000
  H   H8        1.0  0.06167969860137389  0.8237868058990117  0.44286562653493894  1.0000
  H   H9        1.0  0.7329791614297106  0.6788980765887872  0.3272048128965467  1.0000
  H   H10       1.0  0.2670190480801722  0.32110202088460943  0.6727959023502309  1.0000
  H   H11       1.0  0.8729037929151459  0.26119440645655356  0.43353941564816983  1.0000
  H   H12       1.0  0.1270977463437575  0.738805713678694  0.5664609022151978  1.0000
  C   C1        1.0  0.8556642065660255  0.32444203353064455  0.976090047755861  1.0000
  C   C2        1.0  0.144335650417446  0.6755580869217539  0.02390875389191647  1.0000
  C   C3        1.0  0.7932576195565347  0.2983996358961249  0.10584131404051787  1.0000
  C   C4        1.0  0.2067421730349466  0.7015977226310143  0.8941579383985854  1.0000
  C   C5        1.0  0.8921814055166806  0.20752373736623037  0.20135424322230486  1.0000
  C   C6        1.0  0.1078184601672518  0.7924763772621333  0.7986454158791149  1.0000
  C   C7        1.0  0.0962010073089701  0.10831696980208959  0.20045591129851917  1.0000
  C   C8        1.0  0.9037989079718827  0.8916845141408205  0.7995452373145328  1.0000
  N   N1        1.0  0.8527158667866317  0.4111713947202133  0.7866116214488913  1.0000
  N   N2        1.0  0.1472840075977615  0.5888287140841014  0.21338889510617787  1.0000
  N   N3        1.0  0.036398627042771595  0.31941706465688907  0.79846407152683  1.0000
  N   N4        1.0  0.9636012473416217  0.6805830441474326  0.2015364450282391  1.0000
  N   N5        1.0  0.044085710308998195  0.26293056305131307  0.9163241083802306  1.0000
  N   N6        1.0  0.9559158115489838  0.7370695687320109  0.08367449457583825  1.0000
  N   N7        1.0  0.6068708458565695  0.36901066293397383  0.1619184459132796  1.0000
  N   N8        1.0  0.3931289789309035  0.6309880765557949  0.838080581130157  1.0000
  N   N9        1.0  0.7606998368248483  0.23038387315492764  0.30732500413220987  1.0000
  N   N10       1.0  0.23930172592959312  0.7696176337669911  0.6926742308818491  1.0000
  N   N11       1.0  0.24734258956500813  0.09088299479869731  0.10075354934370039  1.0000
  N   N12       1.0  0.7526589496938954  0.9091171253365502  0.8992467685196673  1.0000
  N   N13       1.0  0.5889130648601721  0.32787681353281783  0.2824553963290768  1.0000
  N   N14       1.0  0.41108848919380137  0.6721246992131427  0.7175429812313258  1.0000
  N   N15       1.0  0.7353691847670518  0.4168239926841509  0.8971313736724369  1.0000
  N   N16       1.0  0.26462901604237027  0.5831761106132872  0.10286848412068392  1.0000
  N   N17       1.0  0.17311068234668173  0.0206096238609277  0.2981991058788509  1.0000
  N   N18       1.0  0.8268908569122289  0.9793904962743198  0.701801211984517  1.0000
  N   N19       1.0  0.41845019483480417  0.9926683032506672  0.13600763137542055  1.0000
  N   N20       1.0  0.5815513444240991  0.007331816884580195  0.86399268648794  1.0000
  N   N21       1.0  0.37100273563838465  0.9528999555025663  0.2545155927412424  1.0000
  N   N22       1.0  0.628997179642468  0.04710152844035061  0.7454855558718095  1.0000
  O   O1        1.0  0.9390759520013177  0.2944763297083952  0.4960115208687555  1.0000
  O   O2        1.0  0.060923890187083905  0.7055223981332972  0.5039892210819731  1.0000
  O   O3        1.0  0.6015296898965872  0.6799217170685736  0.3940460824318137  1.0000
  O   O4        1.0  0.3984701931882739  0.3200783859117067  0.6059552915769049  1.0000
