data_image0
_chemical_formula_structural       Zn2H20C32N6O8
_chemical_formula_sum              "Zn2 H20 C32 N6 O8"
_cell_length_a       7.714753037625701
_cell_length_b       10.477181329864932
_cell_length_c       13.256495017617008
_cell_angle_alpha    106.62949293136391
_cell_angle_beta     105.32701190174677
_cell_angle_gamma    92.66506455453106

_space_group_name_H-M_alt    "P 1"
_space_group_IT_number       1

loop_
  _space_group_symop_operation_xyz
  'x, y, z'

loop_
  _atom_site_type_symbol
  _atom_site_label
  _atom_site_symmetry_multiplicity
  _atom_site_fract_x
  _atom_site_fract_y
  _atom_site_fract_z
  _atom_site_occupancy
  Zn  Zn1       1.0  0.7235860721517184  0.04938700387074141  0.2921592009801088  1.0000
  Zn  Zn2       1.0  0.38594745252234464  0.8769999729325446  0.18240015036484175  1.0000
  H   H1        1.0  0.38968930768077564  0.8329516577854008  0.863090407074921  1.0000
  H   H2        1.0  0.38574563370931964  0.8302898869491743  0.6745332469162763  1.0000
  H   H3        1.0  0.8262893192838732  0.15614707498426844  0.8129744794816034  1.0000
  H   H4        1.0  0.8315925753372325  0.15458884595072675  0.0018939143467094253  1.0000
  H   H5        1.0  0.7153941475871761  0.0640922647427402  0.6170421064136137  1.0000
  H   H6        1.0  0.3687406348292868  0.8586969977121796  0.5205559494770995  1.0000
  H   H7        1.0  0.7239998255373336  0.5365450212685374  0.18158377942717152  1.0000
  H   H8        1.0  0.08187344755875607  0.7313903355249635  0.2918537605094755  1.0000
  H   H9        1.0  0.8538085492432544  0.3666618966170319  0.1976554312451882  1.0000
  H   H10       1.0  0.024572064209749594  0.1748516799713471  0.189813985017615  1.0000
  H   H11       1.0  0.5281902228138549  0.4389798170623251  0.3070859995877058  1.0000
  H   H12       1.0  0.355738994468311  0.635405887771249  0.30788309364812966  1.0000
  H   H13       1.0  0.31508516275194137  0.6168798278913316  0.011155901501751888  1.0000
  H   H14       1.0  0.0513105978191959  0.4660877115500668  0.862734949698293  1.0000
  H   H15       1.0  0.7038529416776952  0.7480112685858485  0.9815892656894079  1.0000
  H   H16       1.0  0.9826263312099355  0.8916628661589525  0.11958252438113694  1.0000
  H   H17       1.0  0.4059435668089506  0.17513481136955994  0.4891343003424923  1.0000
  H   H18       1.0  0.1282161668111073  0.0478476031906183  0.3406005107579517  1.0000
  H   H19       1.0  0.7929105476152569  0.2852593153782266  0.4883798892156364  1.0000
  H   H20       1.0  0.05609218377257718  0.4168559979676374  0.6478389427497079  1.0000
  C   C1        1.0  0.6090418730423577  0.9884094036121809  0.05531623243755489  1.0000
  C   C2        1.0  0.6102175534854196  0.9937588187152783  0.9436786212267947  1.0000
  C   C3        1.0  0.4844619975272976  0.9031265204134725  0.8505495587671774  1.0000
  C   C4        1.0  0.48261983071708403  0.9026405999276719  0.7457132226119398  1.0000
  C   C5        1.0  0.6053124905091066  0.9941540273247538  0.7302031601966945  1.0000
  C   C6        1.0  0.730489615928917  0.08496522786105488  0.8240721784367792  1.0000
  C   C7        1.0  0.7337204911344204  0.08473614332012148  0.9296413118010491  1.0000
  C   C8        1.0  0.6064309472580476  0.9968971263847665  0.6211801978438914  1.0000
  C   C9        1.0  0.4846356868550713  0.9259669142191882  0.524964285241019  1.0000
  C   C10       1.0  0.496216984597055  0.9377001174635708  0.41821491240771985  1.0000
  C   C11       1.0  0.7252907232104137  0.7523527073354829  0.22419276952347636  1.0000
  C   C12       1.0  0.81610044788831  0.6305832989629677  0.2191142003683524  1.0000
  C   C13       1.0  0.9972479283146072  0.6335565677130788  0.256739777048459  1.0000
  C   C14       1.0  0.09281243230248747  0.5162421898256683  0.2533109324793088  1.0000
  C   C15       1.0  0.0014234103799353052  0.3846482133611034  0.2199922223275124  1.0000
  C   C16       1.0  0.09742138461938768  0.2757428531427593  0.2166669899611122  1.0000
  C   C17       1.0  0.28783321461082073  0.294723140488543  0.24913219788003002  1.0000
  C   C18       1.0  0.3886294612423313  0.17630556780630974  0.24893683545951015  1.0000
  C   C19       1.0  0.3803647961349057  0.42498886623636883  0.2826996520426093  1.0000
  C   C20       1.0  0.2841013549378744  0.534319521618805  0.2840643338294342  1.0000
  C   C21       1.0  0.17704498808100766  0.6417767255608879  0.0002604290552455195  1.0000
  C   C22       1.0  0.030572427117746787  0.558611558058935  0.9188515649610807  1.0000
  C   C23       1.0  0.856403441087096  0.5961081794928305  0.9113704297224247  1.0000
  C   C24       1.0  0.8371765919501258  0.7169051736859872  0.9847389070460366  1.0000
  C   C25       1.0  0.9914307114707556  0.7960860906768232  0.062085700582557024  1.0000
  C   C26       1.0  0.6957925686639541  0.5113816783775604  0.8275049184033563  1.0000
  C   C27       1.0  0.4130006560434084  0.3767012658461511  0.6724202200513788  1.0000
  C   C28       1.0  0.25268260446663504  0.30547210403401687  0.5805870978577161  1.0000
  C   C29       1.0  0.2724544956889616  0.20156648502349128  0.49218706397947903  1.0000
  C   C30       1.0  0.11827207202648542  0.13170447054579884  0.40891051282767427  1.0000
  C   C31       1.0  0.9314624947724255  0.264728052292206  0.4927023760490741  1.0000
  C   C32       1.0  0.07789026728956121  0.33755041235904326  0.580488396042  1.0000
  N   N1        1.0  0.1575122030497765  0.7581848863650791  0.07048934441530007  1.0000
  N   N2        1.0  0.5311073500074954  0.5316899473031711  0.8425364147987651  1.0000
  N   N3        1.0  0.3867918740910453  0.46251675647270923  0.7635264199738785  1.0000
  N   N4        1.0  0.5778774274967801  0.3456817200589839  0.6633401734020055  1.0000
  N   N5        1.0  0.7220551599168699  0.4139509184066696  0.7426125959006313  1.0000
  N   N6        1.0  0.9513794973399571  0.1634309094911472  0.40884022484863186  1.0000
  O   O1        1.0  0.47880446588560927  0.9110734132611852  0.057346693779592776  1.0000
  O   O2        1.0  0.7373386565799648  0.05799563803275729  0.1388253125571168  1.0000
  O   O3        1.0  0.3641288725173056  0.8740125250771273  0.3336474663019686  1.0000
  O   O4        1.0  0.6321581396957257  0.010608625519253699  0.4174283305867306  1.0000
  O   O5        1.0  0.5520994937442792  0.7309473934567237  0.1869513039176667  1.0000
  O   O6        1.0  0.8211425826757334  0.8678092738177057  0.26342021098621166  1.0000
  O   O7        1.0  0.2943736231067291  0.060332286919326406  0.2065897757697215  1.0000
  O   O8        1.0  0.5600686937310471  0.19916813307629866  0.29183479461500633  1.0000
