data_image0
_chemical_formula_structural       Ho2H10C14N2Cl6
_chemical_formula_sum              "Ho2 H10 C14 N2 Cl6"
_cell_length_a       6.914635731424926
_cell_length_b       7.49378049076666
_cell_length_c       11.426697373211518
_cell_angle_alpha    78.98589770591518
_cell_angle_beta     75.36087274577889
_cell_angle_gamma    59.20253606228023

_space_group_name_H-M_alt    "P 1"
_space_group_IT_number       1

loop_
  _space_group_symop_operation_xyz
  'x, y, z'

loop_
  _atom_site_type_symbol
  _atom_site_label
  _atom_site_symmetry_multiplicity
  _atom_site_fract_x
  _atom_site_fract_y
  _atom_site_fract_z
  _atom_site_occupancy
  Ho  Ho1       1.0  0.855595533511405  0.3192448405623409  0.47134452244318925  1.0000
  Ho  Ho2       1.0  0.14438641848158804  0.6807540097360841  0.5286556858628585  1.0000
  H   H1        1.0  0.4623160473598845  0.8295051058023473  0.7431633763702549  1.0000
  H   H2        1.0  0.5376723970636946  0.1704872433231941  0.25684090043436925  1.0000
  H   H3        1.0  0.16852980296107486  0.20268290390693267  0.7587110971637113  1.0000
  H   H4        1.0  0.8314678219016121  0.7973091128997466  0.24129254099049988  1.0000
  H   H5        1.0  0.5815887837873323  0.6003441842889001  0.9282754347266716  1.0000
  H   H6        1.0  0.4184201715510342  0.39965811375511595  0.0717267875582621  1.0000
  H   H7        1.0  0.9942572393020086  0.34933772905903737  0.9605378833191408  1.0000
  H   H8        1.0  0.005749287398679053  0.6506662453883363  0.039462795269344  1.0000
  H   H9        1.0  0.4063596895568296  0.7449563582992197  0.1325589978387569  1.0000
  H   H10       1.0  0.5936569932859258  0.25504865041603597  0.8674442137571035  1.0000
  C   C1        1.0  0.1906939406142527  0.055003559043377885  0.057962528954576  1.0000
  C   C2        1.0  0.8093156867262442  0.9450002812141489  0.9420385165431069  1.0000
  C   C3        1.0  0.3853043540463474  0.8928272782491717  0.8317724526855911  1.0000
  C   C4        1.0  0.6147015907578677  0.10715994081800058  0.16822860765600467  1.0000
  C   C5        1.0  0.09397218279947593  0.137236091297126  0.1732426160254334  1.0000
  C   C6        1.0  0.9060342768861032  0.8627648896924072  0.8267566859916186  1.0000
  C   C7        1.0  0.2209487053844086  0.10310513436502329  0.8402580467483247  1.0000
  C   C8        1.0  0.779052710945024  0.8968973762149016  0.1597463021751296  1.0000
  C   C9        1.0  0.4519158811685172  0.7637625149574275  0.9362684202382139  1.0000
  C   C10       1.0  0.5480832887437258  0.23624156664979518  0.06373699405580882  1.0000
  C   C11       1.0  0.12276746694123367  0.1855075662276064  0.9529369989943177  1.0000
  C   C12       1.0  0.8772411721464266  0.8144888502767812  0.04705986108072581  1.0000
  C   C13       1.0  0.3557139994583451  0.8427659821603372  0.05004374596146021  1.0000
  C   C14       1.0  0.6443032213563242  0.1572345818527268  0.9499555357042765  1.0000
  N   N1        1.0  0.015530321075843298  0.2036730313902382  0.2683868213761045  1.0000
  N   N2        1.0  0.9844637360504934  0.7963284863587174  0.7316110130041479  1.0000
  Cl  Cl1       1.0  0.22564432945701177  0.9955193142142846  0.53707344319033  1.0000
  Cl  Cl2       1.0  0.7743479522089629  0.004476336401943105  0.46292015005894166  1.0000
  Cl  Cl3       1.0  0.47253568853222555  0.39371709123521004  0.6456387947646434  1.0000
  Cl  Cl4       1.0  0.5274474671598882  0.6062758279913324  0.354355799941615  1.0000
  Cl  Cl5       1.0  0.12538255260756867  0.48928910955192606  0.3586258911036708  1.0000
  Cl  Cl6       1.0  0.8746015305972109  0.510711268553102  0.6413720193362237  1.0000
