data_image0
_chemical_formula_structural       Zr6H40C62O42
_chemical_formula_sum              "Zr6 H40 C62 O42"
_cell_length_a       14.906607299247334
_cell_length_b       14.843126981710588
_cell_length_c       14.84815781657125
_cell_angle_alpha    59.71172416792345
_cell_angle_beta     59.813137699368994
_cell_angle_gamma    59.85204548017059

_space_group_name_H-M_alt    "P 1"
_space_group_IT_number       1

loop_
  _space_group_symop_operation_xyz
  'x, y, z'

loop_
  _atom_site_type_symbol
  _atom_site_label
  _atom_site_symmetry_multiplicity
  _atom_site_fract_x
  _atom_site_fract_y
  _atom_site_fract_z
  _atom_site_occupancy
  Zr  Zr1       1.0  0.8838580843789074  0.3772629820635205  0.6190915183617421  1.0000
  Zr  Zr2       1.0  0.12169816361453914  0.6161723120967507  0.37999048347148096  1.0000
  Zr  Zr3       1.0  0.12126568456306322  0.37719327593018903  0.6194966073953553  1.0000
  Zr  Zr4       1.0  0.884641822963289  0.6160414956359761  0.37970302982023435  1.0000
  Zr  Zr5       1.0  0.8844530762421956  0.6137373089572905  0.6195205438561473  1.0000
  Zr  Zr6       1.0  0.12138428229901166  0.37642555048258697  0.38283088796863746  1.0000
  H   H1        1.0  0.9076993515160651  0.4036675006126985  0.7827206582998442  1.0000
  H   H2        1.0  0.9089483814344065  0.7778371688296843  0.40744515953125654  1.0000
  H   H3        1.0  0.28367053761905237  0.4023401847552962  0.4068641074267206  1.0000
  H   H4        1.0  0.9098600157323915  0.40252942815494225  0.4064192814170155  1.0000
  H   H5        1.0  0.5326221482590225  0.7647536488850197  0.8679206007531165  1.0000
  H   H6        1.0  0.6201893029343143  0.6747941442372751  0.9499907542490006  1.0000
  H   H7        1.0  0.45536398057671323  0.6683884706838513  0.12249085084728503  1.0000
  H   H8        1.0  0.3671358158227207  0.7599608782680461  0.04130759854027125  1.0000
  H   H9        1.0  0.2480940243077683  0.05483799095606664  0.306402718252933  1.0000
  H   H10       1.0  0.1503598901788479  0.13311179527177333  0.23629912823626145  1.0000
  H   H11       1.0  0.15843973864409128  0.9571118410277112  0.24205679778600597  1.0000
  H   H12       1.0  0.2518557366586977  0.8789591499666471  0.31793195670507407  1.0000
  H   H13       1.0  0.5222023316218338  0.8551043180566539  0.3532336792544155  1.0000
  H   H14       1.0  0.6152647644981639  0.931061250479971  0.2589206612463997  1.0000
  H   H15       1.0  0.455297765147563  0.10914304204491289  0.2525250544072506  1.0000
  H   H16       1.0  0.3631543506766021  0.03183930504053486  0.3422967846871074  1.0000
  H   H17       1.0  0.8414638346328048  0.7582587247166473  0.038065873883397196  1.0000
  H   H18       1.0  0.7552211640421476  0.6744349471024904  0.12065511203996941  1.0000
  H   H19       1.0  0.7555828659996988  0.6802724865716034  0.9489873019433118  1.0000
  H   H20       1.0  0.8436644456211011  0.7620301081854071  0.8660580896766136  1.0000
  H   H21       1.0  0.7968622457273965  0.2575233329948929  0.9258067674084457  1.0000
  H   H22       1.0  0.6319489763073136  0.2558822361515071  0.09194084181313403  1.0000
  H   H23       1.0  0.8011672849658069  0.9257278189650225  0.26634912335698147  1.0000
  H   H24       1.0  0.6355956884239902  0.0905685358603351  0.26437473283708357  1.0000
  H   H25       1.0  0.17330446382831605  0.8440051242450012  0.015652312486999193  1.0000
  H   H26       1.0  0.17301179398086217  0.013359095179602347  0.8469638312740031  1.0000
  H   H27       1.0  0.5409163661347948  0.3239369080802065  0.7619285723485733  1.0000
  H   H28       1.0  0.6265877020204584  0.24090805532331688  0.6746419981038797  1.0000
  H   H29       1.0  0.45846866374886747  0.24148782750729247  0.674218262319087  1.0000
  H   H30       1.0  0.37359927117977065  0.32406308148023305  0.7618963076128152  1.0000
  H   H31       1.0  0.34041665235225327  0.3553853103529364  0.1436923306118914  1.0000
  H   H32       1.0  0.6418804155900873  0.3627860630995272  0.8306989328771267  1.0000
  H   H33       1.0  0.8593381298860835  0.8346865498822141  0.6596426972711029  1.0000
  H   H34       1.0  0.8609651201961982  0.141524143997202  0.6587676955433821  1.0000
  H   H35       1.0  0.34425806457920777  0.1441910220548053  0.6559494625798196  1.0000
  H   H36       1.0  0.6509231136592817  0.8357991083294609  0.656277946421504  1.0000
  H   H37       1.0  0.15406207394985935  0.34812764237383226  0.8447559195765846  1.0000
  H   H38       1.0  0.1540649816066094  0.3457328058142793  0.15292401623730711  1.0000
  H   H39       1.0  0.3428435794947118  0.652244269100713  0.3576261775617979  1.0000
  H   H40       1.0  0.6514123300129526  0.6498598984038043  0.35587258962432594  1.0000
  C   C1        1.0  0.691401328309709  0.5063688934797883  0.7973765114891691  1.0000
  C   C2        1.0  0.005660910939994004  0.7974025501743827  0.5020460446417943  1.0000
  C   C3        1.0  0.3010744980057182  0.5031073720117122  0.19080267453028907  1.0000
  C   C4        1.0  0.007207619311188286  0.1893593083828264  0.500395452471004  1.0000
  C   C5        1.0  0.0033135188316039733  0.19172971207724032  0.8029109530471601  1.0000
  C   C6        1.0  0.6956250930069674  0.49596726715446976  0.5058938604720425  1.0000
  C   C7        1.0  0.00439774444754456  0.7998577459359242  0.19547658787119107  1.0000
  C   C8        1.0  0.30304713830935986  0.497144315580478  0.5067988216521542  1.0000
  C   C9        1.0  0.0037971234708747874  0.5020013171083592  0.8012556075304219  1.0000
  C   C10       1.0  0.30259772212907887  0.1871611364337014  0.5032651779655241  1.0000
  C   C11       1.0  0.006009230323933044  0.5012672805618763  0.19239076660804244  1.0000
  C   C12       1.0  0.6936972988298464  0.7941545236372891  0.5041427534137739  1.0000
  C   C13       1.0  0.5879428026814894  0.5108621711078885  0.8910403406243786  1.0000
  C   C14       1.0  0.39528452395484237  0.5074748004541051  0.08777697133891137  1.0000
  C   C15       1.0  0.5373701599121433  0.5899630973700385  0.9431267510268171  1.0000
  C   C16       1.0  0.4423461508016828  0.42834319151322126  0.03557748404919173  1.0000
  C   C17       1.0  0.4452997335033402  0.5881543353534016  0.037261497210636076  1.0000
  C   C18       1.0  0.5367515655598184  0.4309333292643773  0.9374579974147039  1.0000
  C   C19       1.0  0.545362485185045  0.6896538525065168  0.9397177883082792  1.0000
  C   C20       1.0  0.4409979203950771  0.6864231260273927  0.04844200357766934  1.0000
  C   C21       1.0  0.0049791957902484895  0.09202045985687593  0.4999028020273785  1.0000
  C   C22       1.0  0.004878335036210412  0.8963002903833797  0.5022038475750462  1.0000
  C   C23       1.0  0.0798595927562715  0.04546083215667106  0.4154312432307918  1.0000
  C   C24       1.0  0.9264561328019597  0.9425672927274463  0.5872062156660148  1.0000
  C   C25       1.0  0.0804866513873892  0.9511914822075556  0.41737659607611743  1.0000
  C   C26       1.0  0.9267192069053751  0.03911690888440939  0.5863938657680093  1.0000
  C   C27       1.0  0.17284674732961486  0.05938358311935588  0.3054039055628479  1.0000
  C   C28       1.0  0.17590288501112633  0.9492805018781498  0.3097910371205757  1.0000
  C   C29       1.0  0.5919594129402271  0.8895276849684922  0.507910887932333  1.0000
  C   C30       1.0  0.39925286952024663  0.08623245090507943  0.5060215242675455  1.0000
  C   C31       1.0  0.5393923234465915  0.9384248361690766  0.4296801662783948  1.0000
  C   C32       1.0  0.4481209196876819  0.03684555577008557  0.5883698036420456  1.0000
  C   C33       1.0  0.44838373462154374  0.03349035945541352  0.42783034642611273  1.0000
  C   C34       1.0  0.5438916302467406  0.9400049283508949  0.5887922492662057  1.0000
  C   C35       1.0  0.5411705172019057  0.927277316107656  0.33261800151650783  1.0000
  C   C36       1.0  0.43968586165816254  0.0383697637231677  0.32799621750340435  1.0000
  C   C37       1.0  0.006956698594691994  0.501613700062265  0.09316202327885041  1.0000
  C   C38       1.0  0.0061324952268934675  0.5030617733061791  0.8982314776029625  1.0000
  C   C39       1.0  0.9285634778782637  0.583947898534973  0.040916823865949005  1.0000
  C   C40       1.0  0.08663040769571503  0.41875834254786093  0.948899256822294  1.0000
  C   C41       1.0  0.9282621226056377  0.5850114327843985  0.9475567321548225  1.0000
  C   C42       1.0  0.08668462983860088  0.4178102839392609  0.04556502076109581  1.0000
  C   C43       1.0  0.8281561472659221  0.6871311204179308  0.04747316934175668  1.0000
  C   C44       1.0  0.8287628340858859  0.6896536498185314  0.9394475121425999  1.0000
  C   C45       1.0  0.9993021769469619  0.09530232380335961  0.9081890442351294  1.0000
  C   C46       1.0  0.8987338513068084  0.09337666611817497  0.9998258753039764  1.0000
  C   C47       1.0  0.09655475033937927  0.008266441401708928  0.9160030552373257  1.0000
  C   C48       1.0  0.7995963916794295  0.18533892144437672  0.0004811841227903594  1.0000
  C   C49       1.0  0.7069196625533253  0.18432804346505802  0.09352830838229659  1.0000
  C   C50       1.0  0.0002276587346018655  0.9054053246085588  0.09926815147448312  1.0000
  C   C51       1.0  0.09687738886341908  0.9131764588551619  0.01117882771688268  1.0000
  C   C52       1.0  0.8996032535155509  0.9967449628249414  0.09793975199474377  1.0000
  C   C53       1.0  0.8021566253976646  0.9985891810181615  0.19198684848338846  1.0000
  C   C54       1.0  0.7086041296788607  0.09066684494342088  0.19043092987762125  1.0000
  C   C55       1.0  0.5955284792783857  0.49758403358325165  0.5073148369651433  1.0000
  C   C56       1.0  0.40040012136005754  0.4985109048500362  0.5078603889180185  1.0000
  C   C57       1.0  0.5450258869521248  0.4167613016749101  0.5873269374171456  1.0000
  C   C58       1.0  0.448853372062274  0.5818293028618132  0.42641509365361696  1.0000
  C   C59       1.0  0.45195217074734734  0.41716585023483077  0.5874357744984949  1.0000
  C   C60       1.0  0.5452911070434113  0.5810849337213781  0.4259469129386415  1.0000
  C   C61       1.0  0.5527536252136612  0.3129292343600057  0.6884159249327197  1.0000
  C   C62       1.0  0.446553196127205  0.31325002341301195  0.6883604023099537  1.0000
  O   O1        1.0  0.7343728735728661  0.42664039454123076  0.7586539283020883  1.0000
  O   O2        1.0  0.08094101064860831  0.756766268732271  0.42614007612813515  1.0000
  O   O3        1.0  0.26289846143983203  0.5760487912841443  0.2341510985136636  1.0000
  O   O4        1.0  0.9313897119201684  0.2291384468938561  0.5792869088415884  1.0000
  O   O5        1.0  0.08208933498762852  0.2288622087720286  0.7608033387814217  1.0000
  O   O6        1.0  0.7372486381149272  0.5729930239757478  0.4272070646825269  1.0000
  O   O7        1.0  0.9293606067920522  0.7588517974872035  0.23429468303432796  1.0000
  O   O8        1.0  0.2631192195909479  0.4200112708897878  0.5811813543361878  1.0000
  O   O9        1.0  0.9274081083082281  0.5765715081324319  0.7610924490149101  1.0000
  O   O10       1.0  0.2631930587651611  0.2295350931551426  0.42626585020637725  1.0000
  O   O11       1.0  0.08258165424810929  0.4227514646649624  0.23425828057897044  1.0000
  O   O12       1.0  0.7370105934301135  0.7559853660113022  0.5789268363026282  1.0000
  O   O13       1.0  0.2627144203930243  0.2290696868261008  0.5797475334134178  1.0000
  O   O14       1.0  0.9300896060270247  0.5764640003744362  0.23383944111822047  1.0000
  O   O15       1.0  0.7363553402183669  0.7551251917356226  0.42669487814196566  1.0000
  O   O16       1.0  0.07963734766153854  0.42289310320121126  0.7616878135916779  1.0000
  O   O17       1.0  0.9280929752294541  0.23106986524251047  0.7618679127156298  1.0000
  O   O18       1.0  0.26302120029567516  0.5744393599342247  0.4282869889351559  1.0000
  O   O19       1.0  0.08321452894547585  0.7574838810866923  0.2324379140536763  1.0000
  O   O20       1.0  0.7380614413408181  0.41899239783265346  0.5804393617106456  1.0000
  O   O21       1.0  0.08216529463205559  0.231049788240739  0.4240303517404271  1.0000
  O   O22       1.0  0.7359197996554556  0.5779736302949204  0.7602770222579734  1.0000
  O   O23       1.0  0.9276853229866262  0.756787140166118  0.579289235506586  1.0000
  O   O24       1.0  0.262390370070591  0.423475391397588  0.23348816279478507  1.0000
  O   O25       1.0  0.936251899143599  0.429132362971913  0.4331805631820345  1.0000
  O   O26       1.0  0.20385144571752534  0.42892293491213007  0.4333789261814475  1.0000
  O   O27       1.0  0.9357053179872634  0.6976310283911218  0.43284592346302025  1.0000
  O   O28       1.0  0.9347743138003606  0.4288472469272195  0.7024933432597322  1.0000
  O   O29       1.0  0.05214346164250123  0.5453604190979108  0.5497293592022245  1.0000
  O   O30       1.0  0.8548549314572187  0.5454546821749704  0.5493307919861433  1.0000
  O   O31       1.0  0.05226523945090398  0.5456432470971109  0.35238429771233376  1.0000
  O   O32       1.0  0.05189634443514995  0.34765272376245093  0.5504611416048562  1.0000
  O   O33       1.0  0.40391019938574163  0.3457575138088276  0.07507096760924263  1.0000
  O   O34       1.0  0.5741274889272036  0.35194531759179887  0.895090941550876  1.0000
  O   O35       1.0  0.8485078239621019  0.8994808148400966  0.6730073971494265  1.0000
  O   O36       1.0  0.8491700723856042  0.07481387379883847  0.6718505877618951  1.0000
  O   O37       1.0  0.4094463785982114  0.07714345597512574  0.6693463990000411  1.0000
  O   O38       1.0  0.5844805853375736  0.901557383168168  0.6693799531359659  1.0000
  O   O39       1.0  0.16632558643510734  0.3352053734457316  0.9111179330796376  1.0000
  O   O40       1.0  0.1656276997017017  0.3328833372374049  0.0875371366003321  1.0000
  O   O41       1.0  0.408404519302728  0.6652287827516687  0.34519495859116484  1.0000
  O   O42       1.0  0.5847502495889644  0.663494931246973  0.34390811908933483  1.0000
