data_image0
_chemical_formula_structural       Nd4H44C32S4O44
_chemical_formula_sum              "Nd4 H44 C32 S4 O44"
_cell_length_a       6.966312244
_cell_length_b       10.540677216
_cell_length_c       16.6789
_cell_angle_alpha    90.0
_cell_angle_beta     90.0
_cell_angle_gamma    90.0

_space_group_name_H-M_alt    "P 1"
_space_group_IT_number       1

loop_
  _space_group_symop_operation_xyz
  'x, y, z'

loop_
  _atom_site_type_symbol
  _atom_site_label
  _atom_site_symmetry_multiplicity
  _atom_site_fract_x
  _atom_site_fract_y
  _atom_site_fract_z
  _atom_site_occupancy
  Nd  Nd1       1.0  0.10528238963616593  0.7489661089343045  0.0820108040698102  1.0000
  Nd  Nd2       1.0  0.894717288242184  0.24896597687448013  0.9179879968103393  1.0000
  Nd  Nd3       1.0  0.3947181670428748  0.24896597687448013  0.5820108040698102  1.0000
  Nd  Nd4       1.0  0.6052843817949309  0.7489680063455992  0.417989795490108  1.0000
  H   H1        1.0  0.6928385967994828  0.8531434760519687  0.0883619423343234  1.0000
  H   H2        1.0  0.3071596455991426  0.3531433439921372  0.9116374581057514  1.0000
  H   H3        1.0  0.8071602022781832  0.3531423952864898  0.5883625418942486  1.0000
  H   H4        1.0  0.19284091107989815  0.8531425273463215  0.4116374581057514  1.0000
  H   H5        1.0  0.8196574887836763  0.9774419412408264  0.0723542919497078  1.0000
  H   H6        1.0  0.18034218909467373  0.47744086047535467  0.9276457080502922  1.0000
  H   H7        1.0  0.6803427457737146  0.4774399117697071  0.5723524932699391  1.0000
  H   H8        1.0  0.3196569321046354  0.9774409925351791  0.4276463076102175  1.0000
  H   H9        1.0  0.7561044948188496  0.5757514318708061  0.0965249506861952  1.0000
  H   H10       1.0  0.2438966185392246  0.0757512998109817  0.9034744497538796  1.0000
  H   H11       1.0  0.7438957397385338  0.0757531972222765  0.5965261498060457  1.0000
  H   H12       1.0  0.256103938139816  0.5757523805764535  0.4034744497538796  1.0000
  H   H13       1.0  0.8059070284762839  0.5629078548191799  0.0028173320782514  1.0000
  H   H14       1.0  0.19409264940206586  0.0629086714650029  0.9971814688018981  1.0000
  H   H15       1.0  0.694091770601375  0.0629096201706503  0.5028185311981019  1.0000
  H   H16       1.0  0.30590934275669923  0.5629078548191799  0.4971814688018981  1.0000
  H   H17       1.0  0.48202691501406053  0.8258226508242573  0.0077672988026761995  1.0000
  H   H18       1.0  0.5179727628642894  0.3258234674700802  0.9922333007572419  1.0000
  H   H19       1.0  0.0179736416649803  0.3258234674700802  0.5077678983626015  1.0000
  H   H20       1.0  0.982027471693101  0.825824548235552  0.4922327011973238  1.0000
  H   H21       1.0  0.5532927415534346  0.6956403132115412  0.0448159051256383  1.0000
  H   H22       1.0  0.4467069363249153  0.19564112985736412  0.9551840948743617  1.0000
  H   H23       1.0  0.9467060575242314  0.19564112985736412  0.544815305565713  1.0000
  H   H24       1.0  0.0532921848743939  0.6956422106228359  0.4551852939942052  1.0000
  H   H25       1.0  0.4221444427118328  0.4212433327585572  0.3043917764360984  1.0000
  H   H26       1.0  0.5778537996867854  0.9212453622296763  0.6956082235639016  1.0000
  H   H27       1.0  0.07785467848747633  0.9212434648183816  0.8043893781964044  1.0000
  H   H28       1.0  0.9221507413097783  0.4212433327585572  0.1956106218035956  1.0000
  H   H29       1.0  0.3135633206624321  0.21637129695405832  0.0847304078806133  1.0000
  H   H30       1.0  0.6864377926956424  0.716369531602588  0.9152683929995362  1.0000
  H   H31       1.0  0.18643580053687717  0.7163666854856459  0.5847292087607698  1.0000
  H   H32       1.0  0.8135638773414726  0.21637129695405832  0.4152713907991554  1.0000
  H   H33       1.0  0.2857264977914795  0.0227879096454444  0.3108310500092912  1.0000
  H   H34       1.0  0.7142674381679655  0.5227880417052688  0.6891671513109401  1.0000
  H   H35       1.0  0.2142740588875611  0.5227870929996214  0.8108310500092912  1.0000
  H   H36       1.0  0.7857227480313327  0.0227898070567392  0.1891695495506269  1.0000
  H   H37       1.0  0.9959573669663941  0.6468142283733869  0.2500014988998061  1.0000
  H   H38       1.0  0.0040408754322243  0.1468131476079151  0.7499991006601121  1.0000
  H   H39       1.0  0.5040428675909894  0.1468131476079151  0.7500002997799626  1.0000
  H   H40       1.0  0.4959596812468092  0.6468132796677395  0.2499985011001939  1.0000
  H   H41       1.0  0.8770709359550182  0.7740944754113598  0.2381859714969181  1.0000
  H   H42       1.0  0.122930177403056  0.2740924459402407  0.7618140285030819  1.0000
  H   H43       1.0  0.6229292986023651  0.2740933946458881  0.738185371937  1.0000
  H   H44       1.0  0.3770703792759846  0.7740935267057125  0.261814628063  1.0000
  C   C1        1.0  0.35074224559837575  0.2234258721465423  0.3177655600789038  1.0000
  C   C2        1.0  0.6492559968002496  0.7234250555007193  0.6822350394810215  1.0000
  C   C3        1.0  0.14925831108066495  0.7234260042063667  0.8177637613991351  1.0000
  C   C4        1.0  0.8507442377571409  0.2234268208521897  0.1822350394810215  1.0000
  C   C5        1.0  0.3833391192449085  0.334158795286271  0.2734071191745286  1.0000
  C   C6        1.0  0.6166591231537097  0.8341589273460954  0.7265934803853966  1.0000
  C   C7        1.0  0.11665856647466913  0.8341570299348006  0.77340532049476  1.0000
  C   C8        1.0  0.8833425468834053  0.3341597439919184  0.22659467950524  1.0000
  C   C9        1.0  0.3260606071679248  0.2177326895577707  0.1497005198184524  1.0000
  C   C10       1.0  0.6739390707104249  0.7177309242063004  0.8502994801815476  1.0000
  C   C11       1.0  0.1739385140313843  0.7177280780893582  0.649699320698609  1.0000
  C   C12       1.0  0.8260597283672411  0.2177326895577707  0.3503000797414728  1.0000
  C   C13       1.0  0.29897166923487367  0.1064039792716116  0.1941183171552083  1.0000
  C   C14       1.0  0.7010251376840273  0.6064003165088465  0.8058822824047169  1.0000
  C   C15       1.0  0.2010260164847111  0.6064003165088465  0.6941177175952831  1.0000
  C   C16       1.0  0.7989722259139072  0.10640492797725902  0.3058828819646351  1.0000
  C   C17       1.0  0.3678287607919088  0.3303772545765824  0.1899723602875483  1.0000
  C   C18       1.0  0.6321709170864411  0.8303764379307594  0.8100276397124517  1.0000
  C   C19       1.0  0.1321674894479514  0.8303745405194648  0.6899699620478543  1.0000
  C   C20       1.0  0.8678350593898543  0.330376305870935  0.3100288388322952  1.0000
  C   C21       1.0  0.36643921641591964  0.2276922014419469  0.4073721888134116  1.0000
  C   C22       1.0  0.6335590259826986  0.7276932822074187  0.5926266120667449  1.0000
  C   C23       1.0  0.1335570338239336  0.7276923335017713  0.9073709896935682  1.0000
  C   C24       1.0  0.8664383376152358  0.2276931501475943  0.0926290103064318  1.0000
  C   C25       1.0  0.2539133960760225  0.9828476660185004  0.1545431653166602  1.0000
  C   C26       1.0  0.7460834108428713  0.4828456365473812  0.8454562351234216  1.0000
  C   C27       1.0  0.24608859608274267  0.4828456365473812  0.6545431653166602  1.0000
  C   C28       1.0  0.7539125172753316  0.9828476660185004  0.3454586333631084  1.0000
  C   C29       1.0  0.30888796319075607  0.1103050568928481  0.2777413378580107  1.0000
  C   C30       1.0  0.6911088437281379  0.6103023428357304  0.7222586621419893  1.0000
  C   C31       1.0  0.1911082870490972  0.6103051889526725  0.7777407382980925  1.0000
  C   C32       1.0  0.8088913908292527  0.1103060055984955  0.2222592617019075  1.0000
  S   S1        1.0  0.40722119546727253  0.4727068192958868  0.1347726768551851  1.0000
  S   S2        1.0  0.5927799178908018  0.9727088487670059  0.8652285222646583  1.0000
  S   S3        1.0  0.09277792573203673  0.9727050539444235  0.6347708781754164  1.0000
  S   S4        1.0  0.9072231876260446  0.4727077680015341  0.3652291218245836  1.0000
  O   O1        1.0  0.823306478250359  0.8878015907550177  0.0927165460551933  1.0000
  O   O2        1.0  0.1766917641482593  0.3878024074008408  0.9072822548249562  1.0000
  O   O3        1.0  0.6766937563070243  0.3878014586951934  0.5927159464952751  1.0000
  O   O4        1.0  0.3233073570510498  0.8878025394606652  0.4072822548249562  1.0000
  O   O5        1.0  0.8069678479947273  0.6222882899822935  0.0497155088165258  1.0000
  O   O6        1.0  0.19303182988362275  0.12228910662811639  0.950283891623549  1.0000
  O   O7        1.0  0.6930309510829318  0.1222900553337638  0.5497167079363763  1.0000
  O   O8        1.0  0.3069701622751424  0.6222882899822935  0.4502844911834742  1.0000
  O   O9        1.0  0.4628316801011892  0.7662562693542938  0.0537745294953496  1.0000
  O   O10       1.0  0.5371679977771606  0.2662570860001168  0.9462260700645757  1.0000
  O   O11       1.0  0.03716744109812  0.2662561372944694  0.5537745294953496  1.0000
  O   O12       1.0  0.9628336722599543  0.7662572180599412  0.4462260700645757  1.0000
  O   O13       1.0  0.569586871937517  0.5373335966879509  0.1744209750043453  1.0000
  O   O14       1.0  0.4304099349813769  0.0373334646281265  0.8255790249956547  1.0000
  O   O15       1.0  0.9304090561806859  0.0373315672168317  0.6744185767646513  1.0000
  O   O16       1.0  0.0695863152584835  0.537336442804893  0.3255802241154981  1.0000
  O   O17       1.0  0.2525382064973059  0.8808599115345501  0.1957275359885813  1.0000
  O   O18       1.0  0.7474542939824076  0.3808588307690783  0.8042718644514935  1.0000
  O   O19       1.0  0.2474594792222788  0.3808588307690783  0.6957287351084318  1.0000
  O   O20       1.0  0.7525401986560709  0.8808618089458448  0.3042724640114187  1.0000
  O   O21       1.0  0.45118276211450603  0.4369918465018685  0.0521473238642827  1.0000
  O   O22       1.0  0.5488212222030313  0.9369891324447508  0.9478532756956426  1.0000
  O   O23       1.0  0.0488206655239907  0.9369929272673404  0.5521449256245887  1.0000
  O   O24       1.0  0.9511861897529956  0.4369946926188105  0.4478538752555608  1.0000
  O   O25       1.0  0.2291714674970322  0.5487645510309136  0.1404666974440758  1.0000
  O   O26       1.0  0.7708339523002297  0.0487634702654418  0.8595339021158495  1.0000
  O   O27       1.0  0.270827653702284  0.0487634702654418  0.6404654983242324  1.0000
  O   O28       1.0  0.7291705886963413  0.5487636023252662  0.3595351012356929  1.0000
  O   O29       1.0  0.21032936059706492  0.9790120490869257  0.0799273333373307  1.0000
  O   O30       1.0  0.7896688818015606  0.479013814438389  0.9200714675428259  1.0000
  O   O31       1.0  0.2896726315617073  0.4790109683214467  0.5799273333373307  1.0000
  O   O32       1.0  0.7103299172760984  0.979012997792573  0.420074465342438  1.0000
  O   O33       1.0  0.4196136919526837  0.3301571548664342  0.4409883145770976  1.0000
  O   O34       1.0  0.5803845504459417  0.8301601330432008  0.5590104863030518  1.0000
  O   O35       1.0  0.0803883002060886  0.8301601330432008  0.9409877150171795  1.0000
  O   O36       1.0  0.9196128131519927  0.3301590522777289  0.0590122849828205  1.0000
  O   O37       1.0  0.32651565424146883  0.1292146578525859  0.4498174340034424  1.0000
  O   O38       1.0  0.6734825881571569  0.6292138412067629  0.5501819664366323  1.0000
  O   O39       1.0  0.1734834669578476  0.6292147899124103  0.9498168344435172  1.0000
  O   O40       1.0  0.8265190818799582  0.1292156065582333  0.0501837651164081  1.0000
  O   O41       1.0  0.9374529552023319  0.7028789372995803  0.2091432888259988  1.0000
  O   O42       1.0  0.0625481581557423  0.20287785653410853  0.7908567111740012  1.0000
  O   O43       1.0  0.5625501503145074  0.2028759591228138  0.7091426892660806  1.0000
  O   O44       1.0  0.4374523985232984  0.7028770398882855  0.2908567111740012  1.0000
