data_image0
_chemical_formula_structural       Cu2H28C36N8O8
_chemical_formula_sum              "Cu2 H28 C36 N8 O8"
_cell_length_a       9.608923782602993
_cell_length_b       9.939615847730032
_cell_length_c       10.222489992808017
_cell_angle_alpha    96.91446543080399
_cell_angle_beta     90.88842597392343
_cell_angle_gamma    116.93555821938565

_space_group_name_H-M_alt    "P 1"
_space_group_IT_number       1

loop_
  _space_group_symop_operation_xyz
  'x, y, z'

loop_
  _atom_site_type_symbol
  _atom_site_label
  _atom_site_symmetry_multiplicity
  _atom_site_fract_x
  _atom_site_fract_y
  _atom_site_fract_z
  _atom_site_occupancy
  Cu  Cu1       1.0  0.3232818260695254  0.006752701111096801  0.37338661574601434  1.0000
  Cu  Cu2       1.0  0.676718249590138  0.9932458608579469  0.6266130937212824  1.0000
  H   H1        1.0  0.24908144795633555  0.3289259164491655  0.13352530625199685  1.0000
  H   H2        1.0  0.7509217829532063  0.6710749166922199  0.8664757001722239  1.0000
  H   H3        1.0  0.2242204165865616  0.17686059785270206  0.008907302711918407  1.0000
  H   H4        1.0  0.7757849470285552  0.8231425297290118  0.9910881398914031  1.0000
  H   H5        1.0  0.18587486736468167  0.5999046414938579  0.6405823419531418  1.0000
  H   H6        1.0  0.8141153220629461  0.40009281747464354  0.35941414836228364  1.0000
  H   H7        1.0  0.17273167819563898  0.7357838646821195  0.7638864352459012  1.0000
  H   H8        1.0  0.8272688900987788  0.2642135453023898  0.23611607976088325  1.0000
  H   H9        1.0  0.10342117114097253  0.6867562766008177  0.2883154271887919  1.0000
  H   H10       1.0  0.8965799811185134  0.31324456289306823  0.7116855477300279  1.0000
  H   H11       1.0  0.07139177107956125  0.48140214299979783  0.10531056026173502  1.0000
  H   H12       1.0  0.9286077999591169  0.5185975566025434  0.89469123296972  1.0000
  H   H13       1.0  0.5022672888887031  0.8058157294744464  0.9659287901515801  1.0000
  H   H14       1.0  0.49773070812091186  0.1941828388470981  0.03407088781032291  1.0000
  H   H15       1.0  0.5153238453128849  0.994312962256437  0.15548452236777172  1.0000
  H   H16       1.0  0.48467519581624424  0.0056856086293493  0.8445132156253623  1.0000
  H   H17       1.0  0.16040206181929761  0.39566005655929376  0.913424774203449  1.0000
  H   H18       1.0  0.8395969721180878  0.6043385057157523  0.08657589737187983  1.0000
  H   H19       1.0  0.47549308541171337  0.6223562543333757  0.8221519606023053  1.0000
  H   H20       1.0  0.5245059461284285  0.37764230507141866  0.17784968883375296  1.0000
  H   H21       1.0  0.11771438906303903  0.21858760504778024  0.7503619700028069  1.0000
  H   H22       1.0  0.8822856865966175  0.7814109569212634  0.24963773946448245  1.0000
  H   H23       1.0  0.115066284123678  0.02892522031800131  0.574306821572435  1.0000
  H   H24       1.0  0.8849338336052741  0.9710756280926353  0.4256921818722292  1.0000
  H   H25       1.0  0.561052652237521  0.31732681787462275  0.4782822038759493  1.0000
  H   H26       1.0  0.43894697045943337  0.6826751796503036  0.5217149718899564  1.0000
  H   H27       1.0  0.5870944973439266  0.5222766759359133  0.6541898734902463  1.0000
  H   H28       1.0  0.41290557591848653  0.47772188316287884  0.3458108138377798  1.0000
  C   C1        1.0  0.1988390100564104  0.11664996840783465  0.20704464829902494  1.0000
  C   C2        1.0  0.8011620724479797  0.8833463154243618  0.7929518715006695  1.0000
  C   C3        1.0  0.17877172824083226  0.2059272367019744  0.10047440759697684  1.0000
  C   C4        1.0  0.8212315098604465  0.7940736050501516  0.8995236652450491  1.0000
  C   C5        1.0  0.0169651304655716  0.1718858833938128  0.0735864251457627  1.0000
  C   C6        1.0  0.9830281793343828  0.8281115689161782  0.9264091345670241  1.0000
  C   C7        1.0  0.26347747773370134  0.822411889806837  0.5836317060245408  1.0000
  C   C8        1.0  0.7365221281825214  0.17759008762634923  0.4163723147664841  1.0000
  C   C9        1.0  0.15235186707730017  0.6925165481284311  0.6574916643082391  1.0000
  C   C10       1.0  0.847644088557054  0.30748430724670345  0.342509231847096  1.0000
  C   C11       1.0  0.9879035740160802  0.6324637376800483  0.6161373155328961  1.0000
  C   C12       1.0  0.012102921570473855  0.3675462058667024  0.3838697148054707  1.0000
  C   C13       1.0  0.18761941119725387  0.7068475235113283  0.21369256867682657  1.0000
  C   C14       1.0  0.8123811991664525  0.2931521729147661  0.7863092403073255  1.0000
  C   C15       1.0  0.17193054333184685  0.5937660715006248  0.11223502807502685  1.0000
  C   C16       1.0  0.8280700694291027  0.4062336277957145  0.8877658030483959  1.0000
  C   C17       1.0  0.2850827641284895  0.6240264087588091  0.019346507153002842  1.0000
  C   C18       1.0  0.7149167672381437  0.3759710072721917  0.9806550142403554  1.0000
  C   C19       1.0  0.41130439860884144  0.7722080269889491  0.035208358077333905  1.0000
  C   C20       1.0  0.588694137899303  0.22779168153014243  0.9647914636799658  1.0000
  C   C21       1.0  0.41905424654287055  0.8791847916690899  0.13914755223936487  1.0000
  C   C22       1.0  0.5809458315140431  0.1208137731702053  0.8608511793671954  1.0000
  C   C23       1.0  0.26696263866408293  0.5031516471743559  0.9144113017305532  1.0000
  C   C24       1.0  0.7330348212442388  0.49684578381989325  0.08558725457520923  1.0000
  C   C25       1.0  0.3704111136531835  0.5139067984284935  0.8229831576912688  1.0000
  C   C26       1.0  0.6295889548147359  0.48609175492980944  0.17701948535821543  1.0000
  C   C27       1.0  0.35481296352757136  0.3914268742431873  0.7206827079943993  1.0000
  C   C28       1.0  0.6451886488863607  0.608570538305564  0.2793178670436234  1.0000
  C   C29       1.0  0.22105167590874694  0.24891081338510204  0.6950621988967927  1.0000
  C   C30       1.0  0.778951020296752  0.7510888852992326  0.3049367080105655  1.0000
  C   C31       1.0  0.21717937681588503  0.14001887924820272  0.5947904122300116  1.0000
  C   C32       1.0  0.7828222848590798  0.8599808283528747  0.40520652320318373  1.0000
  C   C33       1.0  0.4668577089925278  0.30079502044293355  0.5421019482084902  1.0000
  C   C34       1.0  0.5331403276891252  0.699205831449952  0.45789800159150945  1.0000
  C   C35       1.0  0.47962539744052884  0.4150221386822325  0.6411165866859181  1.0000
  C   C36       1.0  0.5203747154939292  0.5849787039879005  0.3588843724802048  1.0000
  N   N1        1.0  0.30965247640541804  0.8473277075623218  0.22777157221980107  1.0000
  N   N2        1.0  0.6903465599292177  0.15267085758296872  0.7722281214947986  1.0000
  N   N3        1.0  0.33807498440425837  0.16497724048074505  0.5190974887553494  1.0000
  N   N4        1.0  0.6619240939996659  0.835023611106138  0.48090149893661777  1.0000
  N   N5        1.0  0.8551502337607674  0.5836209380819927  0.5836614709556189  1.0000
  N   N6        1.0  0.14484055533150553  0.4163822052647392  0.4163435297172669  1.0000
  N   N7        1.0  0.8864360551052215  0.14452735383286353  0.053486900510996804  1.0000
  N   N8        1.0  0.11357656700435122  0.8554757314233614  0.9465154973863223  1.0000
  O   O1        1.0  0.34281282062544693  0.150470418214681  0.23642055087159267  1.0000
  O   O2        1.0  0.6571861760371434  0.8495258633592757  0.7635788710049028  1.0000
  O   O3        1.0  0.08232598617530582  0.022716060994795808  0.2549340518419072  1.0000
  O   O4        1.0  0.917674066593044  0.9772802374946465  0.7450585407621662  1.0000
  O   O5        1.0  0.20134423299274584  0.8419024313940968  0.4805533824793785  1.0000
  O   O6        1.0  0.7986605394655584  0.15809725806749245  0.5194465337940954  1.0000
  O   O7        1.0  0.4022616373439121  0.8939420030631597  0.63010831873018  1.0000
  O   O8        1.0  0.5977353781095329  0.10606110974507743  0.3699006879018115  1.0000
