data_image0
_chemical_formula_structural       Hg4H28C28Se2S8N16
_chemical_formula_sum              "Hg4 H28 C28 Se2 S8 N16"
_cell_length_a       9.402323407286492
_cell_length_b       10.414015124235188
_cell_length_c       12.894207887452549
_cell_angle_alpha    111.04485698085482
_cell_angle_beta     98.11423337701733
_cell_angle_gamma    91.74825728834256

_space_group_name_H-M_alt    "P 1"
_space_group_IT_number       1

loop_
  _space_group_symop_operation_xyz
  'x, y, z'

loop_
  _atom_site_type_symbol
  _atom_site_label
  _atom_site_symmetry_multiplicity
  _atom_site_fract_x
  _atom_site_fract_y
  _atom_site_fract_z
  _atom_site_occupancy
  Hg  Hg1       1.0  0.7978342303068684  0.3502843262721598  0.775564817188545  1.0000
  Hg  Hg2       1.0  0.20216655953542784  0.649717885957095  0.22443535206750892  1.0000
  Hg  Hg3       1.0  0.34024269150000913  0.17988826383772494  0.924474510320486  1.0000
  Hg  Hg4       1.0  0.6597587022638789  0.8201087886668005  0.07552578324498418  1.0000
  H   H1        1.0  0.003768932895070551  0.6481850588875774  0.8489801266303442  1.0000
  H   H2        1.0  0.9962327407688961  0.35181508717229787  0.15101953620885666  1.0000
  H   H3        1.0  0.6097125118219252  0.14953783751128918  0.5214742853067659  1.0000
  H   H4        1.0  0.39028827802037813  0.8504643747179657  0.4785258839492881  1.0000
  H   H5        1.0  0.0284262590204207  0.18256410364082135  0.5832616455000588  1.0000
  H   H6        1.0  0.9715733584228444  0.8174370736514189  0.41673733120402534  1.0000
  H   H7        1.0  0.057207462466081396  0.2391713619333231  0.4722511898116365  1.0000
  H   H8        1.0  0.9427921549771837  0.7608298153589172  0.5277477868924475  1.0000
  H   H9        1.0  0.8829794517498823  0.2369125213392634  0.5102238183826555  1.0000
  H   H10       1.0  0.11702007335749441  0.7630876256068645  0.48977562741852393  1.0000
  H   H11       1.0  0.12544024721832872  0.8441466659564442  0.7739988118129159  1.0000
  H   H12       1.0  0.8745613312173216  0.15585244724029929  0.22600054355834928  1.0000
  H   H13       1.0  0.2673982058630671  0.775176114657313  0.6982128444683223  1.0000
  H   H14       1.0  0.7326034706933271  0.22482403391957465  0.3017875949359022  1.0000
  H   H15       1.0  0.2744466161022316  0.7849327843080046  0.8393823752536487  1.0000
  H   H16       1.0  0.7255539861758676  0.21506736471201285  0.16061795563157222  1.0000
  H   H17       1.0  0.4810832639033719  0.5926251816325631  0.8069725047307085  1.0000
  H   H18       1.0  0.5189151869257101  0.4073749657566878  0.19302683255146735  1.0000
  H   H19       1.0  0.5038091071311327  0.6627155578850858  0.7034380032784423  1.0000
  H   H20       1.0  0.4961905160969877  0.33728562444117927  0.29656252655570353  1.0000
  H   H21       1.0  0.6554562350522415  0.6116460388100575  0.7742950420340545  1.0000
  H   H22       1.0  0.34454212344095947  0.3883530782330879  0.2257047643452238  1.0000
  H   H23       1.0  0.42044012422537236  0.08706034583496347  0.3389725795185753  1.0000
  H   H24       1.0  0.5795605674961805  0.912940831014147  0.6610265057045194  1.0000
  H   H25       1.0  0.28087742177743275  0.20016596512976287  0.3415620406988181  1.0000
  H   H26       1.0  0.7191231776082389  0.7998341813732349  0.6584375136213719  1.0000
  H   H27       1.0  0.2770192287120564  0.0846422837792034  0.4146505931543343  1.0000
  H   H28       1.0  0.7229824420594894  0.9153578597636522  0.5853482931198284  1.0000
  C   C1        1.0  0.03628391354178011  0.4017903985363346  0.6247274138141987  1.0000
  C   C2        1.0  0.9637145372873019  0.5982097488529234  0.37527192346797006  1.0000
  C   C3        1.0  0.9990186961657412  0.25745567048850404  0.5435027555724046  1.0000
  C   C4        1.0  0.0009809212775167225  0.7425455068037294  0.4564962211316723  1.0000
  C   C5        1.0  0.13479399735528827  0.505520635634781  0.6217591636120969  1.0000
  C   C6        1.0  0.8652066020303832  0.4944795108682243  0.3782403907080931  1.0000
  C   C7        1.0  0.1264216102104072  0.6238158173856119  0.7166180154125923  1.0000
  C   C8        1.0  0.8735788968393832  0.3761832987712737  0.28338200800470037  1.0000
  C   C9        1.0  0.20239036861363502  0.7645559766983041  0.7592591945853681  1.0000
  C   C10       1.0  0.7976113079427661  0.23544417187858355  0.24074124481886364  1.0000
  C   C11       1.0  0.5159653527028993  0.4462561544460184  0.6481719043831189  1.0000
  C   C12       1.0  0.4840341724044776  0.5537439925001095  0.3518275414180605  1.0000
  C   C13       1.0  0.5408929025458631  0.5851665454666984  0.7379722686495779  1.0000
  C   C14       1.0  0.45910662256151363  0.41483360147942955  0.2620271771516015  1.0000
  C   C15       1.0  0.4033980889280429  0.39479356219897704  0.5547504218598147  1.0000
  C   C16       1.0  0.5966026056859377  0.6052076171671529  0.44524943992831095  1.0000
  C   C17       1.0  0.4297644694871251  0.2586544824764943  0.4946413746005403  1.0000
  C   C18       1.0  0.5702362222344276  0.7413466943726162  0.5053577106225473  1.0000
  C   C19       1.0  0.34824639586715717  0.15189098726909822  0.39129847314876526  1.0000
  C   C20       1.0  0.6517542958544026  0.848110189580012  0.6087006120743294  1.0000
  C   C21       1.0  0.6561769604202609  0.3977421673589773  0.9955423215576142  1.0000
  C   C22       1.0  0.34382550762192204  0.6022548847024111  0.004458080526859471  1.0000
  C   C23       1.0  0.9499443850436647  0.19223392749108104  0.9171309191892473  1.0000
  C   C24       1.0  0.05004939065140953  0.8077620927351887  0.08286753071020304  1.0000
  C   C25       1.0  0.4052111790283916  0.049128720131740494  0.10972833982193456  1.0000
  C   C26       1.0  0.5947880632864795  0.9508683307420184  0.8902709601404832  1.0000
  C   C27       1.0  0.3035271560950505  0.09464159831956209  0.655735996457018  1.0000
  C   C28       1.0  0.6964712947340316  0.905358549069696  0.344263340825158  1.0000
  Se  Se1       1.0  0.25236457340251656  0.4919151376254404  0.5097508126032506  1.0000
  Se  Se2       1.0  0.7476349488124328  0.5080850068036752  0.49024785663289777  1.0000
  S   S1        1.0  0.7767721975435007  0.5046492840089769  0.9796598343432447  1.0000
  S   S2        1.0  0.22322733334873124  0.4953508679711829  0.020341164588003734  1.0000
  S   S3        1.0  0.8768810733084036  0.12173399944217778  0.783361699614495  1.0000
  S   S4        1.0  0.1231032474780633  0.8782641106346034  0.21664260107001343  1.0000
  S   S5        1.0  0.2529741875258082  0.10225325303883177  0.06495384095286735  1.0000
  S   S6        1.0  0.7470273966947044  0.8977458651919433  0.9350470675484668  1.0000
  S   S7        1.0  0.2942985878211317  0.24447145200953457  0.75795202826432  1.0000
  S   S8        1.0  0.7056976250079002  0.7555276684368762  0.24204833764196804  1.0000
  N   N1        1.0  0.9741486772451676  0.4544169329989528  0.7171578800660608  1.0000
  N   N2        1.0  0.02585201736881969  0.54558424636717  0.2828419817220576  1.0000
  N   N3        1.0  0.02866063908693661  0.5879221491422795  0.7707098421824409  1.0000
  N   N4        1.0  0.9713410374694574  0.4120779994346078  0.22929059722179077  1.0000
  N   N5        1.0  0.6044332572549465  0.3460259120133243  0.6447117255999754  1.0000
  N   N6        1.0  0.39556636308074633  0.6539752677959284  0.35528802766913953  1.0000
  N   N7        1.0  0.5503700312920755  0.23339993101460965  0.5520694037223135  1.0000
  N   N8        1.0  0.4496306604294773  0.7666012458345008  0.4479296815007741  1.0000
  N   N9        1.0  0.5724383432223801  0.3226523105577357  0.011297178232325693  1.0000
  N   N10       1.0  0.42756412481980277  0.67734474150366  0.9887032238521481  1.0000
  N   N11       1.0  0.0033568789100116053  0.2420070128728611  0.012669186539966383  1.0000
  N   N12       1.0  0.9966458777095396  0.7579931402949213  0.9873329145133379  1.0000
  N   N13       1.0  0.511116143921704  0.0139316585188425  0.14859303382586822  1.0000
  N   N14       1.0  0.4888864193487875  0.9860664264056779  0.8514076757265339  1.0000
  N   N15       1.0  0.3070732909884484  0.9923974081916285  0.5777201409856898  1.0000
  N   N16       1.0  0.6929283797830902  0.007602735351227399  0.42227874528848003  1.0000
