data_image0
_chemical_formula_structural       Cu8H72C80I8N16
_chemical_formula_sum              "Cu8 H72 C80 I8 N16"
_cell_length_a       13.064473257286327
_cell_length_b       17.198941099305863
_cell_length_c       17.198896472927935
_cell_angle_alpha    81.72084550675706
_cell_angle_beta     67.67689157646137
_cell_angle_gamma    67.67701547926208

_space_group_name_H-M_alt    "P 1"
_space_group_IT_number       1

loop_
  _space_group_symop_operation_xyz
  'x, y, z'

loop_
  _atom_site_type_symbol
  _atom_site_label
  _atom_site_symmetry_multiplicity
  _atom_site_fract_x
  _atom_site_fract_y
  _atom_site_fract_z
  _atom_site_occupancy
  Cu  Cu1       1.0  0.3647887353022055  0.24995512411204152  0.7705570354657995  1.0000
  Cu  Cu2       1.0  0.8852839732947754  0.2500571600707957  0.7294398671294573  1.0000
  Cu  Cu3       1.0  0.6352115169604812  0.22944393559563986  0.7500447953469377  1.0000
  Cu  Cu4       1.0  0.11471728087766991  0.2705596714378871  0.7499420356629899  1.0000
  Cu  Cu5       1.0  0.6352041997585546  0.7500454892249306  0.22945030708568473  1.0000
  Cu  Cu6       1.0  0.11471805674038653  0.7499415655548987  0.27055441865923074  1.0000
  Cu  Cu7       1.0  0.3647965626416934  0.7705497625715194  0.2499550412046574  1.0000
  Cu  Cu8       1.0  0.885282800412483  0.7294453404924822  0.2500584822999483  1.0000
  H   H1        1.0  0.20161141625417375  0.1895743097133504  0.9528463538956091  1.0000
  H   H2        1.0  0.24964168985858468  0.15411301294764707  0.8495195477939889  1.0000
  H   H3        1.0  0.27865972408835665  0.0075999405320744005  0.8976642724157173  1.0000
  H   H4        1.0  0.133866781437419  0.07319585237362959  0.9557611711188586  1.0000
  H   H5        1.0  0.8437741405321901  0.3106117043892099  0.5473582365219161  1.0000
  H   H6        1.0  0.7530179513438142  0.34607344033988596  0.6506789339205171  1.0000
  H   H7        1.0  0.683568054067457  0.49258126424594917  0.6024811152693843  1.0000
  H   H8        1.0  0.6627068903454186  0.4269009415822396  0.5443300332109474  1.0000
  H   H9        1.0  0.6543084755073137  0.04740649134587469  0.6895743767705299  1.0000
  H   H10       1.0  0.5991115099566784  0.15068381322594604  0.6540264523474519  1.0000
  H   H11       1.0  0.6760912372390705  0.10235955094769619  0.5075934048239079  1.0000
  H   H12       1.0  0.5895318692357135  0.04426283638356669  0.573297539921164  1.0000
  H   H13       1.0  0.8912178446544554  0.4526354476448943  0.8105174041072304  1.0000
  H   H14       1.0  0.9037229372359119  0.3493403263112142  0.8459890761833223  1.0000
  H   H15       1.0  0.7860286640488922  0.3976480472824447  0.9924844123224263  1.0000
  H   H16       1.0  0.7070284644868676  0.455713158486695  0.926801987718342  1.0000
  H   H17       1.0  0.15622750784469738  0.45264060526342575  0.6893886209975976  1.0000
  H   H18       1.0  0.24698173121002037  0.34932049510771884  0.6539250711327399  1.0000
  H   H19       1.0  0.3164322683320149  0.39751932377519233  0.5074183291608066  1.0000
  H   H20       1.0  0.337293433688103  0.4556703708523671  0.5730987756615918  1.0000
  H   H21       1.0  0.7983930149303262  0.047153450854935386  0.8104252256707484  1.0000
  H   H22       1.0  0.750361578558646  0.15047814893180336  0.845887251908323  1.0000
  H   H23       1.0  0.7213425012906641  0.10233421559458117  0.9924005340920345  1.0000
  H   H24       1.0  0.8661348698587827  0.0442361574258214  0.9268044857202116  1.0000
  H   H25       1.0  0.10878443497372092  0.189482311651247  0.5473639301839626  1.0000
  H   H26       1.0  0.09627606446269964  0.15401026309234567  0.6506591647524403  1.0000
  H   H27       1.0  0.21397052080284587  0.0075159118476832995  0.6023518087331184  1.0000
  H   H28       1.0  0.2929722982692553  0.0731964967262115  0.5442870473978374  1.0000
  H   H29       1.0  0.3456932735138093  0.3104250265193541  0.9525949234457513  1.0000
  H   H30       1.0  0.400888395344097  0.34597269037191586  0.8493168273454829  1.0000
  H   H31       1.0  0.3239088182238276  0.4924050284237039  0.8976393860937082  1.0000
  H   H32       1.0  0.4104674433234828  0.4267032587444107  0.9557375437760102  1.0000
  H   H33       1.0  0.7983873906324064  0.8104250453085555  0.04715329904862382  1.0000
  H   H34       1.0  0.7503565334404029  0.8458863421701751  0.1504806857381098  1.0000
  H   H35       1.0  0.7213411570041544  0.9923987860483408  0.10233610278063307  1.0000
  H   H36       1.0  0.8661332376905478  0.9268022454819372  0.04423790103707143  1.0000
  H   H37       1.0  0.15623087377840505  0.6893857646724653  0.45263947631875834  1.0000
  H   H38       1.0  0.24698777263672148  0.6539202573208697  0.34931747537867613  1.0000
  H   H39       1.0  0.3164370235418729  0.5074149486041007  0.3975221061906566  1.0000
  H   H40       1.0  0.33729255734997565  0.5730971568778356  0.4556729050208049  1.0000
  H   H41       1.0  0.34569114523885247  0.9525947492482415  0.31042517745468245  1.0000
  H   H42       1.0  0.40089422200357205  0.8493180551026851  0.3459683582553339  1.0000
  H   H43       1.0  0.3239114366436551  0.8976379182433191  0.49240498762429036  1.0000
  H   H44       1.0  0.41047225323790587  0.9557352615635322  0.4267023963515656  1.0000
  H   H45       1.0  0.1087795758034247  0.5473701926957303  0.18948215081946532  1.0000
  H   H46       1.0  0.0962735701137092  0.6506659420247871  0.15400695257153532  1.0000
  H   H47       1.0  0.21396919074073398  0.6023531929636545  0.007512776806478889  1.0000
  H   H48       1.0  0.2929681360339202  0.5442905960274159  0.07319602318339953  1.0000
  H   H49       1.0  0.8437679796833847  0.5473618928494377  0.3106135955833055  1.0000
  H   H50       1.0  0.753010796352669  0.6506832605863622  0.3460802893720683  1.0000
  H   H51       1.0  0.6835619569475141  0.6024775179377997  0.4925863078893329  1.0000
  H   H52       1.0  0.6627071781437194  0.5443277272887385  0.4269021800224237  1.0000
  H   H53       1.0  0.20160953894755812  0.9528477898953863  0.18957553247502554  1.0000
  H   H54       1.0  0.24963930557262162  0.8495205777757561  0.15411394466001846  1.0000
  H   H55       1.0  0.27865775114805297  0.8976657680562639  0.007599841304745809  1.0000
  H   H56       1.0  0.13386687015951546  0.955763197752283  0.07319637114458294  1.0000
  H   H57       1.0  0.891219902578115  0.8105176713282204  0.45263238109769344  1.0000
  H   H58       1.0  0.9037279557234825  0.8459903482951957  0.34933632525744684  1.0000
  H   H59       1.0  0.786032652612569  0.9924840714507538  0.39764648509627415  1.0000
  H   H60       1.0  0.7070326709751312  0.9268022293099848  0.4557100850553868  1.0000
  H   H61       1.0  0.6543081491388419  0.6895749570668174  0.04740511214726683  1.0000
  H   H62       1.0  0.5991070380015201  0.6540310643340134  0.15068234473200445  1.0000
  H   H63       1.0  0.6760872979580484  0.5075962126187291  0.102362830286765  1.0000
  H   H64       1.0  0.5895286728583997  0.5732979822980155  0.04426467260446287  1.0000
  H   H65       1.0  0.19427764356454702  0.07513554362913057  0.0751338686617657  1.0000
  H   H66       1.0  0.8443380290071189  0.4250522020535925  0.4250516646479951  1.0000
  H   H67       1.0  0.7693660921836099  0.924935096124308  0.5750353217261762  1.0000
  H   H68       1.0  0.7693643875904072  0.5750371348332521  0.9249367637317009  1.0000
  H   H69       1.0  0.1556598830037358  0.5749477817265856  0.5749493903563022  1.0000
  H   H70       1.0  0.8057217048821737  0.9248650683985388  0.9248654446791279  1.0000
  H   H71       1.0  0.2306371622479515  0.07506237284363952  0.42496166876216535  1.0000
  H   H72       1.0  0.23063254548981138  0.4249659919085431  0.0750661753017425  1.0000
  C   C1        1.0  0.3861531478801296  0.12082179895283218  0.9007336218206492  1.0000
  C   C2        1.0  0.44004187589339944  0.0599597537627119  0.9527823764786164  1.0000
  C   C3        1.0  0.2613622448680954  0.1353725827699961  0.9104051255589953  1.0000
  C   C4        1.0  0.22774933329497288  0.05813360838723009  0.9450980119607311  1.0000
  C   C5        1.0  0.9075260550236661  0.37930067871666034  0.5993993140263569  1.0000
  C   C6        1.0  0.9527027632534127  0.440087528083822  0.5472953247369218  1.0000
  C   C7        1.0  0.806868160234387  0.36482136595561326  0.5897932539558467  1.0000
  C   C8        1.0  0.7307497315030886  0.44203820891630125  0.5550609024840514  1.0000
  C   C9        1.0  0.7868393759200034  0.09936213119533477  0.6208192280001867  1.0000
  C   C10       1.0  0.8927944584334567  0.047215525160361  0.5600021951405908  1.0000
  C   C11       1.0  0.6716844006381064  0.08975971041552099  0.6353306667558345  1.0000
  C   C12       1.0  0.6727365105092319  0.05497735977548498  0.5581431357407709  1.0000
  C   C13       1.0  0.006979961775314644  0.40061652127251784  0.8792341800441434  1.0000
  C   C14       1.0  1.676728265187682e-05  0.45272188308803146  0.9400613357993493  1.0000
  C   C15       1.0  0.8967074476989436  0.4102405067903874  0.8647408892339428  1.0000
  C   C16       1.0  0.785793969237673  0.44503153286021296  0.9419370455537365  1.0000
  C   C17       1.0  0.0924719274106635  0.4006007507739681  0.6207015767328202  1.0000
  C   C18       1.0  0.04729583117353515  0.4527052741793868  0.5599129564455084  1.0000
  C   C19       1.0  0.19313152864621208  0.4102059236495066  0.6351773548098906  1.0000
  C   C20       1.0  0.26924962866805635  0.4449384305453421  0.557963136849594  1.0000
  C   C21       1.0  0.6138509257808736  0.09926249764186677  0.8791776942358211  1.0000
  C   C22       1.0  0.5599590209021056  0.04721620295668319  0.9400424340823221  1.0000
  C   C23       1.0  0.7386404142657026  0.08959339457138069  0.8646266599744337  1.0000
  C   C24       1.0  0.7722518321361775  0.054900615915528285  0.941866807780336  1.0000
  C   C25       1.0  0.9930210237705808  0.12076574364052559  0.5993822372672852  1.0000
  C   C26       1.0  0.9999827730783083  0.05993896571434479  0.5472765948776441  1.0000
  C   C27       1.0  0.10329421704938078  0.13525919490610516  0.5897583471160673  1.0000
  C   C28       1.0  0.21420622457598876  0.05806328383596341  0.5549683208982686  1.0000
  C   C29       1.0  0.21316055884816615  0.37917848653093233  0.9006394551673083  1.0000
  C   C30       1.0  0.10720701950159367  0.4399974907724983  0.9527839926951387  1.0000
  C   C31       1.0  0.3283161531261384  0.3646678695711997  0.9102408931753275  1.0000
  C   C32       1.0  0.32726312869560537  0.44185636231540576  0.9450223933084702  1.0000
  C   C33       1.0  0.61384449183128  0.8791775562608919  0.09926719229932952  1.0000
  C   C34       1.0  0.5599577838414688  0.9400402296025874  0.047216115390078535  1.0000
  C   C35       1.0  0.7386368793841456  0.8646261438438498  0.0895953486570064  1.0000
  C   C36       1.0  0.7722512754980854  0.941864489626731  0.054902122351300764  1.0000
  C   C37       1.0  0.0924745568081562  0.6206974194244451  0.4006016416576657  1.0000
  C   C38       1.0  0.047296636337023336  0.5599118272236224  0.45270621173538933  1.0000
  C   C39       1.0  0.19313423831013665  0.6351754745417961  0.4102040762360418  1.0000
  C   C40       1.0  0.26924998241424436  0.5579605178559318  0.4449406338880523  1.0000
  C   C41       1.0  0.21316410878355166  0.9006372234407394  0.3791782443570072  1.0000
  C   C42       1.0  0.10721024155024127  0.9527825724365256  0.43999551780029844  1.0000
  C   C43       1.0  0.32831850047786293  0.9102396443164692  0.36466738618923966  1.0000
  C   C44       1.0  0.3272670192605317  0.9450207378860681  0.44185491700388013  1.0000
  C   C45       1.0  0.9930169171224323  0.5993878620623434  0.1207657144858914  1.0000
  C   C46       1.0  0.9999807822963407  0.5472799860747343  0.05993831754572902  1.0000
  C   C47       1.0  0.10328970045949852  0.5897645049837833  0.13525842480842704  1.0000
  C   C48       1.0  0.21420173640738946  0.5549728504121774  0.05806236740806978  1.0000
  C   C49       1.0  0.907523566194932  0.5994017475931911  0.3793022825920501  1.0000
  C   C50       1.0  0.9527018146153806  0.5472940812886335  0.44008950041843786  1.0000
  C   C51       1.0  0.8068636865824247  0.5897959458968955  0.36482462088668643  1.0000
  C   C52       1.0  0.7307486488134102  0.5550596679794068  0.44204014118592017  1.0000
  C   C53       1.0  0.38614995531163754  0.9007362289385411  0.12082268096053637  1.0000
  C   C54       1.0  0.44003737061797216  0.9527856667793556  0.05996084455446031  1.0000
  C   C55       1.0  0.2613601524999111  0.9104059605442459  0.13537371532213885  1.0000
  C   C56       1.0  0.22774842334129616  0.9450993678624614  0.058134388988427994  1.0000
  C   C57       1.0  0.006983673174353544  0.8792323538292093  0.40061465430161297  1.0000
  C   C58       1.0  2.1929944139554846e-05  0.9400591320096934  0.45272193943522865  1.0000
  C   C59       1.0  0.8967119193701832  0.8647395309382659  0.4102376241614041  1.0000
  C   C60       1.0  0.7857999118435756  0.9419354420084076  0.4450276503792025  1.0000
  C   C61       1.0  0.7868355542949602  0.620822754384349  0.0993619398411808  1.0000
  C   C62       1.0  0.8927899495285627  0.5600043786133286  0.04721706260979624  1.0000
  C   C63       1.0  0.6716820311841616  0.6353327427754395  0.08976040271329562  1.0000
  C   C64       1.0  0.672733256746966  0.55814550716633  0.054979242584344876  1.0000
  C   C65       1.0  0.3787131757346032  0.013292864957129799  0.013292013399542642  1.0000
  C   C66       1.0  0.2527190992713457  0.026072939407789892  0.02607193784104571  1.0000
  C   C67       1.0  0.9051187851057846  0.48686783795530175  0.48686777307609214  1.0000
  C   C68       1.0  0.8046338005399818  0.4741202714444838  0.47412263048950376  1.0000
  C   C69       1.0  0.8919839323046402  0.9867504411900113  0.5132504993342479  1.0000
  C   C70       1.0  0.7787275688516995  0.9740082119277743  0.5260067249882212  1.0000
  C   C71       1.0  0.8919789584140575  0.5132519520520872  0.9867527524846482  1.0000
  C   C72       1.0  0.7787246085682681  0.5260078302480338  0.9740095225594704  1.0000
  C   C73       1.0  0.09488124009969565  0.5131302601545683  0.5131329418238125  1.0000
  C   C74       1.0  0.19536564411666288  0.5258778268884468  0.5258794863702647  1.0000
  C   C75       1.0  0.6212856311519775  0.9867064900647831  0.9867076395446904  1.0000
  C   C76       1.0  0.7472806116072306  0.9739257872372916  0.973928777159074  1.0000
  C   C77       1.0  0.10802108504471145  0.013247027998808399  0.48674803487841  1.0000
  C   C78       1.0  0.22127474867667712  0.025991142900124897  0.4739919085447256  1.0000
  C   C79       1.0  0.1080153558613403  0.486750545998298  0.013248982528026003  1.0000
  C   C80       1.0  0.2212711902479612  0.47399403920246636  0.025991872549234053  1.0000
  I   I1        1.0  0.4999999760091144  0.3315477682665389  0.6684517719768622  1.0000
  I   I2        1.0  0.9999996196297044  0.16846194037681528  0.8315388195414499  1.0000
  I   I3        1.0  0.6684651859142072  0.3315235222419163  0.8315741123487542  1.0000
  I   I4        1.0  0.3315351235998917  0.16842660754731748  0.6684766343135139  1.0000
  I   I5        1.0  0.5000006960826867  0.6684490735357967  0.33155387095454364  1.0000
  I   I6        1.0  0.9999988592116581  0.8315428263501304  0.1684586656834313  1.0000
  I   I7        1.0  0.33153712553666287  0.6684758323316796  0.16842287844021805  1.0000
  I   I8        1.0  0.6684620757022655  0.8315771475066358  0.3315249028602808  1.0000
  N   N1        1.0  0.4430866673137217  0.16538721569241227  0.8435457476601871  1.0000
  N   N2        1.0  0.9519549024477456  0.334649982558865  0.656509849471192  1.0000
  N   N3        1.0  0.7865800726089487  0.15654722058202708  0.6654179128386559  1.0000
  N   N4        1.0  0.10849303835338715  0.34346055304529693  0.8346010527416257  1.0000
  N   N5        1.0  0.04804553039075871  0.34349153680072675  0.6653498045641941  1.0000
  N   N6        1.0  0.5569159591837828  0.1564538490889049  0.8346114920668272  1.0000
  N   N7        1.0  0.8915065266867116  0.16540015131955235  0.6565365112364533  1.0000
  N   N8        1.0  0.2134193921434075  0.3345803148041355  0.8434535439314602  1.0000
  N   N9        1.0  0.5569142137787892  0.8346115108880028  0.15645462753617065  1.0000
  N   N10       1.0  0.04804539201842303  0.6653487439903073  0.3434902849410548  1.0000
  N   N11       1.0  0.21342260431254073  0.843450248736133  0.33458130098153316  1.0000
  N   N12       1.0  0.8915047865638072  0.6565419448110745  0.16539966285976254  1.0000
  N   N13       1.0  0.9519523456701505  0.6565097043354199  0.33465313416861864  1.0000
  N   N14       1.0  0.4430831681072078  0.8435448776520856  0.1653898035211654  1.0000
  N   N15       1.0  0.10849727234374727  0.8345985747813104  0.34346096102053286  1.0000
  N   N16       1.0  0.7865784808787525  0.6654209262048669  0.15654857342936174  1.0000
