data_image0
_chemical_formula_structural       Cu2H38C34N18
_chemical_formula_sum              "Cu2 H38 C34 N18"
_cell_length_a       8.164501503339581
_cell_length_b       10.517827513409149
_cell_length_c       11.591345860152455
_cell_angle_alpha    63.94388577978091
_cell_angle_beta     88.51431294550738
_cell_angle_gamma    76.74045830394236

_space_group_name_H-M_alt    "P 1"
_space_group_IT_number       1

loop_
  _space_group_symop_operation_xyz
  'x, y, z'

loop_
  _atom_site_type_symbol
  _atom_site_label
  _atom_site_symmetry_multiplicity
  _atom_site_fract_x
  _atom_site_fract_y
  _atom_site_fract_z
  _atom_site_occupancy
  Cu  Cu1       1.0  0.7388407393241324  0.4092556191413479  0.4107616838065269  1.0000
  Cu  Cu2       1.0  0.3178864807158348  0.6237875161523763  0.2738851836326431  1.0000
  H   H1        1.0  0.9456925147726949  0.3156034181609257  0.6075125853822457  1.0000
  H   H2        1.0  0.4913309813203242  0.7023108773583289  0.3970042573255412  1.0000
  H   H3        1.0  0.7142709505250197  0.9385854227442607  0.3631321650089703  1.0000
  H   H4        1.0  0.45786059309854477  0.33077922643396823  0.22559629932293024  1.0000
  H   H5        1.0  0.540023362251361  0.19304102796127146  0.17388484781989186  1.0000
  H   H6        1.0  0.6436526577870938  0.3340128211363903  0.14377996262916073  1.0000
  H   H7        1.0  0.049685726162216795  0.8184083729190165  0.6308115464913655  1.0000
  H   H8        1.0  0.8957549879396468  0.7446916413993633  0.5926302541062044  1.0000
  H   H9        1.0  0.8590851553733787  0.8123252303420969  0.709284452690845  1.0000
  H   H10       1.0  0.9360437924530771  0.039112818277921194  0.7010298462486306  1.0000
  H   H11       1.0  0.05207112433583922  0.1303845243570692  0.5684911962208403  1.0000
  H   H12       1.0  0.6248244933821853  0.2225173546120089  0.6747493821385931  1.0000
  H   H13       1.0  0.6602633531326704  0.38718378728055564  0.6624998567561491  1.0000
  H   H14       1.0  0.7170843424155537  0.9978180217340763  0.8616032587299928  1.0000
  H   H15       1.0  0.8192615635794737  0.8646039326256627  0.09239519964337711  1.0000
  H   H16       1.0  0.9256970224689883  0.9902566276137819  0.20070144679917945  1.0000
  H   H17       1.0  0.9968672470136966  0.21013345958592566  0.19059519584549633  1.0000
  H   H18       1.0  0.04659637867826662  0.4571499944566213  0.06080235221396178  1.0000
  H   H19       1.0  0.9857415409965782  0.578031080240514  0.8235971954364133  1.0000
  H   H20       1.0  0.8622503527203733  0.46392884950130775  0.7140588183532798  1.0000
  H   H21       1.0  0.1918436046577838  0.06639993103948431  0.8066390979082387  1.0000
  H   H22       1.0  0.22278637030975557  0.6487554201188174  0.9734626660454568  1.0000
  H   H23       1.0  0.13378454954044372  0.8096031403000908  0.8311781577562131  1.0000
  H   H24       1.0  0.019052332074707638  0.7540425028832374  0.9712878890744465  1.0000
  H   H25       1.0  0.30191732796287607  0.21182695044409877  0.031438748799011804  1.0000
  H   H26       1.0  0.31031356830497  0.2516271245054114  0.8667572896380521  1.0000
  H   H27       1.0  0.49681535191834325  0.15542699041843377  0.9743907104857146  1.0000
  H   H28       1.0  0.44266103424736525  0.9795555730762614  0.22543577730365172  1.0000
  H   H29       1.0  0.5818045105600901  0.8298953382745253  0.21111676914994604  1.0000
  H   H30       1.0  0.18312089536618723  0.7527912100427158  0.44372687508725056  1.0000
  H   H31       1.0  0.16139261849429704  0.9215459301719445  0.3083065798252492  1.0000
  H   H32       1.0  0.23325913055729336  0.1201081273637286  0.3234530365784495  1.0000
  H   H33       1.0  0.34131803401756144  0.2256994959723784  0.45110494827046926  1.0000
  H   H34       1.0  0.47441202694440676  0.0652379122781639  0.6732725264956798  1.0000
  H   H35       1.0  0.5718902949134872  0.8191105881981712  0.8539559816365454  1.0000
  H   H36       1.0  0.5959844144326497  0.5551895261078527  0.9493002640236342  1.0000
  H   H37       1.0  0.481875474658068  0.44700534979929074  0.8249636203712571  1.0000
  H   H38       1.0  0.35785273057064865  0.6009960921496998  0.6020361637024862  1.0000
  C   C1        1.0  0.6790534922596551  0.1667617563966743  0.3383267100107545  1.0000
  C   C2        1.0  0.7371923859836259  0.013558137926104098  0.39801273140577115  1.0000
  C   C3        1.0  0.8276981217089842  0.9752998148374914  0.5130341506080569  1.0000
  C   C4        1.0  0.5736408897508769  0.26134516056865215  0.21416364131225407  1.0000
  C   C5        1.0  0.913209903849946  0.8304396495177144  0.6170529510308072  1.0000
  C   C6        1.0  0.9254756624386928  0.1287427328550805  0.6031234112068306  1.0000
  C   C7        1.0  0.7211765614245708  0.2720958615526072  0.690843729111009  1.0000
  C   C8        1.0  0.7887821964102458  0.19384809521564247  0.8305635673536571  1.0000
  C   C9        1.0  0.7746901783828761  0.052292614351273387  0.9051748406312047  1.0000
  C   C10       1.0  0.8280276740154593  0.977287175433588  0.038101078596419244  1.0000
  C   C11       1.0  0.8896692369889935  0.0468942115839468  0.0973683806349825  1.0000
  C   C12       1.0  0.9083534175906394  0.19124918967963106  0.02554764569846671  1.0000
  C   C13       1.0  0.8629291960111163  0.2650567217002119  0.8888210951223671  1.0000
  C   C14       1.0  0.971363283764312  0.2641701044239894  0.08594522807852914  1.0000
  C   C15       1.0  0.997812933480603  0.4014482704493929  0.014433405757380075  1.0000
  C   C16       1.0  0.9614093654848975  0.47085595523935797  0.8793715559095646  1.0000
  C   C17       1.0  0.893045212743964  0.40593295389124506  0.8180881859545934  1.0000
  C   C18       1.0  0.2222543324311062  0.8495719241484776  0.97957291475786  1.0000
  C   C19       1.0  0.23550995674298764  0.9945362961393653  0.9068964313609204  1.0000
  C   C20       1.0  0.3147611205113208  0.030942128700651505  0.9887818364314358  1.0000
  C   C21       1.0  0.1449814040189779  0.7605375827207153  0.9367604920477249  1.0000
  C   C22       1.0  0.3595209372599656  0.16932826729882317  0.9647924463004431  1.0000
  C   C23       1.0  0.44980928377896856  0.8769627110721312  0.21925544498262903  1.0000
  C   C24       1.0  0.25086994039851634  0.8363618160822667  0.38835178971691425  1.0000
  C   C25       1.0  0.3117980683082282  0.8987250081564679  0.4688560603103157  1.0000
  C   C26       1.0  0.29515821638283773  0.047545402067093796  0.4199285704034352  1.0000
  C   C27       1.0  0.35415816412645995  0.10849081414246338  0.49296099774809937  1.0000
  C   C28       1.0  0.42957268765059814  0.019185549788773  0.6157668168571109  1.0000
  C   C29       1.0  0.448603149983974  0.865971483654782  0.6709934615216399  1.0000
  C   C30       1.0  0.38803108658797225  0.8038779657694872  0.5971167146100599  1.0000
  C   C31       1.0  0.5244756439150892  0.7727116966949481  0.7978846031051248  1.0000
  C   C32       1.0  0.5366076559704994  0.6248642627303839  0.8519407349129652  1.0000
  C   C33       1.0  0.47324333388625217  0.5639497017003307  0.7809129278167647  1.0000
  C   C34       1.0  0.40243833677746477  0.6508761477438582  0.6560209416020015  1.0000
  N   N1        1.0  0.7329686825031205  0.21983119449654254  0.4129805215865758  1.0000
  N   N2        1.0  0.8214585530265739  0.10269530504713491  0.5189849690233289  1.0000
  N   N3        1.0  0.8496815583833951  0.2710727394899947  0.5977238255461402  1.0000
  N   N4        1.0  0.604904146578491  0.5377609558501248  0.24324204140248898  1.0000
  N   N5        1.0  0.6754604946642575  0.6091786252709639  0.1537025699877787  1.0000
  N   N6        1.0  0.7380961866309265  0.6808072481044147  0.06420213139217885  1.0000
  N   N7        1.0  0.73294424702749  0.5782457560643548  0.449168786684446  1.0000
  N   N8        1.0  0.8400954282432739  0.6443448829726961  0.40346760330830034  1.0000
  N   N9        1.0  0.9415790513804013  0.7112875615640917  0.36053129306342413  1.0000
  N   N10       1.0  0.20446628692182148  0.5126935045446713  0.21692038248009743  1.0000
  N   N11       1.0  0.10533435671646171  0.44822850579087975  0.27985374405636776  1.0000
  N   N12       1.0  0.00957777547896654  0.37990054274578705  0.3370214703684554  1.0000
  N   N13       1.0  0.3578984905213007  0.47470854352354747  0.45747576621440095  1.0000
  N   N14       1.0  0.2569213324710518  0.4246599382896293  0.5302834278474293  1.0000
  N   N15       1.0  0.1671990980615305  0.37087993428352917  0.6082155772817475  1.0000
  N   N16       1.0  0.2913756172254127  0.7988273899142155  0.10045767516734834  1.0000
  N   N17       1.0  0.3454245163711678  0.9103708731038578  0.10489501316316564  1.0000
  N   N18       1.0  0.38947121273800905  0.7701334427175935  0.3308054958300062  1.0000
