data_image0
_chemical_formula_structural       Na4H40C20N44O4
_chemical_formula_sum              "Na4 H40 C20 N44 O4"
_cell_length_a       6.817390341792316
_cell_length_b       8.35414827002656
_cell_length_c       20.97245896864089
_cell_angle_alpha    89.99997873914202
_cell_angle_beta     97.4273893746075
_cell_angle_gamma    89.99971938447163

_space_group_name_H-M_alt    "P 1"
_space_group_IT_number       1

loop_
  _space_group_symop_operation_xyz
  'x, y, z'

loop_
  _atom_site_type_symbol
  _atom_site_label
  _atom_site_symmetry_multiplicity
  _atom_site_fract_x
  _atom_site_fract_y
  _atom_site_fract_z
  _atom_site_occupancy
  Na  Na1       1.0  0.011367353447276702  0.1274956288153106  0.6047449217007497  1.0000
  Na  Na2       1.0  0.9886290051469544  0.6274930589853227  0.8952553267325173  1.0000
  Na  Na3       1.0  0.9886324001669281  0.8725081028639464  0.39525564755896175  1.0000
  Na  Na4       1.0  0.011366349431739302  0.37250468765145694  0.1047465004875718  1.0000
  H   H1        1.0  0.5467606781989788  0.5446237658711156  0.8135639644014676  1.0000
  H   H2        1.0  0.4532435401472057  0.04462331005318279  0.6864346982930343  1.0000
  H   H3        1.0  0.4532435129975454  0.4553787687891457  0.1864367789116699  1.0000
  H   H4        1.0  0.5467547471230675  0.9553780276085391  0.3135662902868788  1.0000
  H   H5        1.0  0.49466322757943715  0.565838520545654  0.7277508861876285  1.0000
  H   H6        1.0  0.5053408717234406  0.0658401700140985  0.7722482452622331  1.0000
  H   H7        1.0  0.505343896323545  0.4341628170990859  0.2722490184863062  1.0000
  H   H8        1.0  0.49465594920290107  0.9341587736300881  0.2277531626378888  1.0000
  H   H9        1.0  0.6730663581657481  0.6948578812749417  0.7724110191193746  1.0000
  H   H10       1.0  0.3269383926119787  0.19486147726460956  0.7275871634827809  1.0000
  H   H11       1.0  0.3269407657372412  0.30514345636980517  0.2275888855545602  1.0000
  H   H12       1.0  0.6730569748082118  0.8051362693719144  0.27241514107475956  1.0000
  H   H13       1.0  0.21038447915827163  0.2599097600607507  0.46055390677663155  1.0000
  H   H14       1.0  0.7896147135769171  0.7599011380336977  0.03943874006948531  1.0000
  H   H15       1.0  0.7896137310630282  0.7400915776024987  0.5394442177785663  1.0000
  H   H16       1.0  0.2103863523204766  0.2400930175649734  0.9605556818229957  1.0000
  H   H17       1.0  0.2608181436075938  0.23140769139355652  0.37906324743082115  1.0000
  H   H18       1.0  0.7391901528142314  0.7314039789196797  0.12093166839998301  1.0000
  H   H19       1.0  0.7391830506898673  0.7685912522430344  0.6209359478352283  1.0000
  H   H20       1.0  0.2608154148580796  0.2685937676992012  0.8790653142322284  1.0000
  H   H21       1.0  0.34985339894678447  0.4061566069726367  0.42298902096488433  1.0000
  H   H22       1.0  0.650156743876842  0.9061532893246919  0.0770049855380108  1.0000
  H   H23       1.0  0.6501462647843894  0.5938447306881615  0.5770082069331366  1.0000
  H   H24       1.0  0.3498517436492676  0.09384685130926579  0.9229906811168148  1.0000
  H   H25       1.0  0.021059148281835912  0.5248287459816511  0.6212687111383915  1.0000
  H   H26       1.0  0.9789408839530013  0.024828417331583797  0.8787345588847941  1.0000
  H   H27       1.0  0.9789495703800314  0.47517498567808053  0.37873554758987643  1.0000
  H   H28       1.0  0.021049981666230608  0.9751741173555499  0.12126518493131751  1.0000
  H   H29       1.0  0.12155397135555293  0.5942767132920819  0.5517803522071674  1.0000
  H   H30       1.0  0.8784411916093832  0.0942695339326818  0.9482227156715411  1.0000
  H   H31       1.0  0.8784503097165556  0.4057306094068736  0.4482237324671843  1.0000
  H   H32       1.0  0.12154819483185972  0.9057282127169444  0.0517769701278112  1.0000
  H   H33       1.0  0.2800341433595648  0.5602286080703536  0.6259151256466566  1.0000
  H   H34       1.0  0.7199626718966173  0.06023170368394659  0.8740865820082745  1.0000
  H   H35       1.0  0.7199715784069697  0.43977033555558626  0.37408758503475786  1.0000
  H   H36       1.0  0.2800267016994127  0.9397672399760497  0.1259126264533847  1.0000
  H   H37       1.0  0.312805541451759  0.33781690867051145  0.5689490768977451  1.0000
  H   H38       1.0  0.6871909888981874  0.8378166954546983  0.9310511444748784  1.0000
  H   H39       1.0  0.6871957170420232  0.6621856259951571  0.4310525050548435  1.0000
  H   H40       1.0  0.3128042886278166  0.162182248193723  0.06894781872024681  1.0000
  C   C1        1.0  0.6088683178905824  0.5743107119859373  0.7693999712256315  1.0000
  C   C2        1.0  0.3911327575174681  0.07431285379955449  0.7305985634241026  1.0000
  C   C3        1.0  0.39113438127901656  0.4256894286573072  0.2306002367328119  1.0000
  C   C4        1.0  0.6088670089419496  0.9256896808693327  0.26940248317330173  1.0000
  C   C5        1.0  0.6101439904135761  0.19833235113957667  0.507982526325236  1.0000
  C   C6        1.0  0.38984743886855006  0.6983368481669886  0.9920156100491512  1.0000
  C   C7        1.0  0.3898527791393462  0.8016689865258683  0.4920169722245902  1.0000
  C   C8        1.0  0.6101463594571471  0.3016644895046242  0.007983295127758099  1.0000
  C   C9        1.0  0.7819827789761149  0.3679386725502241  0.7075669238358344  1.0000
  C   C10       1.0  0.21801644545337243  0.8679416477811017  0.7924305373622076  1.0000
  C   C11       1.0  0.2180169489699821  0.6320602710890737  0.2924326907499406  1.0000
  C   C12       1.0  0.7819832183001267  0.13205250781899738  0.2075666905372628  1.0000
  C   C13       1.0  0.3179573580072558  0.27811967820069583  0.42665891147026974  1.0000
  C   C14       1.0  0.6820461976232012  0.778113843731312  0.0733353340746632  1.0000
  C   C15       1.0  0.6820423442521247  0.721880462449228  0.573339748440347  1.0000
  C   C16       1.0  0.3179549067949595  0.22188150887671304  0.9266605198299301  1.0000
  C   C17       1.0  0.1488434143355803  0.5167020040363893  0.5945784440876949  1.0000
  C   C18       1.0  0.8511536843513952  0.016700958901346003  0.9054237585126472  1.0000
  C   C19       1.0  0.8511623331065009  0.48329933360927413  0.4054252212681392  1.0000
  C   C20       1.0  0.14883716844122571  0.983296787745573  0.0945755079669865  1.0000
  N   N1        1.0  0.49963145416600707  0.19379952085577656  0.4493051039045213  1.0000
  N   N2        1.0  0.500371261994843  0.6937980187508542  0.05069341376757561  1.0000
  N   N3        1.0  0.5003697786485048  0.8062018168002822  0.550695523373399  1.0000
  N   N4        1.0  0.49962991946484436  0.30619972787587807  0.9493053041612569  1.0000
  N   N5        1.0  0.6894045874581708  0.2840775718204683  0.6081374869316462  1.0000
  N   N6        1.0  0.31059373044804073  0.784082478926443  0.8918618595210789  1.0000
  N   N7        1.0  0.31059661967334773  0.7159237658361022  0.3918621856713714  1.0000
  N   N8        1.0  0.6894015470816799  0.215915267711857  0.10813710367429512  1.0000
  N   N9        1.0  0.6405071779122906  0.3716975898087825  0.6548490142759748  1.0000
  N   N10       1.0  0.3594980298068577  0.8717023480653977  0.8451520188342699  1.0000
  N   N11       1.0  0.3594955340913658  0.6283049448544417  0.3451516710194369  1.0000
  N   N12       1.0  0.640497247730309  0.12829300455266693  0.1548469443615801  1.0000
  N   N13       1.0  0.7619265609573843  0.45888990982033573  0.760019705221282  1.0000
  N   N14       1.0  0.23807955825220972  0.9588952499705031  0.7399803959611547  1.0000
  N   N15       1.0  0.23807910944317004  0.5411090338066202  0.2399810961103128  1.0000
  N   N16       1.0  0.7619172498326421  0.0411036936739393  0.2600205346015159  1.0000
  N   N17       1.0  0.5564987546026786  0.2896403656242369  0.5569392069053194  1.0000
  N   N18       1.0  0.44349511683690673  0.7896423031403756  0.9430609179194889  1.0000
  N   N19       1.0  0.4435010118604624  0.7103609720345291  0.44306183969232654  1.0000
  N   N20       1.0  0.5564972151523051  0.2103542464934662  0.05693840657811221  1.0000
  N   N21       1.0  0.9519642248793616  0.2851064269231998  0.7198268212380086  1.0000
  N   N22       1.0  0.048040041916074507  0.785114875232999  0.7801741888810909  1.0000
  N   N23       1.0  0.0480369951010999  0.7148925167128793  0.2801733287029435  1.0000
  N   N24       1.0  0.9519567276442872  0.21488406841221067  0.21982530966921843  1.0000
  N   N25       1.0  0.5899329759699724  0.09642617851661582  0.41075351318461634  1.0000
  N   N26       1.0  0.4100733038894404  0.5964226030506056  0.089245159912231  1.0000
  N   N27       1.0  0.41006972318474766  0.9035787501670925  0.5892466947728536  1.0000
  N   N28       1.0  0.5899308616352599  0.4035763405798177  0.9107546287267282  1.0000
  N   N29       1.0  0.03140846520879852  0.32752906276398625  0.7798709349646985  1.0000
  N   N30       1.0  0.9685925794945619  0.8275351194975471  0.7201299419588807  1.0000
  N   N31       1.0  0.9685912884277316  0.6724674868545648  0.2201296342964625  1.0000
  N   N32       1.0  0.031405669254944306  0.17246502115482087  0.2798696146089199  1.0000
  N   N33       1.0  0.7491673489608672  0.043072711603201704  0.44536212387662744  1.0000
  N   N34       1.0  0.2508348763400363  0.5430721941014057  0.0546383060984539  1.0000
  N   N35       1.0  0.25083239181184075  0.9569310200763114  0.5546379680456256  1.0000
  N   N36       1.0  0.7491663436404253  0.4569267495346807  0.9453618438424981  1.0000
  N   N37       1.0  0.9198809695976636  0.4316875206527158  0.804670297229734  1.0000
  N   N38       1.0  0.08012086829293713  0.931692332308856  0.6953291635659085  1.0000
  N   N39       1.0  0.08012026322428771  0.5683114229831148  0.1953303300486766  1.0000
  N   N40       1.0  0.9198759140977586  0.0683102023664546  0.3046708123211276  1.0000
  N   N41       1.0  0.7675806443622123  0.10225043227213601  0.5058616485133669  1.0000
  N   N42       1.0  0.23241292560420854  0.6022531568296969  0.9941389714328608  1.0000
  N   N43       1.0  0.2324161508699802  0.8977521024029188  0.4941388047111204  1.0000
  N   N44       1.0  0.7675853359905176  0.39774578681230116  0.005861062472632704  1.0000
  O   O1        1.0  0.1726419767707981  0.3535770175553025  0.5770865637383551  1.0000
  O   O2        1.0  0.8273544556142766  0.8535750599668005  0.9229136512594351  1.0000
  O   O3        1.0  0.8273607609084054  0.6464279111276455  0.42291507623147606  1.0000
  O   O4        1.0  0.172640834749501  0.1464250806914862  0.0770857892729069  1.0000
