data_image0
_chemical_formula_structural       Co2H40C52N8O14
_chemical_formula_sum              "Co2 H40 C52 N8 O14"
_cell_length_a       9.84850749777507
_cell_length_b       11.249167715474
_cell_length_c       11.8314
_cell_angle_alpha    93.85861140396842
_cell_angle_beta     102.30589279108995
_cell_angle_gamma    111.66454741066272

_space_group_name_H-M_alt    "P 1"
_space_group_IT_number       1

loop_
  _space_group_symop_operation_xyz
  'x, y, z'

loop_
  _atom_site_type_symbol
  _atom_site_label
  _atom_site_symmetry_multiplicity
  _atom_site_fract_x
  _atom_site_fract_y
  _atom_site_fract_z
  _atom_site_occupancy
  Co  Co1       1.0  0.14868633791630967  0.2395316369004519  0.3105695954059655  1.0000
  Co  Co2       1.0  0.8513131642085199  0.7604699663281522  0.6894311795324556  1.0000
  H   H1        1.0  0.5431367533920479  0.6105012709631765  0.00017409582729040538  1.0000
  H   H2        1.0  0.456865271990459  0.38950130139350847  0.9998238079385333  1.0000
  H   H3        1.0  0.5845453686715841  0.41831154124339054  0.6744018617837285  1.0000
  H   H4        1.0  0.415453243980643  0.5816881237290303  0.3256003217540879  1.0000
  H   H5        1.0  0.8649892365715955  0.0721137902808664  0.6251332292451154  1.0000
  H   H6        1.0  0.1350104153413127  0.9278858746915546  0.37486998387753095  1.0000
  H   H7        1.0  0.8636771367084604  0.424613781210553  0.15147087212481844  1.0000
  H   H8        1.0  0.13632221562828306  0.5753897602742271  0.8485257742123481  1.0000
  H   H9        1.0  0.9204062963875825  0.7862032244933133  0.027322571734281122  1.0000
  H   H10       1.0  0.07959453994616436  0.21380128611955476  0.9726718642624805  1.0000
  H   H11       1.0  0.30665068670138845  0.686774559004931  0.14143804337727056  1.0000
  H   H12       1.0  0.6933502994204375  0.313228013351754  0.8585579855952119  1.0000
  H   H13       1.0  0.08153451650125014  0.9516043155582778  0.9910690824478154  1.0000
  H   H14       1.0  0.9184639463628981  0.0483972876703191  0.008927282071716955  1.0000
  H   H15       1.0  0.2782646481287969  0.048856654384827905  0.033312897729977906  1.0000
  H   H16       1.0  0.7217327754746633  0.9511449488437691  0.9666824372047174  1.0000
  H   H17       1.0  0.43293126373764307  0.2588986926445287  0.20798977261045337  1.0000
  H   H18       1.0  0.567069727012118  0.7410970958155332  0.7920134300059019  1.0000
  H   H19       1.0  0.6968534815989215  0.2838731235154768  0.21482532221761372  1.0000
  H   H20       1.0  0.30314869357166424  0.7161275105850322  0.7851800909835234  1.0000
  H   H21       1.0  0.8943006192121173  0.3538354494372626  0.4012333321455515  1.0000
  H   H22       1.0  0.10570126101024607  0.6461622772789752  0.5987718427054604  1.0000
  H   H23       1.0  0.8347683767024349  0.39710798776937384  0.5914220021670858  1.0000
  H   H24       1.0  0.16523083047417228  0.6028907080749519  0.4085819152552617  1.0000
  H   H25       1.0  0.21578178016410016  0.41489730298346217  0.55546858913727  1.0000
  H   H26       1.0  0.784218466273195  0.5851013928608637  0.4445321318273443  1.0000
  H   H27       1.0  0.3406808496773124  0.4177591382322774  0.687249460544436  1.0000
  H   H28       1.0  0.6593196917082053  0.5822424649963196  0.3127506535617925  1.0000
  H   H29       1.0  0.21273237492847832  0.1647197940179268  0.6462273208736634  1.0000
  H   H30       1.0  0.7872662377237487  0.8352798709544942  0.353774862664153  1.0000
  H   H31       1.0  0.11817610287234706  0.2533378356659739  0.6977891787894137  1.0000
  H   H32       1.0  0.8818260722982386  0.7466627984345351  0.3022120083691604  1.0000
  H   H33       1.0  0.8330678879030841  0.0860585743632143  0.1657660141991428  1.0000
  H   H34       1.0  0.1669338379032652  0.9139478745058369  0.8342413817429419  1.0000
  H   H35       1.0  0.5543550930743705  0.9509239876393281  0.11529658771193144  1.0000
  H   H36       1.0  0.44564797156882446  0.049078584717364  0.8847031908472475  1.0000
  H   H37       1.0  0.42301927626502317  0.8830084602429337  0.2696984982974655  1.0000
  H   H38       1.0  0.5769820094329602  0.1169902356013921  0.7303007166264451  1.0000
  H   H39       1.0  0.5652231092255349  0.9365285589952848  0.48127650044268927  1.0000
  H   H40       1.0  0.434775952790929  0.0634652912086011  0.5187211647286389  1.0000
  C   C1        1.0  0.09275262067760788  0.5480787615790703  0.1552859091699048  1.0000
  C   C2        1.0  0.9072458421865404  0.4519228416495266  0.8447121457666571  1.0000
  C   C3        1.0  0.9376384222307479  0.5167836773072594  0.1345675166641486  1.0000
  C   C4        1.0  0.06236181957860507  0.4832218024336967  0.8654285662821337  1.0000
  C   C5        1.0  0.8773269076498024  0.602892646331135  0.08813260978715927  1.0000
  C   C6        1.0  0.1226705159536507  0.397108956897462  0.9118635703560544  1.0000
  C   C7        1.0  0.9713634102597624  0.7225324781297005  0.06576187627591419  1.0000
  C   C8        1.0  0.02863505260437897  0.2774691250988965  0.9342302622010553  1.0000
  C   C9        1.0  0.12676155951113086  0.7530512908016789  0.08691034255910779  1.0000
  C   C10       1.0  0.8732366084047881  0.246947405042647  0.913081557567736  1.0000
  C   C11       1.0  0.18668874234240454  0.6649158749422952  0.1295121648578004  1.0000
  C   C12       1.0  0.8133112045187258  0.3350866974143898  0.8704828345298453  1.0000
  C   C13       1.0  0.15937428897580466  0.45622383211151163  0.203231660675776  1.0000
  C   C14       1.0  0.8406244688365587  0.5437806785013564  0.7967691682364518  1.0000
  C   C15       1.0  0.7105070456236148  0.5604012252392963  0.055531671664205424  1.0000
  C   C16       1.0  0.2894991321737023  0.43960813101401897  0.9444657124226269  1.0000
  C   C17       1.0  0.18705054586055064  0.9735259929467475  0.0590006244984878  1.0000
  C   C18       1.0  0.8129479170035907  0.0264756102818566  0.9409940496040222  1.0000
  C   C19       1.0  0.17464892629587328  0.0270154146278045  0.17714155965642683  1.0000
  C   C20       1.0  0.8253505758289562  0.9729861886007996  0.822853298822402  1.0000
  C   C21       1.0  0.4844296114319702  0.3080664371461452  0.3969163991470738  1.0000
  C   C22       1.0  0.515568116375583  0.6919245056734695  0.6030850693403735  1.0000
  C   C23       1.0  0.5185959175650224  0.2851901685893452  0.2909085113026961  1.0000
  C   C24       1.0  0.4814032942395272  0.7148017433583576  0.7090949728869094  1.0000
  C   C25       1.0  0.6670723302173441  0.3018611099879465  0.295827214428968  1.0000
  C   C26       1.0  0.332929255056797  0.6981337093440203  0.7041777220719183  1.0000
  C   C27       1.0  0.7795275183867715  0.3411708835613751  0.4026627211821748  1.0000
  C   C28       1.0  0.22047436183559196  0.6588268431548627  0.5973432988773482  1.0000
  C   C29       1.0  0.7474555136477291  0.3657256819694936  0.5089788264084305  1.0000
  C   C30       1.0  0.2525445876294227  0.6342681682343851  0.4910266300158313  1.0000
  C   C31       1.0  0.5983700374572719  0.3495732240988687  0.503970029043245  1.0000
  C   C32       1.0  0.4016279852985035  0.6504206261050172  0.49603421341986126  1.0000
  C   C33       1.0  0.3813399691917637  0.3424956816599618  0.5363678494899062  1.0000
  C   C34       1.0  0.6186593877729222  0.6575010759281881  0.4636334348655922  1.0000
  C   C35       1.0  0.27392306582046894  0.3585386280564578  0.601551538895592  1.0000
  C   C36       1.0  0.7260765860924393  0.6414610369159632  0.3984491386015208  1.0000
  C   C37       1.0  0.15751178513362865  0.2316303355853222  0.62170128318067  1.0000
  C   C38       1.0  0.8424883115155876  0.7683702985151868  0.37830122564228924  1.0000
  C   C39       1.0  0.01983789270673239  0.1638175357664409  0.5226060600184824  1.0000
  C   C40       1.0  0.9801626486787852  0.8361840674621632  0.4773982801303164  1.0000
  C   C41       1.0  0.8534856695571661  0.0858104775722524  0.3517938334943906  1.0000
  C   C42       1.0  0.14651338783136217  0.9141901565282565  0.6482101813692652  1.0000
  C   C43       1.0  0.7752473976143648  0.05215847378634919  0.23336502440218262  1.0000
  C   C44       1.0  0.22475507250445045  0.9478450676984238  0.7666389367320506  1.0000
  C   C45       1.0  0.620394584552784  0.977521708060479  0.20642637510675138  1.0000
  C   C46       1.0  0.3796040280994433  0.022477956911942  0.7935749632225537  1.0000
  C   C47       1.0  0.5449500536817026  0.9370354129861838  0.2944930363729483  1.0000
  C   C48       1.0  0.4550515269645031  0.0629661902424132  0.705507262109606  1.0000
  C   C49       1.0  0.6221903912005118  0.9682161401434115  0.4126712021354848  1.0000
  C   C50       1.0  0.37780822145171566  0.0317835248290095  0.5873301361938206  1.0000
  C   C51       1.0  0.7770399030565471  0.0433394081703042  0.4391797549786035  1.0000
  C   C52       1.0  0.22296435063541506  0.9566612259302048  0.5608243365581487  1.0000
  N   N1        1.0  0.34969204767629947  0.3027546460866262  0.4207683486933291  1.0000
  N   N2        1.0  0.6503074590764726  0.6972401732453406  0.5792336834293721  1.0000
  N   N3        1.0  0.5284609697938619  0.370364898134774  0.5888491526011208  1.0000
  N   N4        1.0  0.4715377926464441  0.629632828581471  0.4111529334953873  1.0000
  N   N5        1.0  0.005551448957355391  0.1610235394838995  0.4066221001335038  1.0000
  N   N6        1.0  0.9944493873763844  0.8389809711289615  0.5933807879483909  1.0000
  N   N7        1.0  0.8853610604639215  0.09374860575479  0.5443337139342148  1.0000
  N   N8        1.0  0.11463859144899398  0.9062510592176308  0.45566865397992734  1.0000
  O   O1        1.0  0.2949747411095061  0.4761093713835649  0.20728204431181046  1.0000
  O   O2        1.0  0.7050265399605421  0.5238961083573912  0.7927218298874125  1.0000
  O   O3        1.0  0.07028633126047618  0.3600427148516374  0.24161702763942827  1.0000
  O   O4        1.0  0.9297125763399734  0.6399598575050547  0.7583828586229799  1.0000
  O   O5        1.0  0.6266654334673305  0.4444024076736426  0.050943259686107516  1.0000
  O   O6        1.0  0.37332843224569245  0.5555914425302362  0.9490517931865842  1.0000
  O   O7        1.0  0.6599564658836883  0.6520952794439765  0.032698904971262294  1.0000
  O   O8        1.0  0.34004407550182947  0.3479063237846276  0.9673003639264549  1.0000
  O   O9        1.0  0.2283074964756436  0.8648072655907342  0.06414357118093507  1.0000
  O   O10       1.0  0.7716890376552071  0.1351923993816868  0.9358472558935703  1.0000
  O   O11       1.0  0.20542997318424475  0.9781642399839328  0.2655383118417873  1.0000
  O   O12       1.0  0.7945595903258889  0.0218247645794989  0.7344565129426998  1.0000
  O   O13       1.0  0.1344687080625704  0.12411429618860129  0.17280864117478253  1.0000
  O   O14       1.0  0.8655368798383093  0.8758892452961788  0.8271933374628732  1.0000
