data_image0
_chemical_formula_structural       V4H32C40O20
_chemical_formula_sum              "V4 H32 C40 O20"
_cell_length_a       6.763142858154492
_cell_length_b       12.184051438255544
_cell_length_c       17.550957608195027
_cell_angle_alpha    89.99946784246896
_cell_angle_beta     90.00010302426816
_cell_angle_gamma    90.0006413927317

_space_group_name_H-M_alt    "P 1"
_space_group_IT_number       1

loop_
  _space_group_symop_operation_xyz
  'x, y, z'

loop_
  _atom_site_type_symbol
  _atom_site_label
  _atom_site_symmetry_multiplicity
  _atom_site_fract_x
  _atom_site_fract_y
  _atom_site_fract_z
  _atom_site_occupancy
  V   V1        1.0  0.273757697832032  0.7336296656404215  0.7500092121120119  1.0000
  V   V2        1.0  0.22623902918652314  0.23360538121843186  0.25000049223191206  1.0000
  V   V3        1.0  0.7262109897252246  0.26639354441896057  0.2500034015870227  1.0000
  V   V4        1.0  0.7737769733017005  0.7663792541017003  0.7499967378318928  1.0000
  H   H1        1.0  0.7582888428583202  0.018461120196469907  0.901810815230526  1.0000
  H   H2        1.0  0.2113200596762965  0.7668747449629763  0.9647056308696095  1.0000
  H   H3        1.0  0.059947460724920604  0.8761081607919932  0.9348675383391837  1.0000
  H   H4        1.0  0.0812738751785886  0.8456834728834935  0.0339173737743366  1.0000
  H   H5        1.0  0.7417069372753461  0.5184528065046481  0.098196628352639  1.0000
  H   H6        1.0  0.2886919915722146  0.2668874341764251  0.035291323018491  1.0000
  H   H7        1.0  0.44005305063561206  0.37612322068774523  0.06513611475917  1.0000
  H   H8        1.0  0.41873353697590693  0.3457085397315254  0.9660864764316557  1.0000
  H   H9        1.0  0.2416879724401468  0.9815485784518999  0.4018131523234629  1.0000
  H   H10       1.0  0.7886644529517072  0.23311605994530987  0.46471546128759667  1.0000
  H   H11       1.0  0.9400487364033482  0.1238994563549696  0.4348690611376824  1.0000
  H   H12       1.0  0.9187070734770801  0.15430157680427212  0.5339154029509601  1.0000
  H   H13       1.0  0.25828615148063966  0.4815510854210174  0.5981841199073443  1.0000
  H   H14       1.0  0.7112948782531419  0.7331115499184906  0.5352877425600298  1.0000
  H   H15       1.0  0.5599443138529382  0.6238712623548253  0.5651382690873277  1.0000
  H   H16       1.0  0.5812435892970954  0.654283067602087  0.46608261392532313  1.0000
  H   H17       1.0  0.24172863841971554  0.9815464959869828  0.0981869845288017  1.0000
  H   H18       1.0  0.7886841141122433  0.23312630524842606  0.035286471211748  1.0000
  H   H19       1.0  0.9400655847359404  0.1238994554015065  0.06512627303229832  1.0000
  H   H20       1.0  0.9187317772184899  0.15431593579019423  0.9660827050855616  1.0000
  H   H21       1.0  0.2582454856058263  0.4815621959943287  0.9018233923708081  1.0000
  H   H22       1.0  0.7113018321731986  0.7331292100198258  0.9647207209407115  1.0000
  H   H23       1.0  0.5599319015613987  0.6239008101620414  0.9348787780205471  1.0000
  H   H24       1.0  0.5812528938274895  0.654316311876407  0.033927276806935004  1.0000
  H   H25       1.0  0.7582733217741408  0.0184418019559232  0.5981726823138729  1.0000
  H   H26       1.0  0.21130275565759152  0.7668693959459032  0.5352806292183203  1.0000
  H   H27       1.0  0.059909600595396705  0.8760892825441434  0.5651179130429469  1.0000
  H   H28       1.0  0.08127048530641902  0.8456814169547542  0.4660710014852114  1.0000
  H   H29       1.0  0.7417135863309953  0.5184269838667532  0.4018148194807551  1.0000
  H   H30       1.0  0.2887270386934873  0.26687718910721264  0.46471575495674233  1.0000
  H   H31       1.0  0.44007464590221457  0.37611829738597174  0.434868077273201  1.0000
  H   H32       1.0  0.4187576272343279  0.3457081335817663  0.5339208835765632  1.0000
  C   C1        1.0  0.48620689493664326  0.9398882208103957  0.932319464741127  1.0000
  C   C2        1.0  0.33503016957794063  0.9272231949970051  0.9874594666101759  1.0000
  C   C3        1.0  0.6454670831490007  0.011135256958674202  0.9459457150753678  1.0000
  C   C4        1.0  0.48920333696410984  0.8768727296703318  0.8598358756543405  1.0000
  C   C5        1.0  0.16252245028232443  0.8500003426566921  0.9798657716280701  1.0000
  C   C6        1.0  0.0138123916892638  0.4399058198536423  0.0676814960123693  1.0000
  C   C7        1.0  0.16496821164106024  0.42723772868071563  0.0125353087454414  1.0000
  C   C8        1.0  0.8545300571597139  0.5111431439321095  0.0540537991512053  1.0000
  C   C9        1.0  0.010813451294353602  0.37687785102861693  0.1401592259853857  1.0000
  C   C10       1.0  0.33749686042192906  0.35001195537751784  0.0201329227288554  1.0000
  C   C11       1.0  0.5137981612657114  0.0600939871985489  0.43232054681722326  1.0000
  C   C12       1.0  0.664954453091262  0.0727582788643062  0.48745828837112987  1.0000
  C   C13       1.0  0.3545350819335199  0.9888615430224238  0.4459497893077966  1.0000
  C   C14       1.0  0.5107969326418386  0.1231186507432014  0.3598388264675734  1.0000
  C   C15       1.0  0.8374828361915335  0.14999518500426492  0.47987047550453354  1.0000
  C   C16       1.0  0.9862234288993507  0.560105044398405  0.5676758013301466  1.0000
  C   C17       1.0  0.8350525559316538  0.5727623791447273  0.5125459545079494  1.0000
  C   C18       1.0  0.1454805611798662  0.4888613356596778  0.55405313325587  1.0000
  C   C19       1.0  0.9891724475800387  0.6231189160842305  0.6401724971029665  1.0000
  C   C20       1.0  0.6625017647862208  0.6499790231055372  0.5201309878957545  1.0000
  C   C21       1.0  0.5138135434664832  0.06011036720739331  0.0676754862010327  1.0000
  C   C22       1.0  0.6649606967738749  0.07277457215051442  0.0125377634027046  1.0000
  C   C23       1.0  0.3545681413680343  0.9888748215563155  0.054047526526055406  1.0000
  C   C24       1.0  0.5107890081161202  0.1231414524028054  0.1401585054584515  1.0000
  C   C25       1.0  0.8375142528303314  0.15000973588276884  0.020124621126449  1.0000
  C   C26       1.0  0.9861976967653164  0.5601190318119792  0.9323368153899593  1.0000
  C   C27       1.0  0.8350374409114991  0.5727805571217177  0.9874659095922594  1.0000
  C   C28       1.0  0.145444544823107  0.48888334915984893  0.9459542563833168  1.0000
  C   C29       1.0  0.9891833296990314  0.6231470006936847  0.8598431318670449  1.0000
  C   C30       1.0  0.6624999205312606  0.6500046888221506  0.9798802607702939  1.0000
  C   C31       1.0  0.48618826913034496  0.9398881858370559  0.5676675669330109  1.0000
  C   C32       1.0  0.335017191267184  0.9272197903340996  0.5125383719296793  1.0000
  C   C33       1.0  0.6454602201273402  0.0111247337259641  0.5540451616658686  1.0000
  C   C34       1.0  0.48917914760519926  0.8768692674086083  0.6401584035722864  1.0000
  C   C35       1.0  0.16249472265111817  0.8499927331720089  0.5201239056884147  1.0000
  C   C36       1.0  0.013835453187809302  0.43989518523738264  0.4323214286974419  1.0000
  C   C37       1.0  0.164979711250723  0.42722553910616784  0.4874677988655804  1.0000
  C   C38       1.0  0.8545531845179328  0.5111183752030328  0.4459520736025411  1.0000
  C   C39       1.0  0.010815461412285303  0.3768566908674628  0.3598349888313734  1.0000
  C   C40       1.0  0.3375275451012882  0.3500006877482492  0.47987307942221236  1.0000
  O   O1        1.0  0.32594900397105414  0.8415597466486421  0.8327114897245876  1.0000
  O   O2        1.0  0.6587914497496  0.8610249765973566  0.8293470488772883  1.0000
  O   O3        1.0  0.1740953062096722  0.3415452032297637  0.1672963757282204  1.0000
  O   O4        1.0  0.8411817800604738  0.3610296884689462  0.17066615177524366  1.0000
  O   O5        1.0  0.6740895780865586  0.1584475892927131  0.33269665771948104  1.0000
  O   O6        1.0  0.34115396399532477  0.1389725548182028  0.3293366791576702  1.0000
  O   O7        1.0  0.8259306461580634  0.6584413539570875  0.6672876578084797  1.0000
  O   O8        1.0  0.1587939162100014  0.6389699556712857  0.6706451499595119  1.0000
  O   O9        1.0  0.6740906564655306  0.15846264302458482  0.1672868797637577  1.0000
  O   O10       1.0  0.3411742803868735  0.1389736111448059  0.1706587276667619  1.0000
  O   O11       1.0  0.825950268473342  0.6584533847791504  0.8327139589982977  1.0000
  O   O12       1.0  0.1587736001610267  0.6390025496986239  0.8293521595849072  1.0000
  O   O13       1.0  0.3259515607705907  0.8415567440933672  0.6672868978213559  1.0000
  O   O14       1.0  0.6587955013109267  0.8610079766276686  0.670645736890755  1.0000
  O   O15       1.0  0.17410753536667295  0.3415424606853464  0.3327118513433049  1.0000
  O   O16       1.0  0.8411747709415353  0.3610097550479524  0.3293452428707084  1.0000
  O   O17       1.0  0.5027440560252004  0.6870836033055383  0.7500003229624426  1.0000
  O   O18       1.0  0.9972810673389603  0.1870687225683128  0.24999406289782664  1.0000
  O   O19       1.0  0.4972734253139778  0.31293139957964666  0.24999804654243013  1.0000
  O   O20       1.0  0.0027334565684143004  0.8129216580299923  0.7499929112962249  1.0000
