data_image0
_chemical_formula_structural       Nd2H30C14S2N4O14
_chemical_formula_sum              "Nd2 H30 C14 S2 N4 O14"
_cell_length_a       8.095093737046668
_cell_length_b       8.594838027170855
_cell_length_c       11.560557506979807
_cell_angle_alpha    99.97481749001383
_cell_angle_beta     92.49149455963114
_cell_angle_gamma    117.34228698205932

_space_group_name_H-M_alt    "P 1"
_space_group_IT_number       1

loop_
  _space_group_symop_operation_xyz
  'x, y, z'

loop_
  _atom_site_type_symbol
  _atom_site_label
  _atom_site_symmetry_multiplicity
  _atom_site_fract_x
  _atom_site_fract_y
  _atom_site_fract_z
  _atom_site_occupancy
  Nd  Nd1       1.0  0.7865450445573431  0.07414673222530872  0.9879006216513986  1.0000
  Nd  Nd2       1.0  0.2134581742140115  0.925854767181484  0.012099653879147418  1.0000
  H   H1        1.0  0.09734464225110173  0.46689049635516255  0.11464944424952958  1.0000
  H   H2        1.0  0.9026566782886789  0.5331096503634782  0.8853505901912371  1.0000
  H   H3        1.0  0.1803511411489538  0.3281010002595082  0.10791743270190318  1.0000
  H   H4        1.0  0.8196482811592604  0.6718977937709882  0.89208236064907  1.0000
  H   H5        1.0  0.19462074550463623  0.47654591508180727  0.8885049552044038  1.0000
  H   H6        1.0  0.805378676803585  0.5234528789486889  0.11149483814656948  1.0000
  H   H7        1.0  0.32413515292834916  0.46988399692403954  0.7681330529502262  1.0000
  H   H8        1.0  0.6758636598561695  0.5301161239208056  0.23186861627841182  1.0000
  H   H9        1.0  0.37745330245068226  0.4146376253627722  0.9006796244951758  1.0000
  H   H10       1.0  0.6225461198575388  0.585361168667717  0.09932016885579738  1.0000
  H   H11       1.0  0.7266925965097428  0.4034812443080966  0.6893857606758473  1.0000
  H   H12       1.0  0.2733049518776696  0.596516201456609  0.3106120629460136  1.0000
  H   H13       1.0  0.5165542033225421  0.19052928210108894  0.6547190412118127  1.0000
  H   H14       1.0  0.48344841808049216  0.8094735463312404  0.3452822458767458  1.0000
  H   H15       1.0  0.7250592334440071  0.21323186952312062  0.5985793406380466  1.0000
  H   H16       1.0  0.2749376932643273  0.7867669008447605  0.4014212231811385  1.0000
  H   H17       1.0  0.0795497184194645  0.06469813449157871  0.35470710766995245  1.0000
  H   H18       1.0  0.9204560429373886  0.935306057354616  0.6452944674341126  1.0000
  H   H19       1.0  0.8433449096362082  0.9318540723128309  0.379580146298956  1.0000
  H   H20       1.0  0.15665515702594493  0.0681460614689087  0.6204207055357429  1.0000
  H   H21       1.0  0.9690533516152726  0.8283666398625086  0.3070418580307717  1.0000
  H   H22       1.0  0.030945568931762996  0.1716361608150478  0.6929575596412931  1.0000
  H   H23       1.0  0.07277469236696991  0.6393295928509346  0.6033044391763767  1.0000
  H   H24       1.0  0.9272253986059481  0.36067054535317306  0.3966946840190033  1.0000
  H   H25       1.0  0.2757916997897  0.8202281633897358  0.6895139636504055  1.0000
  H   H26       1.0  0.7242077346739036  0.17977063285193404  0.3104849653809012  1.0000
  H   H27       1.0  0.5631859376629579  0.830120741234019  0.6693193607795678  1.0000
  H   H28       1.0  0.4368128159805665  0.16987670862285134  0.3306811027269987  1.0000
  H   H29       1.0  0.5774433735413852  0.6472674586181737  0.5799944833556553  1.0000
  H   H30       1.0  0.422556693120768  0.35273267516357265  0.4200063684790436  1.0000
  C   C1        1.0  0.4772155842026251  0.6940863112294338  0.9103040375635416  1.0000
  C   C2        1.0  0.5227832528926513  0.3059138140377797  0.08969590302577757  1.0000
  C   C3        1.0  0.33300760236436133  0.5020368571696139  0.8653373683532735  1.0000
  C   C4        1.0  0.6669924642977917  0.4979632766121327  0.13466348348142526  1.0000
  C   C5        1.0  0.7235659032815035  0.20230975476923876  0.7808899346857315  1.0000
  C   C6        1.0  0.2764360737675986  0.79769173391184  0.21911029391909403  1.0000
  C   C7        1.0  0.6702829335040263  0.2580246461339613  0.675634813089566  1.0000
  C   C8        1.0  0.32971586712510975  0.7419754724996964  0.3243677204587314  1.0000
  C   C9        1.0  0.8787201291450091  0.9638543899218136  0.2002828406678177  1.0000
  C   C10       1.0  0.12128052273008191  0.0361444126232016  0.799717863928535  1.0000
  C   C11       1.0  0.9447131998866923  0.945083561676853  0.3175203179834512  1.0000
  C   C12       1.0  0.05528819194946521  0.0549192582409503  0.6824800578597207  1.0000
  C   C13       1.0  0.31063959926660806  0.6140630301447702  0.5904591747820689  1.0000
  C   C14       1.0  0.6893598230416133  0.385935763885719  0.4095406185689043  1.0000
  S   S1        1.0  0.19645068372616958  0.40066542924921594  0.5053092268616483  1.0000
  S   S2        1.0  0.8035487977230461  0.5993360357692481  0.4946917722113966  1.0000
  N   N1        1.0  0.21250529025854806  0.6945088074482584  0.6359647637939574  1.0000
  N   N2        1.0  0.7874941442050485  0.3054899887934184  0.3640341652373493  1.0000
  N   N3        1.0  0.4977262780091109  0.7021805874966488  0.6175291873435  1.0000
  N   N4        1.0  0.5022731321437277  0.2978182043226596  0.38247147032713963  1.0000
  O   O1        1.0  0.6516713309514442  0.7415466482906936  0.9118696066839008  1.0000
  O   O2        1.0  0.3483268374791421  0.2584521328029011  0.0881310040610117  1.0000
  O   O3        1.0  0.42863300716092584  0.8149785287473608  0.9471822439946038  1.0000
  O   O4        1.0  0.5713651734250433  0.18502025455742196  0.0528175024306492  1.0000
  O   O5        1.0  0.6576391207027754  0.035487564699089105  0.7806571370324491  1.0000
  O   O6        1.0  0.3423603729018156  0.9645139025305556  0.21934299772092916  1.0000
  O   O7        1.0  0.8358190766305426  0.3187148693948814  0.8722318060290206  1.0000
  O   O8        1.0  0.16418424990333597  0.6812893098446225  0.1277662179449521  1.0000
  O   O9        1.0  0.9695574786136446  0.958624332941639  0.11186318888386639  1.0000
  O   O10       1.0  0.030440128914769094  0.041375783811048394  0.888135840460066  1.0000
  O   O11       1.0  0.7366805770820122  0.9889135269128035  0.1867828023365448  1.0000
  O   O12       1.0  0.2633195017355164  0.011086609080123799  0.8132171851784946  1.0000
  O   O13       1.0  0.061841189884638895  0.3362507898188625  0.105228592134786  1.0000
  O   O14       1.0  0.9381588889328969  0.6637493461740648  0.8947713953802534  1.0000
