data_image0
_chemical_formula_structural       Al4H50C64N2O26
_chemical_formula_sum              "Al4 H50 C64 N2 O26"
_cell_length_a       6.663255993711564
_cell_length_b       18.72489695227681
_cell_length_c       22.307683060069596
_cell_angle_alpha    99.32152705136124
_cell_angle_beta     89.99796393744207
_cell_angle_gamma    90.00106902841796

_space_group_name_H-M_alt    "P 1"
_space_group_IT_number       1

loop_
  _space_group_symop_operation_xyz
  'x, y, z'

loop_
  _atom_site_type_symbol
  _atom_site_label
  _atom_site_symmetry_multiplicity
  _atom_site_fract_x
  _atom_site_fract_y
  _atom_site_fract_z
  _atom_site_occupancy
  Al  Al1       1.0  0.13555876763177827  0.49799422129029125  0.4984976396818794  1.0000
  Al  Al2       1.0  0.6355723638695991  0.5020522279138148  0.5014908908066076  1.0000
  Al  Al3       1.0  0.6444070914897112  0.0006743212191864  0.0024188702455419  1.0000
  Al  Al4       1.0  0.1444511098789647  0.9993426083289809  0.9975793652497488  1.0000
  H   H1        1.0  0.04442886826191741  0.2396106955964967  0.0453866087640264  1.0000
  H   H2        1.0  0.5449487771057377  0.7604660491467498  0.954594264906703  1.0000
  H   H3        1.0  0.05978005438552711  0.4235675198549202  0.22009028544187711  1.0000
  H   H4        1.0  0.5601036979441787  0.5764897543370681  0.7799134186447815  1.0000
  H   H5        1.0  0.08369828882550222  0.3550129648417411  0.1179805218803267  1.0000
  H   H6        1.0  0.5841545052928794  0.6450353061430362  0.8820064647054479  1.0000
  H   H7        1.0  0.7966775424741359  0.1372531591625048  0.18752839490016268  1.0000
  H   H8        1.0  0.2965543769381327  0.8627385544959125  0.8125007271728535  1.0000
  H   H9        1.0  0.7602800302655268  0.2627797633980151  0.4555662159758285  1.0000
  H   H10       1.0  0.25976994894348593  0.7372005440063633  0.544483320842538  1.0000
  H   H11       1.0  0.7713180887060959  0.1383812465947969  0.27598536414597424  1.0000
  H   H12       1.0  0.27146401960617084  0.861644463932649  0.7240370262470819  1.0000
  H   H13       1.0  0.7112225876395473  0.1457247686649055  0.3853960987830262  1.0000
  H   H14       1.0  0.21112140410752295  0.8542962985127501  0.6146398084371967  1.0000
  H   H15       1.0  0.9956646584853317  0.42925720730112  0.3292262370121506  1.0000
  H   H16       1.0  0.49570294673598175  0.5707738154940856  0.670796250240521  1.0000
  H   H17       1.0  0.8829136108990383  0.682012243704051  0.1424330809155236  1.0000
  H   H18       1.0  0.3827415214290114  0.3179820700196175  0.8575599161773866  1.0000
  H   H19       1.0  0.1869147952924521  0.8200834465797088  0.2458633849852276  1.0000
  H   H20       1.0  0.6870024206383222  0.1799427087803949  0.7541883145510511  1.0000
  H   H21       1.0  0.21303211256934426  0.7509190369164572  0.18217574826987712  1.0000
  H   H22       1.0  0.7129167224277141  0.24911944931393037  0.8178761098392969  1.0000
  H   H23       1.0  0.16207040892680882  0.6591935419735792  0.2380519582532727  1.0000
  H   H24       1.0  0.6621969072489622  0.3408236866490242  0.7619660015628895  1.0000
  H   H25       1.0  0.6393446661111639  0.8375900172129394  0.2472104226570764  1.0000
  H   H26       1.0  0.1394463883097998  0.16239467333021199  0.7527010324257545  1.0000
  H   H27       1.0  0.8693173154410944  0.8749298896532096  0.27687156989323813  1.0000
  H   H28       1.0  0.3695070904838219  0.1250936672262526  0.723079108784134  1.0000
  H   H29       1.0  0.6318083320860239  0.7593384894322099  0.3182543973676387  1.0000
  H   H30       1.0  0.132003556422255  0.2406945054305893  0.6816937226818354  1.0000
  H   H31       1.0  0.6471126105537124  0.7236560496131403  0.1620490628020761  1.0000
  H   H32       1.0  0.14696526373110436  0.27632230571052924  0.8379021889787805  1.0000
  H   H33       1.0  0.6179507770391054  0.6633650821981334  0.2463254006854072  1.0000
  H   H34       1.0  0.1179678432147782  0.3366113251686542  0.7536158058859073  1.0000
  H   H35       1.0  0.8484133901913327  0.800772951617077  0.3523434397978278  1.0000
  H   H36       1.0  0.34867616304235577  0.1992733414339298  0.6476199014793238  1.0000
  H   H37       1.0  0.12113328031418291  0.8090377958434232  0.3621071316590303  1.0000
  H   H38       1.0  0.3694938898057033  0.8265097332602949  0.3402997027424988  1.0000
  H   H39       1.0  0.49540472064723673  0.7383934745533551  0.4084528179267366  1.0000
  H   H40       1.0  0.3606742883320635  0.8127812506594694  0.4497928122249064  1.0000
  H   H41       1.0  0.24394486337260451  0.7259066239928771  0.43040237145596894  1.0000
  H   H42       1.0  0.6213451936276115  0.19089971097275793  0.6379636160553446  1.0000
  H   H43       1.0  0.8698047564727746  0.17351890798914837  0.6597272412659406  1.0000
  H   H44       1.0  0.9953625784755643  0.26162485700177746  0.5915473691619795  1.0000
  H   H45       1.0  0.8607277033117953  0.18721129492673327  0.550227711299044  1.0000
  H   H46       1.0  0.7438716260883992  0.2740654523996043  0.5696219312301879  1.0000
  H   H47       1.0  0.3935048877876285  0.4648927687618781  0.4223639791561737  1.0000
  H   H48       1.0  0.8933590988125674  0.5349231804692139  0.5776969077552465  1.0000
  H   H49       1.0  0.38514153964294456  0.046014906232414894  0.0737777711176832  1.0000
  H   H50       1.0  0.8851329538282047  0.9540788331941811  0.9261780530554802  1.0000
  C   C1        1.0  0.3851682567076793  0.42123313082934283  0.5762665204828963  1.0000
  C   C2        1.0  0.8847265445776529  0.5787659779804244  0.42372329587148977  1.0000
  C   C3        1.0  0.38056848310125  0.611549636816406  0.5718445869241009  1.0000
  C   C4        1.0  0.881037576952295  0.3884823158437101  0.4281327537028119  1.0000
  C   C5        1.0  0.023892298596138103  0.3068117076749672  0.13331821202213937  1.0000
  C   C6        1.0  0.524316284639994  0.6932513138987915  0.8666773964984813  1.0000
  C   C7        1.0  0.9149356605275473  0.18254093502979177  0.1131551748695045  1.0000
  C   C8        1.0  0.4151639404800562  0.8174844501017661  0.8868461627172762  1.0000
  C   C9        1.0  0.7924759647181148  0.2587812503108823  0.40721167311859563  1.0000
  C   C10       1.0  0.2921055283022583  0.7412254895905689  0.5928298415334864  1.0000
  C   C11       1.0  0.7631631396686984  0.19339155688292922  0.3675682490729102  1.0000
  C   C12       1.0  0.26305499397989257  0.8066346150770727  0.6324719574929816  1.0000
  C   C13       1.0  0.7972519045995127  0.1895696885350091  0.30590500319815556  1.0000
  C   C14       1.0  0.2972316542290089  0.810451804837065  0.6941233601460368  1.0000
  C   C15       1.0  0.8644385240101969  0.2503865926509548  0.2813819963901878  1.0000
  C   C16       1.0  0.3644477957512323  0.7496386052572748  0.7186327484060867  1.0000
  C   C17       1.0  0.9015913149799321  0.31645657538833655  0.321873070612007  1.0000
  C   C18       1.0  0.4015635013227978  0.6835524349441116  0.678136535765482  1.0000
  C   C19       1.0  0.8991831646143211  0.24786546995232328  0.2167717164709515  1.0000
  C   C20       1.0  0.3992937574126572  0.7521731232344634  0.7832421632351938  1.0000
  C   C21       1.0  0.9764562963358473  0.3104367565606836  0.1955880523567899  1.0000
  C   C22       1.0  0.47671676871919294  0.6896058992575077  0.8044129777346923  1.0000
  C   C23       1.0  0.007287232481154101  0.3757504713804707  0.23763234507858746  1.0000
  C   C24       1.0  0.5075262661147306  0.6242879263275399  0.7623792482075018  1.0000
  C   C25       1.0  0.9707078510061393  0.3788043294717626  0.2981509741308628  1.0000
  C   C26       1.0  0.4707547233467651  0.6212122168131131  0.7018654288048296  1.0000
  C   C27       1.0  0.8621173802380612  0.18532295211199573  0.1735995341065291  1.0000
  C   C28       1.0  0.3621795920305644  0.8146892886118239  0.8264147201026475  1.0000
  C   C29       1.0  0.00014428174687000002  0.2433634763890993  0.0928468178566675  1.0000
  C   C30       1.0  0.5006040213049374  0.7566911134269602  0.9071377293782773  1.0000
  C   C31       1.0  0.8623789361642196  0.3189814034973466  0.38476024763068045  1.0000
  C   C32       1.0  0.3621641624213012  0.6810207110194709  0.6152512283710435  1.0000
  C   C33       1.0  0.7955969388336686  0.7125243864299052  0.1797829469254992  1.0000
  C   C34       1.0  0.2955008904433001  0.2874633494100891  0.8201903490592459  1.0000
  C   C35       1.0  0.12085475633455901  0.7692437362083595  0.222579805905994  1.0000
  C   C36       1.0  0.6208628267026769  0.23078422826120712  0.7774460437747308  1.0000
  C   C37       1.0  0.1203091435224124  0.7115960479720584  0.26470826579814855  1.0000
  C   C38       1.0  0.6204239362349001  0.2884266472347718  0.7353093940658795  1.0000
  C   C39       1.0  0.8876408835759337  0.6240812854736645  0.37715065503429906  1.0000
  C   C40       1.0  0.3878457777206705  0.37593723204013685  0.6228455787565609  1.0000
  C   C41       1.0  0.9039164034395952  0.7850412857567123  0.20328713415586458  1.0000
  C   C42       1.0  0.4038862914395621  0.214967772260934  0.7966965725476811  1.0000
  C   C43       1.0  0.7732505325719999  0.6671660130843194  0.23095768025096666  1.0000
  C   C44       1.0  0.27323997602116634  0.3328141895431926  0.7690063547152163  1.0000
  C   C45       1.0  0.9002383376166208  0.7018089091384497  0.2874995336977122  1.0000
  C   C46       1.0  0.4003741775306793  0.2982231503335838  0.7125020435059639  1.0000
  C   C47       1.0  0.7864202169804528  0.7741707576013042  0.3089844879657234  1.0000
  C   C48       1.0  0.28660386486500766  0.22584894173557757  0.6909836565431533  1.0000
  C   C49       1.0  0.7918437649224545  0.8237506634699656  0.2602174870014053  1.0000
  C   C50       1.0  0.29197383939725097  0.17625805186880678  0.7397455325855515  1.0000
  C   C51       1.0  0.8947425756453599  0.658448422829359  0.3355288599978934  1.0000
  C   C52       1.0  0.3949668614453827  0.3415823527782678  0.6644750550517671  1.0000
  C   C53       1.0  0.9044189934967833  0.8308287769361371  0.1567179162774224  1.0000
  C   C54       1.0  0.40429166636216257  0.16917244089749772  0.8432580277130199  1.0000
  C   C55       1.0  0.9022426585321027  0.8707222637906896  0.11889349388736288  1.0000
  C   C56       1.0  0.4021217770768289  0.12929739806511267  0.8810871160111945  1.0000
  C   C57       1.0  0.3985890630728548  0.8870175246649481  0.9299163853410662  1.0000
  C   C58       1.0  0.8983150554053838  0.11300307810948601  0.0700783496358781  1.0000
  C   C59       1.0  0.3982816926817776  0.0796362854528283  0.9243937712846773  1.0000
  C   C60       1.0  0.898455840816162  0.9203789985167105  0.07559821378312391  1.0000
  C   C61       1.0  0.2716972423137989  0.785252845865756  0.3556626036510195  1.0000
  C   C62       1.0  0.34757959249035514  0.7645136396496142  0.4146514605771898  1.0000
  C   C63       1.0  0.7718637654229569  0.2147359842141228  0.644368208763332  1.0000
  C   C64       1.0  0.8475934805664381  0.2354812511204614  0.5853601806871965  1.0000
  N   N1        1.0  0.8326509958888978  0.5882072889639859  0.2104356906852374  1.0000
  N   N2        1.0  0.332599769034026  0.41179433069410015  0.7895621250888921  1.0000
  O   O1        1.0  0.5543135743449739  0.5863820541068778  0.5572260961672839  1.0000
  O   O2        1.0  0.0548396913745179  0.4132418738541047  0.4431624973854156  1.0000
  O   O3        1.0  0.21378211264948996  0.4368650864999566  0.5569505408288649  1.0000
  O   O4        1.0  0.7133357935607594  0.5637395662423472  0.4434237941904442  1.0000
  O   O5        1.0  0.21480711508757372  0.582989416639542  0.5526986202934907  1.0000
  O   O6        1.0  0.7153108532031142  0.4174643931742068  0.44686301226655445  1.0000
  O   O7        1.0  0.0554310236833189  0.5573828808430861  0.4393171452105449  1.0000
  O   O8        1.0  0.5560784757825488  0.442025845132342  0.5602947153581681  1.0000
  O   O9        1.0  0.3873272552806242  0.4912280832020953  0.4634751296678559  1.0000
  O   O10       1.0  0.8873279805814177  0.5088018514981272  0.5365107324452439  1.0000
  O   O11       1.0  0.2253019632354096  0.0588669470707188  0.9385871949761011  1.0000
  O   O12       1.0  0.7255836212504223  0.9413637032243827  0.061540387470358816  1.0000
  O   O13       1.0  0.564607068938372  0.9137411950698892  0.9509355298996381  1.0000
  O   O14       1.0  0.0644118580172375  0.08616550174320281  0.049203006193785405  1.0000
  O   O15       1.0  0.5678925492440925  0.060865051384482206  0.9429470718028696  1.0000
  O   O16       1.0  0.068068942452804  0.9389112118792439  0.05687395982474901  1.0000
  O   O17       1.0  0.725824028517124  0.08521535584498  0.05786135243511839  1.0000
  O   O18       1.0  0.2261511234077105  0.9149281547024017  0.9420039073769431  1.0000
  O   O19       1.0  0.39159248178049216  0.0106575010295558  0.03688841325908499  1.0000
  O   O20       1.0  0.8916096264516896  0.9893724276864901  0.9631055583609154  1.0000
  O   O21       1.0  0.2705509444933086  0.720805618813749  0.3106947666882576  1.0000
  O   O22       1.0  0.7706778696937989  0.27919638542707054  0.689335223957535  1.0000
  O   O23       1.0  0.9767156043426939  0.57470373025469  0.1751100676657913  1.0000
  O   O24       1.0  0.7346502026076607  0.5426928368214448  0.2321876286066811  1.0000
  O   O25       1.0  0.47667057181885764  0.4252851618598612  0.8248775156810879  1.0000
  O   O26       1.0  0.23452524935558472  0.45731207111963096  0.7678247238316729  1.0000
