data_image0
_chemical_formula_structural       Zn4P4H24C12N4O12
_chemical_formula_sum              "Zn4 P4 H24 C12 N4 O12"
_cell_length_a       6.222888261118275
_cell_length_b       8.485525070843456
_cell_length_c       10.663358939000346
_cell_angle_alpha    90.0000068052335
_cell_angle_beta     90.00002680972385
_cell_angle_gamma    101.2361371894878

_space_group_name_H-M_alt    "P 1"
_space_group_IT_number       1

loop_
  _space_group_symop_operation_xyz
  'x, y, z'

loop_
  _atom_site_type_symbol
  _atom_site_label
  _atom_site_symmetry_multiplicity
  _atom_site_fract_x
  _atom_site_fract_y
  _atom_site_fract_z
  _atom_site_occupancy
  Zn  Zn1       1.0  0.8403904424102604  0.27494288305306475  0.10495111151979589  1.0000
  Zn  Zn2       1.0  0.6596095785726346  0.22505745531884006  0.6049511339925502  1.0000
  Zn  Zn3       1.0  0.15960991980609407  0.7250584865488179  0.8950491720682617  1.0000
  Zn  Zn4       1.0  0.34039046193622363  0.7749427127770475  0.39504914959540827  1.0000
  P   P1        1.0  0.7530852385616669  0.09519210035846022  0.3430299193266747  1.0000
  P   P2        1.0  0.7469146667799577  0.40480710254124125  0.8430299824218322  1.0000
  P   P3        1.0  0.24691448023970253  0.9048068662314395  0.6569703642611768  1.0000
  P   P4        1.0  0.2530853737284957  0.5951930655545185  0.15696936337531034  1.0000
  H   H1        1.0  0.13795897285806544  0.1542742696685764  0.2899143034081888  1.0000
  H   H2        1.0  0.3620409766202285  0.34572469328417554  0.7899134551216488  1.0000
  H   H3        1.0  0.862039461171676  0.8457259002708569  0.7100859801795423  1.0000
  H   H4        1.0  0.6379590638882247  0.654275474811584  0.2100858906755008  1.0000
  H   H5        1.0  0.03654286867913469  0.9431536830164192  0.2923919688816881  1.0000
  H   H6        1.0  0.4634567807941464  0.5568450848242463  0.7923911221378147  1.0000
  H   H7        1.0  0.9634571718297235  0.0568464850794683  0.7076083147062703  1.0000
  H   H8        1.0  0.5365432597143069  0.44315508327151326  0.20760822365932793  1.0000
  H   H9        1.0  0.30091794973036196  0.18805463260787292  0.09588259584626259  1.0000
  H   H10       1.0  0.19908215351402703  0.3119454780341543  0.5958826372006454  1.0000
  H   H11       1.0  0.6990820907784964  0.8119455354880147  0.9041176877416884  1.0000
  H   H12       1.0  0.8009178869948311  0.6880546900617405  0.40411764638730563  1.0000
  H   H13       1.0  0.26545241455369245  0.974348847545528  0.09516615482406365  1.0000
  H   H14       1.0  0.2345489924001923  0.525651065254955  0.5951661797257087  1.0000
  H   H15       1.0  0.7345476259551729  0.025651320550359496  0.9048341287638872  1.0000
  H   H16       1.0  0.765451048108261  0.4743491028408045  0.40483316607144093  1.0000
  H   H17       1.0  0.6638399261919901  0.9127943507068113  0.11884261161102216  1.0000
  H   H18       1.0  0.8361598046650226  0.5872057957187664  0.6188426702498331  1.0000
  H   H19       1.0  0.3361585078377515  0.08720581923261513  0.8811576719767087  1.0000
  H   H20       1.0  0.1638402358438356  0.4127943723771211  0.3811576133381179  1.0000
  H   H21       1.0  0.8898545165224047  0.8131375021536869  0.10731437587499217  1.0000
  H   H22       1.0  0.6101468108355802  0.6868626392308599  0.6073143811699849  1.0000
  H   H23       1.0  0.11014552398645351  0.18686266594220777  0.892685907712959  1.0000
  H   H24       1.0  0.38985483615199706  0.31313752702135395  0.3926849646273779  1.0000
  C   C1        1.0  0.9999252087915236  0.05923356346971081  0.2631236103844472  1.0000
  C   C2        1.0  0.5000746273881447  0.44076561726708974  0.7631236085360057  1.0000
  C   C3        1.0  7.483171733476772e-05  0.9407666046261839  0.7368766732035039  1.0000
  C   C4        1.0  0.49992541312071376  0.5592345508288048  0.23687667505194546  1.0000
  C   C5        1.0  0.1937174378160691  0.07706188457159162  0.0643531111677191  1.0000
  C   C6        1.0  0.30628231643049014  0.42293701581927223  0.564352254547728  1.0000
  C   C7        1.0  0.8062822809853001  0.9229370820183079  0.9356471724201325  1.0000
  C   C8        1.0  0.693717724077963  0.5770631522764874  0.43564709124941436  1.0000
  C   C9        1.0  0.8262670210764894  0.9197170407511596  0.07694683001415827  1.0000
  C   C10       1.0  0.6737342799972408  0.580283092210621  0.5769468431135534  1.0000
  C   C11       1.0  0.17373301943236896  0.08028312734473532  0.9230534535737926  1.0000
  C   C12       1.0  0.3262657605112125  0.4197170758851386  0.4230525026835891  1.0000
  N   N1        1.0  0.9761228652969364  0.06569209296259972  0.12446842299139856  1.0000
  N   N2        1.0  0.5238771725789205  0.43430825082264596  0.6244684271310986  1.0000
  N   N3        1.0  0.023877175211922015  0.934308075133295  0.8755318605965595  1.0000
  N   N4        1.0  0.47612286792993774  0.5656919172732416  0.3755318564568526  1.0000
  O   O1        1.0  0.6562663938229033  0.20925898849611713  0.255732840398977  1.0000
  O   O2        1.0  0.8437350424389292  0.2907401883472361  0.7557329197992003  1.0000
  O   O3        1.0  0.3437336466855498  0.7907411795996425  0.7442665053981655  1.0000
  O   O4        1.0  0.15626499806952412  0.7092599797485237  0.2442664259979423  1.0000
  O   O5        1.0  0.835307974076997  0.17631808209831235  0.46839099631132786  1.0000
  O   O6        1.0  0.6646923614768523  0.32368235707765086  0.9683910292346951  1.0000
  O   O7        1.0  0.1646920664314564  0.8236820859974473  0.5316083494858218  1.0000
  O   O8        1.0  0.33530767903160097  0.6763178110181088  0.03160831656244768  1.0000
  O   O9        1.0  0.6016309511983238  0.932264038323318  0.35938407068575623  1.0000
  O   O10       1.0  0.8983686661493306  0.5677349733132289  0.8593850825279642  1.0000
  O   O11       1.0  0.39836876760264056  0.0677349282664466  0.6406152751112941  1.0000
  O   O12       1.0  0.10163105265203852  0.4322639932766706  0.14061520105988728  1.0000
