data_image0
_chemical_formula_structural       CdH6C12Br2N2O4
_chemical_formula_sum              "Cd1 H6 C12 Br2 N2 O4"
_cell_length_a       7.906404143828807
_cell_length_b       7.906438257690952
_cell_length_c       9.03522682149365
_cell_angle_alpha    67.9850722476631
_cell_angle_beta     67.98557050413052
_cell_angle_gamma    80.6690868752036

_space_group_name_H-M_alt    "P 1"
_space_group_IT_number       1

loop_
  _space_group_symop_operation_xyz
  'x, y, z'

loop_
  _atom_site_type_symbol
  _atom_site_label
  _atom_site_symmetry_multiplicity
  _atom_site_fract_x
  _atom_site_fract_y
  _atom_site_fract_z
  _atom_site_occupancy
  Cd  Cd1       1.0  0.4661660416706895  0.5338338474525132  2.0781111018112183e-06  1.0000
  H   H1        1.0  0.867638098752373  0.5347345297232237  0.9990882883963438  1.0000
  H   H2        1.0  0.4652658026160381  0.13236351862570933  0.000908017293802713  1.0000
  H   H3        1.0  0.687410356147076  0.49418279261885095  0.6368638147386603  1.0000
  H   H4        1.0  0.5058187089348182  0.31258664881391957  0.36313735695917865  1.0000
  H   H5        1.0  0.269605665851941  0.480603251275305  0.5383408681940336  1.0000
  H   H6        1.0  0.5193972135258562  0.7303951731701305  0.4616599055106362  1.0000
  C   C1        1.0  0.23482319958270645  0.5087186348657866  0.8411459566757598  1.0000
  C   C2        1.0  0.4912824615230633  0.7651744669818257  0.15885536405541956  1.0000
  C   C3        1.0  0.0860099381525501  0.5049848887205854  0.7773210070090142  1.0000
  C   C4        1.0  0.4950139322341796  0.9139905386614373  0.22268063351131673  1.0000
  C   C5        1.0  0.90328775971156  0.5192872356051839  0.8758842954923689  1.0000
  C   C6        1.0  0.48071241434921314  0.0967115822121158  0.12411420976303592  1.0000
  C   C7        1.0  0.8038616452772516  0.498179624931261  0.6720306158463384  1.0000
  C   C8        1.0  0.5018203230331578  0.1961380709775753  0.3279673416242446  1.0000
  C   C9        1.0  0.9833952352595148  0.4860151382150519  0.5661951370740467  1.0000
  C   C10       1.0  0.513985954265344  0.016602949669064105  0.433803757922746  1.0000
  C   C11       1.0  0.12764040556324827  0.4886389798087692  0.6183917199532089  1.0000
  C   C12       1.0  0.5113588589625307  0.8723594965600583  0.38160955850025147  1.0000
  Br  Br1       1.0  0.0250154537155183  0.47187384855335074  0.3505329641047509  1.0000
  Br  Br2       1.0  0.5281309974943226  0.9749826038117533  0.6494662960922352  1.0000
  N   N1        1.0  0.7660911949420138  0.5152716752549154  0.823843685995648  1.0000
  N   N2        1.0  0.4847281694115749  0.23390674822338303  0.17615463973307036  1.0000
  O   O1        1.0  0.3990492714928989  0.49103396168577984  0.7523540512394785  1.0000
  O   O2        1.0  0.5089685973325756  0.6009480123593818  0.24764658873400686  1.0000
  O   O3        1.0  0.18556201708881295  0.5307800579301656  0.9853828786823794  1.0000
  O   O4        1.0  0.46921691244631347  0.8144426857353794  0.014617207017458516  1.0000
