data_image0
_chemical_formula_structural       Zn2H26C40N10O8
_chemical_formula_sum              "Zn2 H26 C40 N10 O8"
_cell_length_a       8.481623023032535
_cell_length_b       10.027800651083842
_cell_length_c       11.729780914581399
_cell_angle_alpha    89.57973867318759
_cell_angle_beta     85.57981108455091
_cell_angle_gamma    68.80649992171702

_space_group_name_H-M_alt    "P 1"
_space_group_IT_number       1

loop_
  _space_group_symop_operation_xyz
  'x, y, z'

loop_
  _atom_site_type_symbol
  _atom_site_label
  _atom_site_symmetry_multiplicity
  _atom_site_fract_x
  _atom_site_fract_y
  _atom_site_fract_z
  _atom_site_occupancy
  Zn  Zn1       1.0  0.4541843061573659  0.8382715693601951  0.4051277729346623  1.0000
  Zn  Zn2       1.0  0.545816704793161  0.16172831150106498  0.5948732728481261  1.0000
  H   H1        1.0  0.3869867757143979  0.132446348870026  0.1311461049960272  1.0000
  H   H2        1.0  0.6130164903326474  0.8675481735082186  0.8688565347369206  1.0000
  H   H3        1.0  0.3955856052931495  0.3211741314244562  0.9953941610504273  1.0000
  H   H4        1.0  0.6044216492901455  0.678819297744127  0.004606537166139908  1.0000
  H   H5        1.0  0.3907262110621021  0.5560222900255525  0.07045507511693928  1.0000
  H   H6        1.0  0.6092770349473966  0.44397224203066094  0.9295458606661882  1.0000
  H   H7        1.0  0.3821206828672103  0.4053518149627208  0.4137087794503316  1.0000
  H   H8        1.0  0.6178751323221832  0.5946491798283802  0.5862925757545554  1.0000
  H   H9        1.0  0.33228905662884495  0.6520295285423074  0.560052624000889  1.0000
  H   H10       1.0  0.6677091128976754  0.34797145384234796  0.43994688354309375  1.0000
  H   H11       1.0  0.15540591272834797  0.6724976323936077  0.7448581664065657  1.0000
  H   H12       1.0  0.8445886751986151  0.3275033927956271  0.2551398527542261  1.0000
  H   H13       1.0  0.9601334374356795  0.1306050413117674  0.7031244466318326  1.0000
  H   H14       1.0  0.0398647521283807  0.8693959313949194  0.2968767648619774  1.0000
  H   H15       1.0  0.15661957253414732  0.09201108214791279  0.5271293562668548  1.0000
  H   H16       1.0  0.843380544392794  0.9079909382353717  0.47287173351579537  1.0000
  H   H17       1.0  0.07329085373941532  0.6088913838005536  0.0721081496221316  1.0000
  H   H18       1.0  0.9267120645364385  0.39110955441527295  0.9278910704996903  1.0000
  H   H19       1.0  0.045368738986574966  0.47944351312899147  0.2524824070134528  1.0000
  H   H20       1.0  0.954633429094969  0.5205563712070145  0.7475160109890595  1.0000
  H   H21       1.0  0.787709754358268  0.5920350915336172  0.3898993972949468  1.0000
  H   H22       1.0  0.2122916635289586  0.4079637389225681  0.61009821858827  1.0000
  H   H23       1.0  0.5966601705280468  0.93950828118529  0.1826239247470767  1.0000
  H   H24       1.0  0.40333965323514326  0.06049161071818078  0.8173771928912502  1.0000
  H   H25       1.0  0.7529671876690429  0.12548589070126331  0.8531915072707292  1.0000
  H   H26       1.0  0.2470293777146609  0.8745161579696585  0.1468106500534603  1.0000
  C   C1        1.0  0.3772375641751964  0.14436487100878984  0.3647142226504769  1.0000
  C   C2        1.0  0.6227615194124569  0.8556339621758791  0.6352869448434646  1.0000
  C   C3        1.0  0.3794983514635392  0.2579091267962639  0.2813983380799741  1.0000
  C   C4        1.0  0.6205002851123212  0.7420907761494105  0.7186028514138981  1.0000
  C   C5        1.0  0.38518995141922113  0.23449421366998274  0.16318760679683916  1.0000
  C   C6        1.0  0.6148135977728016  0.7655024420270636  0.8368141531055215  1.0000
  C   C7        1.0  0.39023749147197145  0.3407827771791928  0.0871409743788831  1.0000
  C   C8        1.0  0.6097673987554303  0.6592106692348167  0.9128607195236854  1.0000
  C   C9        1.0  0.3895994247621033  0.4709636968096546  0.1285172383241431  1.0000
  C   C10       1.0  0.6104041144111464  0.5290329637263724  0.8714836696033146  1.0000
  C   C11       1.0  0.38906487027500714  0.493816488631083  0.24632278783049347  1.0000
  C   C12       1.0  0.6109382218864498  0.5061812416659562  0.753678142096888  1.0000
  C   C13       1.0  0.38321106924694703  0.38746535767793927  0.3221798358683969  1.0000
  C   C14       1.0  0.6167871203171132  0.6125356150287472  0.6778213756254061  1.0000
  C   C15       1.0  0.3976390441018368  0.6298127108251776  0.2910002907272613  1.0000
  C   C16       1.0  0.6023591154059035  0.37018827639845847  0.7089983648418183  1.0000
  C   C17       1.0  0.24972598445205565  0.7558967516180245  0.5959476140101714  1.0000
  C   C18       1.0  0.7502721750556917  0.2441042356056115  0.4040510415589011  1.0000
  C   C19       1.0  0.14992418454220774  0.7674777026088009  0.697298067432321  1.0000
  C   C20       1.0  0.8500707065672729  0.2325254462212668  0.3027007758476969  1.0000
  C   C21       1.0  0.044136759825058026  0.9033221279438094  0.7400322979329771  1.0000
  C   C22       1.0  0.955859308452986  0.09668101468303548  0.2599656215165922  1.0000
  C   C23       1.0  0.0419665981509922  0.0224985758953906  0.675824441063277  1.0000
  C   C24       1.0  0.9580323015322919  0.9775034700470542  0.3241741646501879  1.0000
  C   C25       1.0  0.14914551825987127  0.00169528920636  0.5764018073704804  1.0000
  C   C26       1.0  0.85085413161773  0.9983078106159056  0.42359760046227996  1.0000
  C   C27       1.0  0.946468326924446  0.9132575734493855  0.8494246339283434  1.0000
  C   C28       1.0  0.05352939559027451  0.08674447869627501  0.15057489561557702  1.0000
  C   C29       1.0  0.8555845156667702  0.864765120726076  0.011779402231717  1.0000
  C   C30       1.0  0.1444129136842065  0.13523480293977036  0.9882201551678734  1.0000
  C   C31       1.0  0.8397190950653767  0.7857623600244992  0.11428238939883072  1.0000
  C   C32       1.0  0.16028070866026678  0.21423754155693328  0.8857170242896828  1.0000
  C   C33       1.0  0.9648040524237018  0.6532704130210972  0.1343922714185908  1.0000
  C   C34       1.0  0.03519693848928541  0.3467294775181315  0.8656070704143773  1.0000
  C   C35       1.0  0.9487090812744726  0.5817564906408136  0.2342341090323643  1.0000
  C   C36       1.0  0.0512926498140445  0.4182444586172167  0.7657651829449961  1.0000
  C   C37       1.0  0.8067897557881452  0.6433912982634098  0.3105821525255266  1.0000
  C   C38       1.0  0.1932131624877087  0.35660963995241707  0.6894170675962883  1.0000
  C   C39       1.0  0.6997026175514948  0.8387628457634335  0.19498689168353422  1.0000
  C   C40       1.0  0.3002971861741557  0.16123705581800604  0.8050125220049793  1.0000
  N   N1        1.0  0.2530463880544787  0.8712149578931089  0.5368732559079348  1.0000
  N   N2        1.0  0.7469534256899379  0.12878493884934264  0.4631270097554889  1.0000
  N   N3        1.0  0.9758301450271394  0.8070167300896641  0.9241285913891559  1.0000
  N   N4        1.0  0.024168014480608218  0.1929842571339719  0.07587006417991661  1.0000
  N   N5        1.0  0.8141227731601788  0.029286082634527602  0.8925409890367321  1.0000
  N   N6        1.0  0.18587540638510797  0.9707148949111402  0.1074593704821609  1.0000
  N   N7        1.0  0.7530931116206219  0.0007875677643340998  0.9952883447179062  1.0000
  N   N8        1.0  0.24690670212379479  0.9992123289781177  0.004711920945517499  1.0000
  N   N9        1.0  0.683532358678974  0.7689583014267284  0.29032963669683914  1.0000
  N   N10       1.0  0.31646581084753933  0.2310426809579269  0.7096698708471436  1.0000
  O   O1        1.0  0.37097407928849435  0.02849763801759049  0.32402653901225165  1.0000
  O   O2        1.0  0.6290273686550522  0.9715011779216453  0.6759736327956959  1.0000
  O   O3        1.0  0.379548485809913  0.1686846919529543  0.4705580987834495  1.0000
  O   O4        1.0  0.6204526890074432  0.8313119858284992  0.5294438048299952  1.0000
  O   O5        1.0  0.46266797584394215  0.6255255472433348  0.38674424661388684  1.0000
  O   O6        1.0  0.5373309438768884  0.3744764890211413  0.6132560630493984  1.0000
  O   O7        1.0  0.34388462508994905  0.7433665369823074  0.2344219663175267  1.0000
  O   O8        1.0  0.6561142946308821  0.2566354992821686  0.7655783433457587  1.0000
