data_image0
_chemical_formula_structural       Zn3H14C14N6O12
_chemical_formula_sum              "Zn3 H14 C14 N6 O12"
_cell_length_a       7.306561651586434
_cell_length_b       7.960898700629615
_cell_length_c       10.012051131770892
_cell_angle_alpha    108.5649028267035
_cell_angle_beta     96.99844865456929
_cell_angle_gamma    107.46256972813768

_space_group_name_H-M_alt    "P 1"
_space_group_IT_number       1

loop_
  _space_group_symop_operation_xyz
  'x, y, z'

loop_
  _atom_site_type_symbol
  _atom_site_label
  _atom_site_symmetry_multiplicity
  _atom_site_fract_x
  _atom_site_fract_y
  _atom_site_fract_z
  _atom_site_occupancy
  Zn  Zn1       1.0  0.4999977076599365  3.7564745988437806e-08  0.9999994018780851  1.0000
  Zn  Zn2       1.0  0.21571794334229105  0.06618494600804331  0.4373244350259781  1.0000
  Zn  Zn3       1.0  0.7842788508689722  0.9338137431333636  0.5626739408121538  1.0000
  H   H1        1.0  0.5575162343735799  0.7842414650140982  0.7440185913476611  1.0000
  H   H2        1.0  0.44248863200321853  0.21576995025338158  0.25598654753530065  1.0000
  H   H3        1.0  0.6016005310017293  0.6788070593482589  0.8439256255996739  1.0000
  H   H4        1.0  0.3984112619376462  0.3212010019955259  0.1560774927329476  1.0000
  H   H5        1.0  0.8006310510465013  0.35008174460075747  0.05006932988901271  1.0000
  H   H6        1.0  0.19936334759167815  0.649911235237113  0.9499264889545884  1.0000
  H   H7        1.0  0.7873270384736981  0.20805140669384775  0.8914766759409644  1.0000
  H   H8        1.0  0.21267263571974823  0.7919441501895718  0.10851929607844824  1.0000
  H   H9        1.0  0.7113534485487776  0.4960215352461148  0.3400273829259248  1.0000
  H   H10       1.0  0.2886465019285396  0.5039786851763424  0.6599786763272489  1.0000
  H   H11       1.0  0.5130521017072454  0.1561713359001899  0.7343179814726709  1.0000
  H   H12       1.0  0.48694278113700307  0.8438259345399716  0.2656778673392567  1.0000
  H   H13       1.0  0.011624894813465476  0.8528394384961759  0.841087978683845  1.0000
  H   H14       1.0  0.988372664958824  0.14715772146052336  0.15890913136686177  1.0000
  C   C1        1.0  0.6051141007321234  0.35567491898726905  0.5433515405558822  1.0000
  C   C2        1.0  0.3948824121241826  0.6443295899411366  0.45664813103797997  1.0000
  C   C3        1.0  0.809202546929228  0.42429275743267436  0.5195789603713122  1.0000
  C   C4        1.0  0.19079915851649082  0.5757013455521618  0.4804198965229816  1.0000
  C   C5        1.0  0.9739843015758751  0.4289241083825318  0.6115101290064543  1.0000
  C   C6        1.0  0.02601852888361833  0.5710729797819383  0.38849352642801444  1.0000
  C   C7        1.0  0.9563872236112375  0.34724336804685413  0.7281893116059662  1.0000
  C   C8        1.0  0.04361216435918896  0.6527553597857861  0.27181434837712715  1.0000
  C   C9        1.0  0.8374514541481163  0.49418995713362085  0.4090447991763638  1.0000
  C   C10       1.0  0.16254996994264556  0.5058099656382211  0.5909553534736743  1.0000
  C   C11       1.0  0.3621238215832038  0.07866506740183608  0.732138028750384  1.0000
  C   C12       1.0  0.6378696916086923  0.9213323142205712  0.26785869803195794  1.0000
  C   C13       1.0  0.10717888948599348  0.9239107344272312  0.7854453568748523  1.0000
  C   C14       1.0  0.8928173006339436  0.0760865367117134  0.2145526311462831  1.0000
  N   N1        1.0  0.3065277848531949  0.0044986059947475935  0.8307674060221686  1.0000
  N   N2        1.0  0.6934676812901586  0.9955001197415572  0.16922983633329391  1.0000
  N   N3        1.0  0.2070403793323194  0.04511273595528561  0.6294682399097198  1.0000
  N   N4        1.0  0.7929519256769239  0.9548818096621973  0.3705277112386299  1.0000
  N   N5        1.0  0.042377050400212175  0.9444842497292572  0.663393081749888  1.0000
  N   N6        1.0  0.9576173274457458  0.05550876740228722  0.33660374282025873  1.0000
  O   O1        1.0  0.604061310551515  0.8032911091542588  0.8470482747594374  1.0000
  O   O2        1.0  0.3959471389918292  0.1967157565515478  0.1529562116970311  1.0000
  O   O3        1.0  0.7443400754575862  0.21419504913416182  0.9819766743930529  1.0000
  O   O4        1.0  0.25565557294768837  0.7858006921212919  0.018017908631456806  1.0000
  O   O5        1.0  0.4733322300479799  0.22036039034998112  0.42856754017481785  1.0000
  O   O6        1.0  0.5266632934009506  0.779648706831331  0.5714380679905061  1.0000
  O   O7        1.0  0.5695245084553234  0.4263605181744126  0.6621210981607532  1.0000
  O   O8        1.0  0.430478628816381  0.5736464939109709  0.33787885436505144  1.0000
  O   O9        1.0  0.8051847521245392  0.19235037039831585  0.6998736272673085  1.0000
  O   O10       1.0  0.19481679185148695  0.8076466797736971  0.30012688323139974  1.0000
  O   O11       1.0  0.08521855202972971  0.42534689192343933  0.8448831373106671  1.0000
  O   O12       1.0  0.9147827680999399  0.5746532173167721  0.15512204397209223  1.0000
