data_image0
_chemical_formula_structural       Zn2H50C60N10O12
_chemical_formula_sum              "Zn2 H50 C60 N10 O12"
_cell_length_a       9.074102077825817
_cell_length_b       10.013125097943034
_cell_length_c       16.2822
_cell_angle_alpha    103.11452394115432
_cell_angle_beta     91.9879730168147
_cell_angle_gamma    101.07627774993544

_space_group_name_H-M_alt    "P 1"
_space_group_IT_number       1

loop_
  _space_group_symop_operation_xyz
  'x, y, z'

loop_
  _atom_site_type_symbol
  _atom_site_label
  _atom_site_symmetry_multiplicity
  _atom_site_fract_x
  _atom_site_fract_y
  _atom_site_fract_z
  _atom_site_occupancy
  Zn  Zn1       1.0  0.09156463582096562  0.3993450438260524  0.22572984601008983  1.0000
  Zn  Zn2       1.0  0.9084347674987612  0.6006536889773741  0.7742735278066064  1.0000
  H   H1        1.0  0.6519154606626074  0.9773664805157836  0.39472897974162896  1.0000
  H   H2        1.0  0.3480823769421093  0.022630156708729  0.6052752997313036  1.0000
  H   H3        1.0  0.059298153549832505  0.8928360660108865  0.22215078937196622  1.0000
  H   H4        1.0  0.9407065317684271  0.1071616190030866  0.7778445561759  1.0000
  H   H5        1.0  0.4074271757856707  0.2234222416573743  0.364230601988389  1.0000
  H   H6        1.0  0.592574432936253  0.7765764911460522  0.6357679011236216  1.0000
  H   H7        1.0  0.4639498433311573  0.7932206266825972  0.3169784635234692  1.0000
  H   H8        1.0  0.5360435834691728  0.2067760105419225  0.6830269590121745  1.0000
  H   H9        1.0  0.8664986322149417  0.6034167097774912  0.2098133749983049  1.0000
  H   H10       1.0  0.1334970548212766  0.3965851663943099  0.790194050592902  1.0000
  H   H11       1.0  0.23977200267775348  0.1469713316612768  0.1183389184594219  1.0000
  H   H12       1.0  0.7602367400983638  0.8530347356683592  0.8816644310120125  1.0000
  H   H13       1.0  0.043390854680055206  0.1162281411810966  0.6087030115151677  1.0000
  H   H14       1.0  0.9566140621451568  0.88377059162233  0.3912955555512312  1.0000
  H   H15       1.0  0.5966015727795482  0.6527707366064277  0.21203989956005392  1.0000
  H   H16       1.0  0.40339870173431797  0.3472269484075454  0.7879621165591004  1.0000
  H   H17       1.0  0.4427070238159417  0.5156371001640778  0.21171164201591353  1.0000
  H   H18       1.0  0.5572932506979242  0.48436058484989525  0.7882873032651433  1.0000
  H   H19       1.0  0.1569027365577327  0.413038604249536  0.4540649738314785  1.0000
  H   H20       1.0  0.8430968982689535  0.5869611763433511  0.5459336373247085  1.0000
  H   H21       1.0  0.7784587282995262  0.1936681644253255  0.2471292579887533  1.0000
  H   H22       1.0  0.22154392828979752  0.8063253294308126  0.7528642351839923  1.0000
  H   H23       1.0  0.7751677844482429  0.0719160772229088  0.5550629654260748  1.0000
  H   H24       1.0  0.2248362063491385  0.9280784644226899  0.44493684142142353  1.0000
  H   H25       1.0  0.036069326414789805  0.212477032981603  0.8961536616847284  1.0000
  H   H26       1.0  0.9639317522873371  0.7875342732953214  0.10385088481148592  1.0000
  H   H27       1.0  0.5033322999979007  0.2711385735638316  0.21816302025050766  1.0000
  H   H28       1.0  0.4966687908764129  0.7288528247133996  0.7818283077403763  1.0000
  H   H29       1.0  0.9901052571947843  0.4127462709908229  0.03550296461716584  1.0000
  H   H30       1.0  0.009900177478044711  0.5872597963388131  0.9645015492351237  1.0000
  H   H31       1.0  0.8894181398541079  0.3669033866348457  0.39986298421133887  1.0000
  H   H32       1.0  0.1105770293345003  0.633091155010753  0.6001372662587415  1.0000
  H   H33       1.0  0.2762494645323699  0.8827165154278235  0.059662322557024125  1.0000
  H   H34       1.0  0.7237508648151945  0.1172864085334382  0.9403361264728645  1.0000
  H   H35       1.0  0.5812691444269689  0.2060844694997996  0.4966476526556108  1.0000
  H   H36       1.0  0.41873397517627353  0.7939111199352595  0.5033559685599089  1.0000
  H   H37       1.0  0.6379776498397476  0.2742180267801899  0.4083105303205201  1.0000
  H   H38       1.0  0.3620215219730198  0.7257796582337832  0.5916926928157409  1.0000
  H   H39       1.0  0.1899567584778339  0.0239954263721955  0.8757582425851993  1.0000
  H   H40       1.0  0.8100403176001337  0.9760127365363543  0.12424333124483418  1.0000
  H   H41       1.0  0.11608332081526383  0.9262364505559476  0.9478100405206079  1.0000
  H   H42       1.0  0.8839137552626963  0.0737717123526025  0.05219153330942561  1.0000
  H   H43       1.0  0.720313407647744  0.4268076055139787  0.05727350242940332  1.0000
  H   H44       1.0  0.2796908694902953  0.5731932228683689  0.9427271871825911  1.0000
  H   H45       1.0  0.46778425938787654  0.1283363961549853  0.888709348381049  1.0000
  H   H46       1.0  0.5322151987655488  0.8716675755957297  0.1112892300111454  1.0000
  H   H47       1.0  0.31992570059251346  0.5984491399582481  0.09530211397726876  1.0000
  H   H48       1.0  0.6800779368583463  0.4015537840030134  0.9046976273422446  1.0000
  H   H49       1.0  0.4668298927568699  0.4126383486766727  0.5778602156122404  1.0000
  H   H50       1.0  0.5331679996815382  0.5873635274951283  0.4221368117657037  1.0000
  C   C1        1.0  0.2567463639056555  0.8271459537459904  0.2646540779507803  1.0000
  C   C2        1.0  0.7432506025049223  0.1728517312679827  0.735343575040652  1.0000
  C   C3        1.0  0.17087798776469754  0.9253845977267829  0.2553429771089882  1.0000
  C   C4        1.0  0.8291222867491754  0.0746130872871902  0.7446541256692143  1.0000
  C   C5        1.0  0.2268433979648137  0.0669767977190219  0.2913619729809441  1.0000
  C   C6        1.0  0.7731577477431912  0.9330198395054907  0.7086356146025707  1.0000
  C   C7        1.0  0.3685420947441642  0.1119060096678339  0.3365985506396143  1.0000
  C   C8        1.0  0.6314562058744642  0.8880927231355998  0.663400502685626  1.0000
  C   C9        1.0  0.52427987387847  0.516088697420372  0.08823713301217852  1.0000
  C   C10       1.0  0.47572155817019285  0.4839142265408896  0.9117625656710757  1.0000
  C   C11       1.0  0.1872003861061344  0.6758619206765744  0.22957572148960284  1.0000
  C   C12       1.0  0.8127935037081145  0.3241368121268593  0.7704244748983556  1.0000
  C   C13       1.0  0.1347695521883807  0.1686165662797094  0.2748327980262887  1.0000
  C   C14       1.0  0.8652337989218212  0.8313800709448032  0.7251654463611035  1.0000
  C   C15       1.0  0.3988549842376941  0.8704469008774396  0.30847805057952377  1.0000
  C   C16       1.0  0.6011393137567681  0.1295486885576196  0.6915235575881056  1.0000
  C   C17       1.0  0.117087095575755  0.2687684738103755  0.53569650683135  1.0000
  C   C18       1.0  0.8829116680567993  0.7312323545719721  0.464304076190004  1.0000
  C   C19       1.0  0.45832111234282286  0.0142384109415161  0.3445516271280127  1.0000
  C   C20       1.0  0.5416778279629852  0.9857582262829965  0.6554489886573336  1.0000
  C   C21       1.0  0.8059175304339021  0.5034324485600692  0.21791486987172703  1.0000
  C   C22       1.0  0.1940823358997434  0.4965683798222784  0.7820881911382287  1.0000
  C   C23       1.0  0.3546289270269583  0.007083056734465699  0.9709518250586628  1.0000
  C   C24       1.0  0.6453720968414771  0.9929230105951703  0.02904584767730264  1.0000
  C   C25       1.0  0.1787153135391293  0.1936943591617677  0.0778734744203149  1.0000
  C   C26       1.0  0.821287915731503  0.8063117081678612  0.9221279259576252  1.0000
  C   C27       1.0  0.008985877061327604  0.1706293698280703  0.5627526783533058  1.0000
  C   C28       1.0  0.9910135262583993  0.8293693629753633  0.437246396290064  1.0000
  C   C29       1.0  0.5496764238701957  0.541228309880438  0.18358975545497466  1.0000
  C   C30       1.0  0.45032826144806404  0.45876937513353505  0.8164135742719341  1.0000
  C   C31       1.0  0.2740651121108826  0.2955625458242466  0.5715773021748234  1.0000
  C   C32       1.0  0.7259327803275255  0.7044393303475545  0.4284209535383638  1.0000
  C   C33       1.0  0.8143721334853637  0.21692804259816967  0.4737466845448139  1.0000
  C   C34       1.0  0.18562790952154273  0.7830685946263429  0.5262551808938981  1.0000
  C   C35       1.0  0.0735032439154963  0.33910029337315  0.4765694750491534  1.0000
  C   C36       1.0  0.9264939540020407  0.6608984394302837  0.5234301711255753  1.0000
  C   C37       1.0  0.7538703261755586  0.2894843191797705  0.2350363333785737  1.0000
  C   C38       1.0  0.2461294853243956  0.7105112702552816  0.7649586255358969  1.0000
  C   C39       1.0  0.8589020289473837  0.1455777716824542  0.5321369555109073  1.0000
  C   C40       1.0  0.1410991167606284  0.8544188655420654  0.46786431707832327  1.0000
  C   C41       1.0  0.0713174569545956  0.2281393897962189  0.9624309205455432  1.0000
  C   C42       1.0  0.9286847244486367  0.7718719164807055  0.03757241893355712  1.0000
  C   C43       1.0  0.6189704356999287  0.3265414889324205  0.2205732319344804  1.0000
  C   C44       1.0  0.3810291442930661  0.6734530527131781  0.7794203479643116  1.0000
  C   C45       1.0  0.04742787648913801  0.3265194853538063  0.03181808736226801  1.0000
  C   C46       1.0  0.9525780211976027  0.6734886775547437  0.9681861136832738  1.0000
  C   C47       1.0  0.9231727978762336  0.3123387028324629  0.4458596213200394  1.0000
  C   C48       1.0  0.0768239370273847  0.6876579343920497  0.554141565996666  1.0000
  C   C49       1.0  0.3743061073596436  0.9345558988505687  0.033432641032227706  1.0000
  C   C50       1.0  0.6256924795996426  0.0654491206896068  0.9665629958841822  1.0000
  C   C51       1.0  0.6513551609721517  0.1930510164347012  0.4419142660180739  1.0000
  C   C52       1.0  0.3486429081395244  0.8069466685792648  0.5580895499676757  1.0000
  C   C53       1.0  0.1989875176749933  0.0186087407698423  0.9421862652171171  1.0000
  C   C54       1.0  0.8010139143736694  0.9813941831914191  0.057814047633755264  1.0000
  C   C55       1.0  0.6230871207749403  0.45950701891180046  0.03289516677047291  1.0000
  C   C56       1.0  0.37691431127372255  0.5404959050494611  0.9671051460803995  1.0000
  C   C57       1.0  0.4815131820771442  0.0720418119578383  0.9376064580660852  1.0000
  C   C58       1.0  0.5184840706740843  0.9279621597928767  0.0623902351869958  1.0000
  C   C59       1.0  0.40053944825690024  0.5560660563917992  0.054138313245346105  1.0000
  C   C60       1.0  0.5994575729873689  0.4439368675694624  0.9458588434949179  1.0000
  N   N1        1.0  0.11467790430813102  0.3038296046459834  0.10331569382109511  1.0000
  N   N2        1.0  0.885325787976413  0.6961785582625666  0.8966866220853336  1.0000
  N   N3        1.0  0.8699868313565845  0.4009376838018497  0.2329357884617096  1.0000
  N   N4        1.0  0.13001170076901053  0.5990620967910374  0.767064029711591  1.0000
  N   N5        1.0  0.6540571834029976  0.4622501317122172  0.21026130506455593  1.0000
  N   N6        1.0  0.345943730798048  0.537745457722842  0.7897373601737528  1.0000
  N   N7        1.0  0.1549100684688582  0.1450287300065867  0.9926571197355543  1.0000
  N   N8        1.0  0.8450925211145943  0.8549794329019632  0.007343946517508475  1.0000
  N   N9        1.0  0.6011365506106827  0.055473117262259605  0.3850927555627166  1.0000
  N   N10       1.0  0.3988634923962309  0.944523519962253  0.6149097240436134  1.0000
  O   O1        1.0  0.2272472303835968  0.587221028128873  0.26831233590997533  1.0000
  O   O2        1.0  0.7727468909376115  0.4127787524640141  0.7316873969908074  1.0000
  O   O3        1.0  0.20584317817159098  0.2986367600933164  0.2886750978000592  1.0000
  O   O4        1.0  0.7941570963422819  0.7013609249206567  0.711325075816241  1.0000
  O   O5        1.0  0.09175824009630422  0.6414053643580928  0.16644745838449646  1.0000
  O   O6        1.0  0.9082349551970665  0.3585902250769664  0.8335541284650034  1.0000
  O   O7        1.0  0.0008433029994207999  0.1253470528319909  0.24419359443955813  1.0000
  O   O8        1.0  0.999161613825791  0.8746516799714356  0.7558012876211322  1.0000
  O   O9        1.0  0.32185165804928323  0.2282515032681971  0.6174491227587566  1.0000
  O   O10       1.0  0.6781482082843624  0.7717493251141505  0.3825508674131086  1.0000
  O   O11       1.0  0.3663728313246822  0.4053373517349925  0.5507736274426378  1.0000
  O   O12       1.0  0.633625932307865  0.5946634766473551  0.4492238847406185  1.0000
