data_image0
_chemical_formula_structural       Gd4H44C64N8O20
_chemical_formula_sum              "Gd4 H44 C64 N8 O20"
_cell_length_a       8.322318023447075
_cell_length_b       14.079755901243177
_cell_length_c       13.991862482997286
_cell_angle_alpha    84.9834978842647
_cell_angle_beta     72.69854294614862
_cell_angle_gamma    72.90109833771265

_space_group_name_H-M_alt    "P 1"
_space_group_IT_number       1

loop_
  _space_group_symop_operation_xyz
  'x, y, z'

loop_
  _atom_site_type_symbol
  _atom_site_label
  _atom_site_symmetry_multiplicity
  _atom_site_fract_x
  _atom_site_fract_y
  _atom_site_fract_z
  _atom_site_occupancy
  Gd  Gd1       1.0  0.2206116978994429  0.8602816603839045  0.0236181817943546  1.0000
  Gd  Gd2       1.0  0.9201200857188425  0.9762706605951902  0.8595772550043393  1.0000
  Gd  Gd3       1.0  0.10456729000271281  0.13977230120174505  0.976548300898429  1.0000
  Gd  Gd4       1.0  0.7557959916122671  0.02367830184749665  0.1404709533794346  1.0000
  H   H1        1.0  0.2832463877602649  0.9707379960979734  0.8462347152337273  1.0000
  H   H2        1.0  0.7483746116089022  0.1522608165619417  0.969694379548578  1.0000
  H   H3        1.0  0.09981489990298799  0.029448174211388796  0.1539040703107446  1.0000
  H   H4        1.0  0.8701660727745449  0.8477046044510033  0.0303538288351959  1.0000
  H   H5        1.0  0.9843823369469077  0.9850285550054138  0.5910990649858547  1.0000
  H   H6        1.0  0.03147853637323548  0.4069869598490853  0.9843618910087102  1.0000
  H   H7        1.0  0.56020947644366  0.015122723977249591  0.4091400291498033  1.0000
  H   H8        1.0  0.42219681592497693  0.592752173520779  0.01574919738745  1.0000
  H   H9        1.0  0.8247168932371522  0.9648680134824728  0.4703582126350341  1.0000
  H   H10       1.0  0.21102398576637416  0.5273005532070271  0.9644491385155547  1.0000
  H   H11       1.0  0.25983529820290835  0.035476339376856486  0.5300216129569151  1.0000
  H   H12       1.0  0.7018519963832971  0.47259208221014143  0.0357158470340835  1.0000
  H   H13       1.0  0.4734229256631368  0.8591039566083011  0.70128505811509  1.0000
  H   H14       1.0  0.6679372240182601  0.2985120523210936  0.8590300491822873  1.0000
  H   H15       1.0  0.03391694974102679  0.14106042620596068  0.299206304641686  1.0000
  H   H16       1.0  0.8255106240941718  0.701696393020029  0.140610936264153  1.0000
  H   H17       1.0  0.9009728836506168  0.7141840402685488  0.860545158052112  1.0000
  H   H18       1.0  0.38455469994435976  0.13927595386882524  0.7144644092821295  1.0000
  H   H19       1.0  0.4751593355084013  0.28551756381548893  0.1392350617074598  1.0000
  H   H20       1.0  0.2372156061759441  0.8610792885072555  0.2855104390871972  1.0000
  H   H21       1.0  0.6836977624486736  0.6308612069764192  0.8512059790699383  1.0000
  H   H22       1.0  0.6853998701310215  0.14865213389957424  0.6311109642945993  1.0000
  H   H23       1.0  0.16534255352823374  0.3682894448990125  0.1487097321448871  1.0000
  H   H24       1.0  0.4644362652006321  0.8518144975497888  0.3686033811662882  1.0000
  H   H25       1.0  0.781224200285166  0.466403947230205  0.766342665213621  1.0000
  H   H26       1.0  0.7533280427554274  0.23406646081443938  0.4661018346538982  1.0000
  H   H27       1.0  0.013532085380475671  0.5327321327409321  0.23352738313507612  1.0000
  H   H28       1.0  0.45308968376517794  0.7662140469900293  0.533465790778088  1.0000
  H   H29       1.0  0.09632545173435128  0.3914229537182763  0.6812098655899349  1.0000
  H   H30       1.0  0.5139730506341779  0.31942678311751377  0.3907925398220584  1.0000
  H   H31       1.0  0.16816536240661872  0.6081015769098028  0.3187769599246124  1.0000
  H   H32       1.0  0.22398365501708634  0.6805025800574354  0.6088963542052426  1.0000
  H   H33       1.0  0.4029774590939896  0.4005112159806926  0.6282940894541156  1.0000
  H   H34       1.0  0.1987343530004964  0.3722281717284658  0.39953361011500027  1.0000
  H   H35       1.0  0.43061803585937514  0.5993944480231332  0.37177882179167204  1.0000
  H   H36       1.0  0.9699396171889134  0.6276776438997657  0.6003686268114592  1.0000
  H   H37       1.0  0.6219056985507334  0.4853495771068807  0.6351966679564072  1.0000
  H   H38       1.0  0.8947162665109545  0.3652236894965525  0.48432506110003  1.0000
  H   H39       1.0  0.7411104018142536  0.5150578986585471  0.36490019757981434  1.0000
  H   H40       1.0  0.7430849090183003  0.6348626446383817  0.5159671816175262  1.0000
  H   H41       1.0  0.527763383218904  0.6404840674927639  0.7353622819693088  1.0000
  H   H42       1.0  0.8326147257956505  0.2645147293761667  0.6396970802713113  1.0000
  H   H43       1.0  0.9024004369013738  0.36018655759261253  0.264468840657436  1.0000
  H   H44       1.0  0.7356851620065543  0.7355880622865029  0.3606123795924887  1.0000
  C   C1        1.0  0.6769930326899926  0.8975306322091468  0.7428846777365266  1.0000
  C   C2        1.0  0.42627060664452887  0.2566530502718933  0.8973471824429708  1.0000
  C   C3        1.0  0.31737317642983226  0.10222247006458215  0.2574060678378771  1.0000
  C   C4        1.0  0.5801153532451553  0.7433718217149942  0.10252211733414643  1.0000
  C   C5        1.0  0.8715127489761514  0.9553660049454107  0.6155698698052775  1.0000
  C   C6        1.0  0.17397656973944425  0.38284920417134316  0.9548382280512941  1.0000
  C   C7        1.0  0.44226909479569804  0.04470135290756623  0.3846864414766316  1.0000
  C   C8        1.0  0.5111692849393706  0.6169783917489511  0.0451837803273207  1.0000
  C   C9        1.0  0.7811779280903931  0.94471603637038  0.5489964052653491  1.0000
  C   C10       1.0  0.27477659125111836  0.4492410416684435  0.9442893574023117  1.0000
  C   C11       1.0  0.27479112361025676  0.05549035367211989  0.4513572203214409  1.0000
  C   C12       1.0  0.6675904101895181  0.5507035175916071  0.055737890977340505  1.0000
  C   C13       1.0  0.5886702324475199  0.8869736117852295  0.6754533501704998  1.0000
  C   C14       1.0  0.5249169883142528  0.32395062640696176  0.8867548946425785  1.0000
  C   C15       1.0  0.15111635440632643  0.11307115221450906  0.3249654011434018  1.0000
  C   C16       1.0  0.7354141766865181  0.6762240056365697  0.1129923879676511  1.0000
  C   C17       1.0  0.6177513914323571  0.8740658710964195  0.8529426651262568  1.0000
  C   C18       1.0  0.5089725196383128  0.14726435955686415  0.8739528235498355  1.0000
  C   C19       1.0  0.3447077670029799  0.12564656156697399  0.1473226290145604  1.0000
  C   C20       1.0  0.5301210865439714  0.852744274571222  0.126039990537322  1.0000
  C   C21       1.0  0.2553292168435064  0.6467597336279167  0.7797488335681919  1.0000
  C   C22       1.0  0.09837177028133935  0.22026842865777488  0.6462089044109334  1.0000
  C   C23       1.0  0.6810027691833368  0.3534665652880377  0.2199797347526342  1.0000
  C   C24       1.0  0.9640458085987333  0.7797959068477381  0.353837806829695  1.0000
  C   C25       1.0  0.12573052029316056  0.6012572223386385  0.7749512383376072  1.0000
  C   C26       1.0  0.2735841364210145  0.22521265293040216  0.6009981755068736  1.0000
  C   C27       1.0  0.5011951920173631  0.3986372965757425  0.2248222442777745  1.0000
  C   C28       1.0  0.0990526912489571  0.7749002835929559  0.3989766728624602  1.0000
  C   C29       1.0  0.9440823663646967  0.6434378672970881  0.821565538946672  1.0000
  C   C30       1.0  0.4126059672764552  0.1783685849088741  0.6434459267239205  1.0000
  C   C31       1.0  0.4084816303494847  0.3562361234601  0.17819297223719846  1.0000
  C   C32       1.0  0.23362260631217427  0.8218972491158211  0.3564465787720579  1.0000
  C   C33       1.0  0.822774897937236  0.5964888948836276  0.8166376922618639  1.0000
  C   C34       1.0  0.581015038018755  0.183332036888565  0.5964925231909319  1.0000
  C   C35       1.0  0.23543625844959604  0.4029009948814347  0.1832076532248195  1.0000
  C   C36       1.0  0.3602050312152653  0.8169552856659053  0.40324053655935194  1.0000
  C   C37       1.0  0.8780914233601822  0.5040952625748787  0.7669969167710421  1.0000
  C   C38       1.0  0.6187078018031682  0.23324761487249646  0.503817116367479  1.0000
  C   C39       1.0  0.14867886598888463  0.4952718000135902  0.2328439372861837  1.0000
  C   C40       1.0  0.35532906388980495  0.7669272331811069  0.49582237193580886  1.0000
  C   C41       1.0  0.05337538404573639  0.4620952709122219  0.7199529360773624  1.0000
  C   C42       1.0  0.4858583584766192  0.2804569040801539  0.4616193880568176  1.0000
  C   C43       1.0  0.23475807900664594  0.5375032079006414  0.2799298379881279  1.0000
  C   C44       1.0  0.22757057278544587  0.7195117167967665  0.53809420883249  1.0000
  C   C45       1.0  0.18145904644246955  0.509562279726765  0.7211588848862932  1.0000
  C   C46       1.0  0.31020022173260725  0.2791653962489348  0.5090279231080075  1.0000
  C   C47       1.0  0.4113939442968045  0.4902819456214828  0.278684214885665  1.0000
  C   C48       1.0  0.09783255761750828  0.7208245879931069  0.490827153809164  1.0000
  C   C49       1.0  0.36205032961824907  0.46932998944224374  0.6704304348955432  1.0000
  C   C50       1.0  0.17038311636376585  0.32993133257907903  0.46849576655395  1.0000
  C   C51       1.0  0.5007792358341802  0.5306880403395624  0.329542916330638  1.0000
  C   C52       1.0  0.968086406044243  0.6700341434938436  0.5314543789533772  1.0000
  C   C53       1.0  0.48339566660972355  0.5166080747598584  0.6744607442607276  1.0000
  C   C54       1.0  0.001578640014912495  0.32585019981697627  0.5157336272858117  1.0000
  C   C55       1.0  0.673279714092935  0.48369090394443487  0.3255275783969722  1.0000
  C   C56       1.0  0.8421909395732354  0.6741915472850479  0.4844051582586602  1.0000
  C   C57       1.0  0.43035091432167866  0.6047601117105825  0.730879835372221  1.0000
  C   C58       1.0  0.9657695591439505  0.26923514698448503  0.6040426161064616  1.0000
  C   C59       1.0  0.7648885886167704  0.3956862710111936  0.2689617672565845  1.0000
  C   C60       1.0  0.8380702126177436  0.7308231666649903  0.3961238665863291  1.0000
  C   C61       1.0  0.19776405037814704  0.7402816086886332  0.8398973082713184  1.0000
  C   C62       1.0  0.06193633444752311  0.15971690689747217  0.7396530942429322  1.0000
  C   C63       1.0  0.7775314596522519  0.2600156846263175  0.1598589571978195  1.0000
  C   C64       1.0  0.9607492515278507  0.8403055805429175  0.2603472055599809  1.0000
  N   N1        1.0  0.8180577597716624  0.9330364915510783  0.7125113860403474  1.0000
  N   N2        1.0  0.24975752330876583  0.2865822445542036  0.9326670351133474  1.0000
  N   N3        1.0  0.4634779054815183  0.06676500704990931  0.2876955195175412  1.0000
  N   N4        1.0  0.4687457096983538  0.7132679077831339  0.0673295218316881  1.0000
  N   N5        1.0  0.6389242312142542  0.9115092086830996  0.5784279939189148  1.0000
  N   N6        1.0  0.450126620956581  0.4202987240157511  0.9111740480232556  1.0000
  N   N7        1.0  0.12884663458901702  0.08869203856144028  0.4220124659706883  1.0000
  N   N8        1.0  0.7810279337534355  0.5798356139738983  0.0886855203233736  1.0000
  O   O1        1.0  0.48359151274854634  0.8426958307043151  0.8834559397071473  1.0000
  O   O2        1.0  0.6744275891066637  0.11698737013988134  0.8430308288884518  1.0000
  O   O3        1.0  0.2097154653002775  0.1570650298516512  0.1169111601680086  1.0000
  O   O4        1.0  0.6344063124329439  0.883165392217222  0.156896859471594  1.0000
  O   O5        1.0  0.7081490981259575  0.8871137255142612  0.9070172300617259  1.0000
  O   O6        1.0  0.4054058346079045  0.09349401519509117  0.8864899003046746  1.0000
  O   O7        1.0  0.5020986541497904  0.11262774912017896  0.0931859326382849  1.0000
  O   O8        1.0  0.38532892727602813  0.9063552919403717  0.1137304795415872  1.0000
  O   O9        1.0  0.2265544883239769  0.731510998479031  0.9251775764954715  1.0000
  O   O10       1.0  0.04261765346076618  0.07489560556755487  0.7301088066489428  1.0000
  O   O11       1.0  0.8833309618184585  0.26881103743225754  0.0747381347193539  1.0000
  O   O12       1.0  0.8473997207077346  0.9250824306750117  0.2698488245741402  1.0000
  O   O13       1.0  0.12238769826440438  0.8206574319652585  0.8027471980976202  1.0000
  O   O14       1.0  0.05617020799760302  0.19629621124872185  0.8209651845427146  1.0000
  O   O15       1.0  0.745452004529973  0.17952153108967644  0.1969955930831517  1.0000
  O   O16       1.0  0.07276027235190707  0.8037080102648699  0.1790643095516629  1.0000
  O   O17       1.0  0.17439945254459116  0.9834833297803198  0.9002553830157255  1.0000
  O   O18       1.0  0.843543731263793  0.09886715385305674  0.9835070222689241  1.0000
  O   O19       1.0  0.057940057357399176  0.016508374161872997  0.099848219664679  1.0000
  O   O20       1.0  0.9259466528387681  0.9011322002449942  0.016504506107637  1.0000
