data_image0
_chemical_formula_structural       Yb4P4H24C8O28
_chemical_formula_sum              "Yb4 P4 H24 C8 O28"
_cell_length_a       6.7874147074556905
_cell_length_b       6.975629907018166
_cell_length_c       15.258481078983989
_cell_angle_alpha    90.00004641930515
_cell_angle_beta     90.00130083220327
_cell_angle_gamma    90.00026127822638

_space_group_name_H-M_alt    "P 1"
_space_group_IT_number       1

loop_
  _space_group_symop_operation_xyz
  'x, y, z'

loop_
  _atom_site_type_symbol
  _atom_site_label
  _atom_site_symmetry_multiplicity
  _atom_site_fract_x
  _atom_site_fract_y
  _atom_site_fract_z
  _atom_site_occupancy
  Yb  Yb1       1.0  0.7499963075662636  0.5046264351655054  0.8549651244512975  1.0000
  Yb  Yb2       1.0  0.2500041392406231  0.004627261181561  0.6450320467734232  1.0000
  Yb  Yb3       1.0  0.2500087233443722  0.4953738800854807  0.14503413565779516  1.0000
  Yb  Yb4       1.0  0.7499949984165752  0.9953759211807521  0.3549672133064093  1.0000
  P   P1        1.0  0.25000612453001037  0.6874331550820968  0.834238419364596  1.0000
  P   P2        1.0  0.750004007446222  0.18743913546144603  0.6657712691281861  1.0000
  P   P3        1.0  0.7500047995972994  0.3125628594940579  0.16575953002703878  1.0000
  P   P4        1.0  0.24999218357763206  0.8125626133319417  0.33422799093651195  1.0000
  H   H1        1.0  0.8639031366881583  0.8181724517761281  0.7277414277373783  1.0000
  H   H2        1.0  0.13609286634104484  0.31817013235789915  0.7722656857669465  1.0000
  H   H3        1.0  0.36391322844131935  0.18182694228831756  0.27225963841105033  1.0000
  H   H4        1.0  0.6360890440147033  0.6818239362488895  0.22773963272074138  1.0000
  H   H5        1.0  0.13610189428257513  0.18183216416354503  0.27225979849216503  1.0000
  H   H6        1.0  0.8639077446581427  0.6818230150734905  0.22773554043823205  1.0000
  H   H7        1.0  0.6360918025060656  0.8181748065261659  0.7277409324447537  1.0000
  H   H8        1.0  0.36391009370606053  0.31817781255354294  0.7722622488517532  1.0000
  H   H9        1.0  0.8724267688646564  0.7199885588936822  0.005705626557123402  1.0000
  H   H10       1.0  0.1275594735186516  0.21998087536543653  0.49429431346158764  1.0000
  H   H11       1.0  0.3724564772623325  0.2800094399891151  0.9942902828093882  1.0000
  H   H12       1.0  0.6275452423134738  0.7800131548260512  0.5057037096643315  1.0000
  H   H13       1.0  0.1275723688026318  0.2800117563446491  0.9942942888954323  1.0000
  H   H14       1.0  0.8724234576634373  0.7800180062735433  0.5057049465356231  1.0000
  H   H15       1.0  0.6275426604786248  0.719986574565347  0.005712909508538601  1.0000
  H   H16       1.0  0.3724421088471104  0.2199857268240848  0.4942968611016668  1.0000
  H   H17       1.0  0.38198983670309167  0.9521780763938423  0.9152943832733913  1.0000
  H   H18       1.0  0.6180568782203295  0.4521603770276101  0.5847062244930189  1.0000
  H   H19       1.0  0.8819757854988026  0.047834301029240606  0.08470031173357033  1.0000
  H   H20       1.0  0.11800229441859503  0.5478364774527406  0.4152917024350985  1.0000
  H   H21       1.0  0.6180343472727686  0.047816504650448594  0.08470422155819082  1.0000
  H   H22       1.0  0.3819437327987388  0.5478413717775297  0.4152950017136946  1.0000
  H   H23       1.0  0.11804987177850992  0.9521688813909107  0.9152969823605308  1.0000
  H   H24       1.0  0.8819909498416223  0.452158103518343  0.5847029700008409  1.0000
  C   C1        1.0  0.2499896691209429  0.8631879747102146  0.9240553853802641  1.0000
  C   C2        1.0  0.7500035951225571  0.36317658712025747  0.5759438796671434  1.0000
  C   C3        1.0  0.7500124151629707  0.13681377409643153  0.07594387471420565  1.0000
  C   C4        1.0  0.24999701580959066  0.6368237281195732  0.4240540696731687  1.0000
  C   C5        1.0  0.2500383985801307  0.7710535215344905  0.012756929420945105  1.0000
  C   C6        1.0  0.7499672329523223  0.271028554854098  0.48724565037798595  1.0000
  C   C7        1.0  0.7499710523790313  0.22895539510320614  0.9872456075781462  1.0000
  C   C8        1.0  0.2500156982297668  0.728970326784882  0.5127536096192318  1.0000
  O   O1        1.0  0.7499986336762988  0.7476538541566312  0.7508820685328391  1.0000
  O   O2        1.0  0.2500044099320746  0.2476505709840282  0.7491230537641658  1.0000
  O   O3        1.0  0.2500049239761069  0.2523493282174343  0.24911915768900175  1.0000
  O   O4        1.0  0.7500020943371056  0.752346877147488  0.25087817247153776  1.0000
  O   O5        1.0  0.750007056539559  0.7056693162729106  0.9693290993674499  1.0000
  O   O6        1.0  0.2499854798363188  0.2056713653823081  0.5306766632932141  1.0000
  O   O7        1.0  0.2499891345212077  0.2943266982731245  0.030672126815908005  1.0000
  O   O8        1.0  0.7500033446058367  0.7943275162699309  0.46932259673376125  1.0000
  O   O9        1.0  0.4359987975273683  0.56440669812077  0.841941283068302  1.0000
  O   O10       1.0  0.5639975057948946  0.0644075269659368  0.6580618077919171  1.0000
  O   O11       1.0  0.9360005948654262  0.43558298529142536  0.15805920059485604  1.0000
  O   O12       1.0  0.06399990375158641  0.9356048536544957  0.3419342625767073  1.0000
  O   O13       1.0  0.564004760021554  0.4355878828765256  0.15805666628587298  1.0000
  O   O14       1.0  0.4360016318490524  0.9355899211472051  0.3419374522868993  1.0000
  O   O15       1.0  0.06399559627200091  0.56442449775475  0.8419439917102312  1.0000
  O   O16       1.0  0.935994813960562  0.06439832869787672  0.6580649974808069  1.0000
  O   O17       1.0  0.2500057142854999  0.8050826675706021  0.7497542774850461  1.0000
  O   O18       1.0  0.7500020145537006  0.30509167049695657  0.7502436561919483  1.0000
  O   O19       1.0  0.7499963699116564  0.19491047985987825  0.2502423611149781  1.0000
  O   O20       1.0  0.2499941765035985  0.6949100782976458  0.249756914619205  1.0000
  O   O21       1.0  0.4114306150759077  0.7256945751748631  0.05095878661975213  1.0000
  O   O22       1.0  0.5885703870300675  0.22567884716085723  0.4490496753568679  1.0000
  O   O23       1.0  0.9114484546737174  0.274320801877451  0.9490375167037544  1.0000
  O   O24       1.0  0.08853408564846181  0.774325042547389  0.5509617166323724  1.0000
  O   O25       1.0  0.5885803091883305  0.2743100407792625  0.9490437503860112  1.0000
  O   O26       1.0  0.4114110708838582  0.7743186009143271  0.5509515507523305  1.0000
  O   O27       1.0  0.0885595227030578  0.7256809469364212  0.05095518968819593  1.0000
  O   O28       1.0  0.9114488455703836  0.22567527265509568  0.4490388541115495  1.0000
