data_image0
_chemical_formula_structural       Mn2H26C32N4O10
_chemical_formula_sum              "Mn2 H26 C32 N4 O10"
_cell_length_a       7.6480596885935705
_cell_length_b       9.663585420473064
_cell_length_c       10.865120928607483
_cell_angle_alpha    84.11892838813677
_cell_angle_beta     72.05338281018967
_cell_angle_gamma    67.61136645572309

_space_group_name_H-M_alt    "P 1"
_space_group_IT_number       1

loop_
  _space_group_symop_operation_xyz
  'x, y, z'

loop_
  _atom_site_type_symbol
  _atom_site_label
  _atom_site_symmetry_multiplicity
  _atom_site_fract_x
  _atom_site_fract_y
  _atom_site_fract_z
  _atom_site_occupancy
  Mn  Mn1       1.0  0.9196522269658304  0.14783026327666704  0.8028276708046319  1.0000
  Mn  Mn2       1.0  0.08035166481185739  0.8521684209087255  0.19717272194568378  1.0000
  H   H1        1.0  0.2961502983547747  0.5002685008161477  0.8347130377198653  1.0000
  H   H2        1.0  0.7038647842059903  0.49972678144403193  0.16528057509786004  1.0000
  H   H3        1.0  0.2869342964057396  0.5344424329997891  0.9937328309967555  1.0000
  H   H4        1.0  0.7130788599388114  0.4655539816553542  0.0062601866190305465  1.0000
  H   H5        1.0  0.09123752265995931  0.3617849813687783  0.0743568633369378  1.0000
  H   H6        1.0  0.908781934068415  0.6382069207842065  0.9256370048158048  1.0000
  H   H7        1.0  0.21659511257917796  0.8208377032396256  0.8767503072512283  1.0000
  H   H8        1.0  0.7833936128680323  0.17916108139103668  0.1232534466250925  1.0000
  H   H9        1.0  0.532343578324678  0.6190403486274291  0.7602798282773051  1.0000
  H   H10       1.0  0.4676512684164112  0.38096286234974736  0.2397212429637107  1.0000
  H   H11       1.0  0.6672226041457067  0.6351147350971117  0.5187488458367328  1.0000
  H   H12       1.0  0.33277503869556574  0.3648884456978223  0.4812543680319976  1.0000
  H   H13       1.0  0.6316128959689067  0.772606352066866  0.31617478516944436  1.0000
  H   H14       1.0  0.3683859005958754  0.22740016833655827  0.683827869050461  1.0000
  H   H15       1.0  0.4455205268644986  0.9945740041615427  0.2066967358713967  1.0000
  H   H16       1.0  0.5544774255400072  0.005431406082841797  0.7933062067504224  1.0000
  H   H17       1.0  0.7526511050732909  0.38808410073833227  0.6028000806058316  1.0000
  H   H18       1.0  0.24734325851817113  0.6119202136366441  0.3972046794455579  1.0000
  H   H19       1.0  0.8687881627540364  0.4359760631415027  0.3621441908364531  1.0000
  H   H20       1.0  0.1312011946814948  0.5640271764149175  0.63785993845989  1.0000
  H   H21       1.0  0.16888038044086784  0.24000117823228354  0.22343752490613866  1.0000
  H   H22       1.0  0.8311087262371474  0.7600054180103226  0.7765645144706  1.0000
  H   H23       1.0  0.6560931179436054  0.06850863716591249  0.9697905593120452  1.0000
  H   H24       1.0  0.3439126871884425  0.9314889185976656  0.03020951072635826  1.0000
  H   H25       1.0  0.8529445198807578  0.9173555150145346  0.9771999446453848  1.0000
  H   H26       1.0  0.14705986790841055  0.08264206179989489  0.022797677208394904  1.0000
  C   C1        1.0  0.46923461488194107  0.31335547307253364  0.9265228948275848  1.0000
  C   C2        1.0  0.5307720215485221  0.6866431968232333  0.07347596889506046  1.0000
  C   C3        1.0  0.2847315710133246  0.45211743890774864  0.9315785566080522  1.0000
  C   C4        1.0  0.7152785311152172  0.5478767605875634  0.0684162612823087  1.0000
  C   C5        1.0  0.09043139252104747  0.4253259928877781  0.98495143256644  1.0000
  C   C6        1.0  0.9095779499766367  0.5746726746378312  0.015043148387007974  1.0000
  C   C7        1.0  0.06409207288856324  0.3362357122826438  0.8885513140702059  1.0000
  C   C8        1.0  0.9359177913443092  0.6637618399256977  0.11144233181439493  1.0000
  C   C9        1.0  0.27926553644684293  0.8248258252932884  0.7722889002496913  1.0000
  C   C10       1.0  0.7207240074369424  0.175174077442712  0.22771272939702675  1.0000
  C   C11       1.0  0.4552353962248646  0.7107539019170944  0.7061356336177128  1.0000
  C   C12       1.0  0.5447558874268809  0.2892482052443626  0.2938690908805697  1.0000
  C   C13       1.0  0.5287060588715492  0.7189787604918153  0.5734483845467436  1.0000
  C   C14       1.0  0.4712857336535237  0.2810222353255227  0.42655448696884696  1.0000
  C   C15       1.0  0.4264193792369539  0.8408550056078851  0.5070765620599147  1.0000
  C   C16       1.0  0.5735765495600733  0.15914596281528756  0.4929253927849402  1.0000
  C   C17       1.0  0.2514556181930414  0.9513179804677138  0.5822030648703915  1.0000
  C   C18       1.0  0.7485380876863986  0.04868188692781669  0.41779948393328686  1.0000
  C   C19       1.0  0.4946387528639918  0.8582663785134415  0.3704117374085669  1.0000
  C   C20       1.0  0.5053574983581159  0.14173681538603938  0.6295908641032283  1.0000
  C   C21       1.0  0.3934391748563115  0.9801532149794382  0.3106792929225222  1.0000
  C   C22       1.0  0.6065579205260719  0.019851089079075696  0.6893230201873592  1.0000
  C   C23       1.0  0.21720388875741756  0.09423186299579807  0.3836543973354338  1.0000
  C   C24       1.0  0.7827896049500538  0.9057713491664502  0.6163488152901805  1.0000
  C   C25       1.0  0.14559004024836505  0.0801333570262912  0.5194427036793954  1.0000
  C   C26       1.0  0.8544053282279122  0.9198687386336175  0.4805574324927733  1.0000
  C   C27       1.0  0.8842956098899606  0.30785239382648644  0.5380181505340929  1.0000
  C   C28       1.0  0.11569512630288159  0.6921508365985429  0.4619856732053407  1.0000
  C   C29       1.0  0.9468298012765646  0.33267202273071206  0.40459472293294846  1.0000
  C   C30       1.0  0.05316251298370392  0.6673278577693578  0.5954072135137949  1.0000
  C   C31       1.0  0.11323784468110891  0.22555014669826082  0.3272219878402751  1.0000
  C   C32       1.0  0.8867547791423861  0.7744519632512662  0.6727796773595642  1.0000
  N   N1        1.0  0.18046199318434478  0.9422249649000988  0.7124085282098277  1.0000
  N   N2        1.0  0.8195303210759237  0.05777491559997121  0.28759340823692264  1.0000
  N   N3        1.0  0.9812389292225705  0.18601126149904695  0.5945458139393338  1.0000
  N   N4        1.0  0.018754538761200513  0.813991958609513  0.4054555628585916  1.0000
  O   O1        1.0  0.4531281691172994  0.2081346894659504  0.003193978703293958  1.0000
  O   O2        1.0  0.5468727401119439  0.7918673617220973  0.9968067710689255  1.0000
  O   O3        1.0  0.6314490346603281  0.3150688376718093  0.8450221345218408  1.0000
  O   O4        1.0  0.3685569697818212  0.6849253772981995  0.15497635378078908  1.0000
  O   O5        1.0  0.028332919071537805  0.21520316142632365  0.9303847808257829  1.0000
  O   O6        1.0  0.9716898169066538  0.7847876071466116  0.06960754114430052  1.0000
  O   O7        1.0  0.06925570620148137  0.3817921766416105  0.7760260891278535  1.0000
  O   O8        1.0  0.9307495000242554  0.6182065182781643  0.2239694084963233  1.0000
  O   O9        1.0  0.7974451777510441  0.0027653393577863968  0.9234645314314989  1.0000
  O   O10       1.0  0.20255697425868377  0.9972311404021571  0.07653276646725261  1.0000
