data_image0
_chemical_formula_structural       Zn2H32C52N12O24
_chemical_formula_sum              "Zn2 H32 C52 N12 O24"
_cell_length_a       5.902505896843437
_cell_length_b       11.727993428794434
_cell_length_c       19.905694554832756
_cell_angle_alpha    98.44290235741002
_cell_angle_beta     90.00411052503908
_cell_angle_gamma    104.5889730747582

_space_group_name_H-M_alt    "P 1"
_space_group_IT_number       1

loop_
  _space_group_symop_operation_xyz
  'x, y, z'

loop_
  _atom_site_type_symbol
  _atom_site_label
  _atom_site_symmetry_multiplicity
  _atom_site_fract_x
  _atom_site_fract_y
  _atom_site_fract_z
  _atom_site_occupancy
  Zn  Zn1       1.0  0.7636771229917303  0.9997058360589864  0.7500578893351745  1.0000
  Zn  Zn2       1.0  0.23633315112630265  0.0002921796855802001  0.2499439773558834  1.0000
  H   H1        1.0  0.7413511464175074  0.5039954633173879  0.7904156676154629  1.0000
  H   H2        1.0  0.23672583427910615  0.49533840844529925  0.7095131830170729  1.0000
  H   H3        1.0  0.25863047848236687  0.49600963300179063  0.20957825845946595  1.0000
  H   H4        1.0  0.763259218640826  0.5046667603556473  0.29049330847500704  1.0000
  H   H5        1.0  0.6618824583137126  0.8545474386868153  0.8630197847943819  1.0000
  H   H6        1.0  0.8071932330079008  0.14473978413761301  0.6372506758860013  1.0000
  H   H7        1.0  0.33813977470790485  0.14545416037359626  0.13698539956109104  1.0000
  H   H8        1.0  0.1928287147961926  0.855251089573777  0.36274857645305053  1.0000
  H   H9        1.0  0.3820021846043886  0.8327427742540863  0.9570760247090604  1.0000
  H   H10       1.0  0.5498434944307391  0.16707155445835303  0.5432221668139121  1.0000
  H   H11       1.0  0.6180121919746852  0.16724989635092416  0.04292589167819471  1.0000
  H   H12       1.0  0.45020385258484213  0.832919294243901  0.45677256200843896  1.0000
  H   H13       1.0  0.28591847398488573  0.5556327723512597  0.9553099366160894  1.0000
  H   H14       1.0  0.729584994811134  0.4443241256450607  0.5447097747591698  1.0000
  H   H15       1.0  0.7140798428119409  0.444361662971211  0.0446891150270545  1.0000
  H   H16       1.0  0.2704217142331445  0.5556836949881829  0.45529292229075224  1.0000
  H   H17       1.0  0.4382639887931176  0.1374330934306798  0.8088185056224263  1.0000
  H   H18       1.0  0.2996896362907648  0.8617892187352183  0.6910722858277225  1.0000
  H   H19       1.0  0.5617067570896239  0.8625434873919035  0.19117451268587624  1.0000
  H   H20       1.0  0.7003014748021457  0.13822128693788474  0.30893264813138194  1.0000
  H   H21       1.0  0.1505811965279875  0.12835069890268616  0.8991741243814246  1.0000
  H   H22       1.0  0.021768826727715452  0.8712446107465511  0.6006394750472737  1.0000
  H   H23       1.0  0.8493993632739676  0.8716285651006505  0.10082062825149761  1.0000
  H   H24       1.0  0.978242599303705  0.12876586681672822  0.3993604327722338  1.0000
  H   H25       1.0  0.4389013275588526  0.3258477979375913  0.7361480010645708  1.0000
  H   H26       1.0  0.11324893815277191  0.6736875233582255  0.7638691749364669  1.0000
  H   H27       1.0  0.5610799442966653  0.6741599782547213  0.2638471567056726  1.0000
  H   H28       1.0  0.8867357522284819  0.3263203079533454  0.2361355325518346  1.0000
  H   H29       1.0  0.06756848425577307  0.8881872953332536  0.016879785626038302  1.0000
  H   H30       1.0  0.1794758191385313  0.11201849619354222  0.4833756729450087  1.0000
  H   H31       1.0  0.9324190383922895  0.11179911146199124  0.9831175813823093  1.0000
  H   H32       1.0  0.8205565523637048  0.8879830540869307  0.516620966942483  1.0000
  C   C1        1.0  0.153412423782541  0.40588951877435886  0.8758049081768249  1.0000
  C   C2        1.0  0.7473146835952349  0.5939223624067581  0.6242881766918489  1.0000
  C   C3        1.0  0.8465833934031579  0.5941066933923979  0.12419328920530152  1.0000
  C   C4        1.0  0.2526954989601649  0.4060890151536753  0.37571331446321216  1.0000
  C   C5        1.0  0.1889581523903345  0.34010910689902835  0.8136152846342668  1.0000
  C   C6        1.0  0.848975607812463  0.6596699620541316  0.6864626639442406  1.0000
  C   C7        1.0  0.8110364937109865  0.6598915389040914  0.18637926925216425  1.0000
  C   C8        1.0  0.1510221761618737  0.3403369523806036  0.3135374445243215  1.0000
  C   C9        1.0  0.07194888456734833  0.9641714408051458  0.9907072758934847  1.0000
  C   C10       1.0  0.10780486671136198  0.03581671585731531  0.5093540891397981  1.0000
  C   C11       1.0  0.9280390825053503  0.0358158544812142  0.0092896639864861  1.0000
  C   C12       1.0  0.8922240249502026  0.9641812659209491  0.4906417461764931  1.0000
  C   C13       1.0  0.5729437203642576  0.4771934054259789  0.8132457211096097  1.0000
  C   C14       1.0  0.09520379685469045  0.5223028080425821  0.6867412631361847  1.0000
  C   C15       1.0  0.42704290375786513  0.5228081372046419  0.1867499134873469  1.0000
  C   C16       1.0  0.9047961400159534  0.4777050209960123  0.3132629417547648  1.0000
  C   C17       1.0  0.9946901966313461  0.24015488320213046  0.7776468277680735  1.0000
  C   C18       1.0  0.7548679008612355  0.759602760567603  0.7224990840920499  1.0000
  C   C19       1.0  0.005298123303362231  0.7598466623912191  0.2223493094475302  1.0000
  C   C20       1.0  0.24513238430660783  0.24040237991660268  0.2775023812540454  1.0000
  C   C21       1.0  0.3165256487153627  0.5073889111333473  0.9065217006285238  1.0000
  C   C22       1.0  0.8084731543310395  0.4923738984873154  0.5935210213596918  1.0000
  C   C23       1.0  0.6834608084700734  0.4926055237062956  0.09347735099971292  1.0000
  C   C24       1.0  0.19153060751270357  0.5076348047115858  0.40648024332456606  1.0000
  C   C25       1.0  0.40378433007873593  0.37692358041466906  0.7833594999557647  1.0000
  C   C26       1.0  0.026852359636436174  0.6226914504802253  0.7166606736876204  1.0000
  C   C27       1.0  0.5962009591870939  0.6230752938488423  0.21663691340980765  1.0000
  C   C28       1.0  0.9731450728759229  0.37731814672139313  0.283341169092779  1.0000
  C   C29       1.0  0.3879620035536675  0.901396466794907  0.9251981926323154  1.0000
  C   C30       1.0  0.4866408477597943  0.0982330068211112  0.5749654073554993  1.0000
  C   C31       1.0  0.6120468411630284  0.0985953064308021  0.07480264302738251  1.0000
  C   C32       1.0  0.5133859099941063  0.9017640950783274  0.42503236293658386  1.0000
  C   C33       1.0  0.23836911604085037  0.9784040864136261  0.9366071691517489  1.0000
  C   C34       1.0  0.2598684324309417  0.021307267018272603  0.5634169947310639  1.0000
  C   C35       1.0  0.7616341952310676  0.021586786539025102  0.063392083163869  1.0000
  C   C36       1.0  0.7401533340126323  0.9786934030384845  0.4365815801215689  1.0000
  C   C37       1.0  0.5449479052612817  0.9129473768316816  0.873326086497869  1.0000
  C   C38       1.0  0.6317911054211506  0.08643166705615364  0.6268543259183375  1.0000
  C   C39       1.0  0.4550703971654855  0.08704975366040202  0.1266767099487254  1.0000
  C   C40       1.0  0.36822727889157403  0.9135690144376625  0.37314625939610124  1.0000
  C   C41       1.0  0.4207395153399034  0.07177811417297873  0.8430708263389164  1.0000
  C   C42       1.0  0.34831216497596545  0.9275411615016227  0.6568838718060519  1.0000
  C   C43       1.0  0.5792530899987514  0.9282082928291975  0.15692654067581915  1.0000
  C   C44       1.0  0.6516831336287227  0.07246755582116292  0.34311990595013964  1.0000
  C   C45       1.0  0.2599552959545122  0.06575747453998561  0.8939307966416975  1.0000
  C   C46       1.0  0.19385864987639695  0.9337776663805644  0.6059765601696868  1.0000
  C   C47       1.0  0.740037307801764  0.9342289295684344  0.10606606775652244  1.0000
  C   C48       1.0  0.8061484106298524  0.06622747148579582  0.3940244025684053  1.0000
  C   C49       1.0  0.5260002980221188  0.5415676921188891  0.8739277337596151  1.0000
  C   C50       1.0  0.9836366109993407  0.4580457034086011  0.6260718521516041  1.0000
  C   C51       1.0  0.4739912434363021  0.4584267458214343  0.12607182049152502  1.0000
  C   C52       1.0  0.01636849677739606  0.5419656884136688  0.37393215207964664  1.0000
  N   N1        1.0  0.5607748781761545  0.9963056317117494  0.8322009945608997  1.0000
  N   N2        1.0  0.5639458092086969  0.0029656269825153016  0.6678860053585964  1.0000
  N   N3        1.0  0.43922594297895046  0.003687035447697401  0.16780041919280111  1.0000
  N   N4        1.0  0.4360544807063036  0.9970395221829451  0.33211696783704536  1.0000
  N   N5        1.0  0.7059961179731289  0.6453379019702653  0.9068171472515942  1.0000
  N   N6        1.0  0.06021815578949944  0.3544629753949097  0.5930894229833683  1.0000
  N   N7        1.0  0.2939949853901993  0.35465565905394675  0.09318484459398492  1.0000
  N   N8        1.0  0.9397702824260532  0.6455421877564832  0.4069160632799367  1.0000
  N   N9        1.0  0.9417024810247839  0.36335196911846895  0.9129431093516231  1.0000
  N   N10       1.0  0.5782477774716812  0.6365135213255899  0.5871315569876006  1.0000
  N   N11       1.0  0.05828415259166061  0.6366495908746614  0.08705554094443363  1.0000
  N   N12       1.0  0.4217548275291563  0.3634996415534531  0.4128705877496018  1.0000
  O   O1        1.0  0.04198857313662781  0.1378264213154665  0.7648052569621271  1.0000
  O   O2        1.0  0.9046297037527538  0.861908439183907  0.7355127979235763  1.0000
  O   O3        1.0  0.9580052770780797  0.8621760187634281  0.23519145836452543  1.0000
  O   O4        1.0  0.09537855315605982  0.13809231134612085  0.2644998501744595  1.0000
  O   O5        1.0  0.8093164933091542  0.2648751226115992  0.7629394171112551  1.0000
  O   O6        1.0  0.5446502624154093  0.7348587899971406  0.7371194461567541  1.0000
  O   O7        1.0  0.19068402029265752  0.7351237088664109  0.23704945702575492  1.0000
  O   O8        1.0  0.4553361645223362  0.26515252004131906  0.2628704847886354  1.0000
  O   O9        1.0  0.8863627480581613  0.6800576736853686  0.8755460875173073  1.0000
  O   O10       1.0  0.20608605317265474  0.319841830912246  0.6243289355215822  1.0000
  O   O11       1.0  0.11364066725311522  0.31993679078156134  0.1244579902973797  1.0000
  O   O12       1.0  0.7939048878187978  0.6801615611823737  0.37567841023576426  1.0000
  O   O13       1.0  0.8717771785096391  0.25443799485123725  0.9132485970496305  1.0000
  O   O14       1.0  0.617268021916267  0.7454182526964671  0.5868318850676815  1.0000
  O   O15       1.0  0.12820543313168292  0.7455555282093159  0.0867468607705959  1.0000
  O   O16       1.0  0.38275613516955787  0.2545939705006007  0.41316163972830816  1.0000
  O   O17       1.0  0.6680687903851635  0.6929008251924176  0.9642769387630352  1.0000
  O   O18       1.0  0.9749493928036158  0.3070254440808782  0.535580556981472  1.0000
  O   O19       1.0  0.33192632564132646  0.30708382522174565  0.03572480082831931  1.0000
  O   O20       1.0  0.025054210015376686  0.6929761657958127  0.46442663781663646  1.0000
  O   O21       1.0  0.8481942953460831  0.4387853087545893  0.9429892482607373  1.0000
  O   O22       1.0  0.4093085311955564  0.5610505698221646  0.5570473145477521  1.0000
  O   O23       1.0  0.15178617447562456  0.5612073199583634  0.057005631452710794  1.0000
  O   O24       1.0  0.5906734184815006  0.4389653241898515  0.4429651089564929  1.0000
