data_image0
_chemical_formula_structural       Zn2H52C54N8O12
_chemical_formula_sum              "Zn2 H52 C54 N8 O12"
_cell_length_a       10.024989001164421
_cell_length_b       10.729342204175882
_cell_length_c       13.277281369116894
_cell_angle_alpha    106.77087677584633
_cell_angle_beta     95.74268876341623
_cell_angle_gamma    107.85380594231465

_space_group_name_H-M_alt    "P 1"
_space_group_IT_number       1

loop_
  _space_group_symop_operation_xyz
  'x, y, z'

loop_
  _atom_site_type_symbol
  _atom_site_label
  _atom_site_symmetry_multiplicity
  _atom_site_fract_x
  _atom_site_fract_y
  _atom_site_fract_z
  _atom_site_occupancy
  Zn  Zn1       1.0  0.4115962397943419  0.155853356730745  0.5712172399490782  1.0000
  Zn  Zn2       1.0  0.5884032353323575  0.8441406597277633  0.4287821665289188  1.0000
  H   H1        1.0  0.2674835312384545  0.17990510016697667  0.7455307585278348  1.0000
  H   H2        1.0  0.7325227478496429  0.8200992917536352  0.2544700236207547  1.0000
  H   H3        1.0  0.21283858053914884  0.08372664543664139  0.8905726893854576  1.0000
  H   H4        1.0  0.7871599334611687  0.9162757005438067  0.10942780292108978  1.0000
  H   H5        1.0  0.19044754748207984  0.9965912983833219  0.9936764791631703  1.0000
  H   H6        1.0  0.8095499563812609  0.003411038740722499  0.006322430094833488  1.0000
  H   H7        1.0  0.24660843334837776  0.14472771063077522  0.287686863851242  1.0000
  H   H8        1.0  0.7533924366879106  0.8552756290214917  0.7123095113402941  1.0000
  H   H9        1.0  0.5015451715946283  0.8618287059420879  0.8088571822932309  1.0000
  H   H10       1.0  0.49844969259178373  0.1381663895191139  0.1911443903914218  1.0000
  H   H11       1.0  0.5536131820966472  0.9783484122016258  0.668363067797287  1.0000
  H   H12       1.0  0.44639021816317387  0.0216508220379836  0.3316408379814035  1.0000
  H   H13       1.0  0.28939794241310307  0.8782241127133544  0.13870591202591945  1.0000
  H   H14       1.0  0.7106015681612518  0.12177822290709628  0.8612938983733258  1.0000
  H   H15       1.0  0.15277370286460007  0.6562753725170934  0.9986321013372076  1.0000
  H   H16       1.0  0.8472288200367544  0.3437269640507026  0.0013694382665505982  1.0000
  H   H17       1.0  0.9990789610986966  0.7052487009527084  0.988005038674025  1.0000
  H   H18       1.0  0.000922414366179676  0.29475050916863665  0.011994946022298307  1.0000
  H   H19       1.0  0.9765132603954922  0.5531576269419815  0.1022256863391817  1.0000
  H   H20       1.0  0.023487650329634846  0.44684577035945966  0.8977774837199064  1.0000
  H   H21       1.0  0.1400867901163068  0.668812976995234  0.18949455124074177  1.0000
  H   H22       1.0  0.8599157282640634  0.3311893531671046  0.8105062333777369  1.0000
  H   H23       1.0  0.9342187755491764  0.7155956381789251  0.26497783553961085  1.0000
  H   H24       1.0  0.06578464207436241  0.2844118896007828  0.7350234542192098  1.0000
  H   H25       1.0  0.8701100340998378  0.7375061524158254  0.14447413974158957  1.0000
  H   H26       1.0  0.12989223608722258  0.26249824891743145  0.855525595109782  1.0000
  H   H27       1.0  0.005211072784632518  0.967750924913666  0.28699608830466866  1.0000
  H   H28       1.0  0.9947909537301031  0.032255553995973706  0.7130033517648826  1.0000
  H   H29       1.0  0.1563060162406557  0.918103372677514  0.3034646685341116  1.0000
  H   H30       1.0  0.8436957620807563  0.0819051774030513  0.6965337217683327  1.0000
  H   H31       1.0  0.025524150482887253  0.9570021633128788  0.10025029321135995  1.0000
  H   H32       1.0  0.9744728125042101  0.04299598418013771  0.8997446026206148  1.0000
  H   H33       1.0  0.45408235766404204  0.30512744012588666  0.3335151757915398  1.0000
  H   H34       1.0  0.5459122492870918  0.6948697136953116  0.6664838371554396  1.0000
  H   H35       1.0  0.6026396338075912  0.5538141419092357  0.42235724504252664  1.0000
  H   H36       1.0  0.39735360011865584  0.44618198866375275  0.5776429381563162  1.0000
  H   H37       1.0  0.3870598279136956  0.6719190882062733  0.20516089098936877  1.0000
  H   H38       1.0  0.6129423230577942  0.3280822211587875  0.7948418919442374  1.0000
  H   H39       1.0  0.2280553847203421  0.42450302421377734  0.10440253820065241  1.0000
  H   H40       1.0  0.7719468854667183  0.5755013771194798  0.8955971966507192  1.0000
  H   H41       1.0  0.9327795894370822  0.10903497919984774  0.5426592441375107  1.0000
  H   H42       1.0  0.06722151142879078  0.8909579957414167  0.45734079684101664  1.0000
  H   H43       1.0  0.7260309981020825  0.33333489787119663  0.40177991513513683  1.0000
  H   H44       1.0  0.2739690314638139  0.6666633274347263  0.5982257697247421  1.0000
  H   H45       1.0  0.15387017980236808  0.35535911051761093  0.36542435054680306  1.0000
  H   H46       1.0  0.8461288215426208  0.6446390803100642  0.6345767313233921  1.0000
  H   H47       1.0  0.8394587154717144  0.4632566911557772  0.2949741961160797  1.0000
  H   H48       1.0  0.16054360896713857  0.5367477870430335  0.705034598558683  1.0000
  H   H49       1.0  0.9593915971823248  0.39768783828402127  0.22576376490425784  1.0000
  H   H50       1.0  0.04060808233840163  0.6023176597647151  0.7742413022508714  1.0000
  H   H51       1.0  0.02764520649208177  0.5464988829046078  0.3435692108918858  1.0000
  H   H52       1.0  0.9723543492920965  0.4535035167704748  0.6564381493601914  1.0000
  C   C1        1.0  0.31817132848694024  0.10987997933730748  0.7628434967922644  1.0000
  C   C2        1.0  0.6818321864674672  0.8901223404650337  0.23715660591891918  1.0000
  C   C3        1.0  0.2861152559710973  0.052341645363441096  0.8423876647597695  1.0000
  C   C4        1.0  0.7138824825226138  0.9476586013732912  0.15761002930949528  1.0000
  C   C5        1.0  0.3508367403273383  0.9594859872601237  0.8591595057244988  1.0000
  C   C6        1.0  0.6491613972221373  0.040515325112117806  0.1408414749266171  1.0000
  C   C7        1.0  0.4483355242964037  0.931948251686485  0.7959101138257693  1.0000
  C   C8        1.0  0.5516640836088128  0.06804887595660603  0.2040885095258389  1.0000
  C   C9        1.0  0.47760082696517253  0.9956933024998946  0.7191352675622227  1.0000
  C   C10       1.0  0.5223985553516427  0.0043059283414379  0.280866080948698  1.0000
  C   C11       1.0  0.322729930113951  0.8881242546186101  0.9417645399571768  1.0000
  C   C12       1.0  0.6772657752630593  0.1118676872706956  0.058233359020150005  1.0000
  C   C13       1.0  0.19037695345598843  0.8689432702456087  0.08805007082170846  1.0000
  C   C14       1.0  0.8096204131078577  0.13105594928839537  0.9119488665773972  1.0000
  C   C15       1.0  0.09338422337569335  0.7154287818460219  0.044369003603421185  1.0000
  C   C16       1.0  0.9066147734483109  0.28456940257618873  0.9556313232814944  1.0000
  C   C17       1.0  0.046054860233454065  0.6631631998747736  0.13506227802762538  1.0000
  C   C18       1.0  0.9539466660938771  0.33683914705301277  0.8649399434834352  1.0000
  C   C19       1.0  0.9682302012516927  0.7509627661119254  0.1986947496758802  1.0000
  C   C20       1.0  0.0317703285016009  0.2490395911758512  0.8013081537424824  1.0000
  C   C21       1.0  0.06337504318092597  0.9046087907614788  0.24402873439127853  1.0000
  C   C22       1.0  0.9366264650624743  0.09539353054445598  0.7559704671786561  1.0000
  C   C23       1.0  0.11670035520936743  0.9601578776348417  0.15591813263615964  1.0000
  C   C24       1.0  0.8832973787633591  0.039842362696425895  0.8440788064478185  1.0000
  C   C25       1.0  0.22685323060591858  0.19785047401175146  0.1517570754680477  1.0000
  C   C26       1.0  0.7731498672087936  0.8021507545332228  0.8482367207201521  1.0000
  C   C27       1.0  0.3252139573638146  0.34461799814732796  0.2119667935055318  1.0000
  C   C28       1.0  0.6747827664719351  0.6553822333275433  0.7880285625298952  1.0000
  C   C29       1.0  0.43449371416492255  0.3815341166043212  0.3010487182096853  1.0000
  C   C30       1.0  0.5655050254238034  0.6184661261778857  0.6989490489375569  1.0000
  C   C31       1.0  0.5187937808219019  0.5211449033251938  0.3512783451948849  1.0000
  C   C32       1.0  0.4812049723297632  0.4788553586733997  0.6487216869082104  1.0000
  C   C33       1.0  0.3979649414266434  0.5868834856894339  0.23062488915543614  1.0000
  C   C34       1.0  0.6020369477885906  0.4131198756301657  0.7693745790552172  1.0000
  C   C35       1.0  0.3093937298084413  0.45015592368228136  0.17525608628461947  1.0000
  C   C36       1.0  0.6906053952730957  0.5498453655190473  0.8247427024886209  1.0000
  C   C37       1.0  0.18904254373558166  0.1997269171707501  0.4853899026809927  1.0000
  C   C38       1.0  0.810959828303325  0.8002722825906118  0.5146094001080215  1.0000
  C   C39       1.0  0.0573115231190968  0.23082536564642453  0.4578884575918778  1.0000
  C   C40       1.0  0.9426869463916034  0.769168648361152  0.5421101208228478  1.0000
  C   C41       1.0  0.9349477470545864  0.17845496379322157  0.496806245745411  1.0000
  C   C42       1.0  0.06505072245611385  0.8215390502143548  0.5031923326693217  1.0000
  C   C43       1.0  0.8155248903341674  0.21514316769974332  0.47584508261373065  1.0000
  C   C44       1.0  0.1844753648201234  0.7848529544079383  0.5241578770868358  1.0000
  C   C45       1.0  0.6833075055165027  0.15821311833371252  0.516025796886673  1.0000
  C   C46       1.0  0.31669573935988626  0.8417829726939982  0.48397511709199387  1.0000
  C   C47       1.0  0.8194081440805975  0.3041747715958181  0.4158496840179495  1.0000
  C   C48       1.0  0.18059324494723233  0.6958244577419209  0.5841525656342128  1.0000
  C   C49       1.0  0.9387479667117447  0.3535718838551318  0.3731744206909227  1.0000
  C   C50       1.0  0.061252191111684354  0.6464294462299166  0.6268297260572808  1.0000
  C   C51       1.0  0.05762934049594287  0.3159616025319067  0.3953188240923495  1.0000
  C   C52       1.0  0.9423712865882194  0.6840355467785173  0.604682892278376  1.0000
  C   C53       1.0  0.9409697525925935  0.4451021750366023  0.305908334872278  1.0000
  C   C54       1.0  0.0590319472020937  0.554903340724934  0.6940998983799389  1.0000
  N   N1        1.0  0.41180847065221826  0.08211078799379122  0.7015912579235177  1.0000
  N   N2        1.0  0.5881925374037706  0.9178874013302903  0.29841072508792627  1.0000
  N   N3        1.0  0.5004092995776404  0.6227376093236643  0.3179096957234933  1.0000
  N   N4        1.0  0.4995886825884028  0.37726055983668527  0.6820882931275918  1.0000
  N   N5        1.0  0.22922510668740162  0.921269160791475  0.0013525541896015965  1.0000
  N   N6        1.0  0.7707724107388927  0.07873319554896338  0.9986486200242481  1.0000
  N   N7        1.0  0.2121965997026081  0.1060835228957728  0.2045686991616122  1.0000
  N   N8        1.0  0.7878028701829008  0.8939187550755106  0.795424316370088  1.0000
  O   O1        1.0  0.2861924762474004  0.21558247482350618  0.43025308433882975  1.0000
  O   O2        1.0  0.7138048413058441  0.7844084063321617  0.5697431841831744  1.0000
  O   O3        1.0  0.20372138190588632  0.1616854281967619  0.5674712677544065  1.0000
  O   O4        1.0  0.796276653101401  0.8382992010133633  0.43252362015722673  1.0000
  O   O5        1.0  0.6672566060448446  0.0537838420920806  0.5470418958690573  1.0000
  O   O6        1.0  0.3327421026172103  0.9462080879336482  0.4529562223422161  1.0000
  O   O7        1.0  0.5915991369659893  0.21906843793115638  0.5154587001234248  1.0000
  O   O8        1.0  0.4083997270794981  0.7809266353064713  0.4845424098878723  1.0000
  O   O9        1.0  0.3829594666705276  0.8055569966171205  0.9517802545338724  1.0000
  O   O10       1.0  0.6170346574569265  0.1944443187623079  0.048218923834745894  1.0000
  O   O11       1.0  0.1649895351059314  0.16680002750979384  0.05625005153460451  1.0000
  O   O12       1.0  0.835013291910556  0.8332032401787897  0.9437389199600685  1.0000
