data_image0
_chemical_formula_structural       Ni2H28C28N4O12
_chemical_formula_sum              "Ni2 H28 C28 N4 O12"
_cell_length_a       8.8641969567699
_cell_length_b       9.772002593614811
_cell_length_c       10.720879219687353
_cell_angle_alpha    62.84824232987453
_cell_angle_beta     78.44097212930728
_cell_angle_gamma    63.97410791327018

_space_group_name_H-M_alt    "P 1"
_space_group_IT_number       1

loop_
  _space_group_symop_operation_xyz
  'x, y, z'

loop_
  _atom_site_type_symbol
  _atom_site_label
  _atom_site_symmetry_multiplicity
  _atom_site_fract_x
  _atom_site_fract_y
  _atom_site_fract_z
  _atom_site_occupancy
  Ni  Ni1       1.0  0.7499530515156254  0.7066286723058823  0.5866692321467964  1.0000
  Ni  Ni2       1.0  0.25004847389269713  0.29337105739029573  0.413327422996339  1.0000
  H   H1        1.0  0.07910337088347322  0.5921375694283102  0.5175241795072194  1.0000
  H   H2        1.0  0.4208699586424344  0.8903439191404915  0.5175605571007152  1.0000
  H   H3        1.0  0.9208928591723476  0.4078576801669272  0.48247580761027103  1.0000
  H   H4        1.0  0.5791347376759575  0.10965840058104698  0.48243719926801987  1.0000
  H   H5        1.0  0.02748519678281275  0.6942701543503489  0.6154750548944036  1.0000
  H   H6        1.0  0.47241887834015756  0.6901434504921155  0.6154089467709055  1.0000
  H   H7        1.0  0.9725088947435273  0.3057334400422035  0.38451907356989073  1.0000
  H   H8        1.0  0.5275841795421102  0.309856162211311  0.38459280646322463  1.0000
  H   H9        1.0  0.6138017078895216  0.6943717846123789  0.35700287173745676  1.0000
  H   H10       1.0  0.8862093427778107  0.9488674340895288  0.35674270665812463  1.0000
  H   H11       1.0  0.3861967210637829  0.30562768889328856  0.6429990892747737  1.0000
  H   H12       1.0  0.11379188472530913  0.0511326877369668  0.6432573106959723  1.0000
  H   H13       1.0  0.60475960365369  0.8223565455205419  0.09747475718170744  1.0000
  H   H14       1.0  0.8955036088728291  0.08023138460441001  0.09719626206527464  1.0000
  H   H15       1.0  0.3952353500811371  0.1776453823050447  0.9025247867008017  1.0000
  H   H16       1.0  0.10449578825114261  0.9197692463451617  0.9028020194087744  1.0000
  H   H17       1.0  0.7501950504396788  0.01949800601533985  0.9608775657238267  1.0000
  H   H18       1.0  0.24980221968058194  0.9805025957446319  0.039123277704163704  1.0000
  H   H19       1.0  0.9837546340057841  0.4097852056859068  0.8122177271708679  1.0000
  H   H20       1.0  0.516093625906784  0.7779394505566232  0.8121940499850309  1.0000
  H   H21       1.0  0.01625047514448856  0.5902130328152495  0.18777412139161234  1.0000
  H   H22       1.0  0.4839100252246026  0.2220612387721417  0.1877991075811565  1.0000
  H   H23       1.0  0.9963324287120083  0.2734049973993607  0.07633122680921628  1.0000
  H   H24       1.0  0.5037268672904176  0.6503938500522964  0.0763113821587211  1.0000
  H   H25       1.0  0.003676338635273196  0.7265940837416383  0.9236622222673176  1.0000
  H   H26       1.0  0.49628025649816737  0.3496062458425441  0.923682321291153  1.0000
  H   H27       1.0  0.7500990739337676  0.39508167271034017  0.21006484465214467  1.0000
  H   H28       1.0  0.24990920484593465  0.6049200862591704  0.7899271695129214  1.0000
  C   C1        1.0  0.6645196593417494  0.4167721906401456  0.6322763266532262  1.0000
  C   C2        1.0  0.8353659099387869  0.9507919942499468  0.6323045842997101  1.0000
  C   C3        1.0  0.33547288100993455  0.5832217261392358  0.36773756200130947  1.0000
  C   C4        1.0  0.16462911953173184  0.049211336967495384  0.3677023023005147  1.0000
  C   C5        1.0  0.7246756197583013  0.24744860429399296  0.6426704612495938  1.0000
  C   C6        1.0  0.7751922221731037  0.1097338193723586  0.6426826650005778  1.0000
  C   C7        1.0  0.275316519287273  0.7525410197188548  0.35735775581832735  1.0000
  C   C8        1.0  0.22479460487164007  0.8902634202984244  0.35733672094251273  1.0000
  C   C9        1.0  0.6732242274792456  0.782020000877054  0.2963146501197755  1.0000
  C   C10       1.0  0.8268919329225358  0.9217743342712692  0.2961710350576539  1.0000
  C   C11       1.0  0.32677419763213333  0.2179822639575874  0.7036845040234069  1.0000
  C   C12       1.0  0.17311142286493467  0.07822488630183243  0.7038273559655223  1.0000
  C   C13       1.0  0.6691276085975559  0.8538015986678787  0.1503830731363891  1.0000
  C   C14       1.0  0.8311198205722125  0.995834663603631  0.15023245129864907  1.0000
  C   C15       1.0  0.33087459476007547  0.14619409794457278  0.8496188784176155  1.0000
  C   C16       1.0  0.16887957783240629  0.004165036902946983  0.8497667657984136  1.0000
  C   C17       1.0  0.7501607588034102  0.9622682832492871  0.07533500133384759  1.0000
  C   C18       1.0  0.249838153594908  0.03773223419982948  0.9246646520977817  1.0000
  C   C19       1.0  0.8809146535740597  0.45829871265070915  0.87566350745368  1.0000
  C   C20       1.0  0.6189897421956658  0.6660279487934134  0.8756349150063727  1.0000
  C   C21       1.0  0.11908900139925284  0.5416991853490887  0.1243324569815485  1.0000
  C   C22       1.0  0.3810145830431111  0.3339714987805992  0.12436073210162847  1.0000
  C   C23       1.0  0.8862761972631645  0.3833817578334688  0.021365755189400232  1.0000
  C   C24       1.0  0.6137474092198756  0.5953509274272764  0.02134749055372958  1.0000
  C   C25       1.0  0.11373275306264201  0.6166206202672699  0.9786268772714662  1.0000
  C   C26       1.0  0.38626203095414996  0.4046478424019496  0.9786475124416113  1.0000
  C   C27       1.0  0.7500372396749742  0.45202080550322427  0.09611695760397504  1.0000
  C   C28       1.0  0.24996939682667832  0.5479810377771415  0.9038762465574449  1.0000
  N   N1        1.0  0.7500193651521695  0.8156337882807067  0.3688252823074904  1.0000
  N   N2        1.0  0.24998283564417542  0.18436376921773237  0.6311747980004795  1.0000
  N   N3        1.0  0.7499325914371872  0.5981036315047132  0.8037008126621713  1.0000
  N   N4        1.0  0.25007337607964086  0.4018957317584436  0.19629364444948286  1.0000
  O   O1        1.0  0.5135133525543906  0.48615391800225893  0.6620200486631731  1.0000
  O   O2        1.0  0.9863076187114572  0.8515668558263273  0.6622003421313707  1.0000
  O   O3        1.0  0.4864907517955219  0.5138463946509474  0.3379872389965186  1.0000
  O   O4        1.0  0.013684603244762202  0.14844234017122196  0.3378019387658923  1.0000
  O   O5        1.0  0.7755415973231623  0.480200753953561  0.5906021270146766  1.0000
  O   O6        1.0  0.7244135139726923  0.9291082701342859  0.590536965135257  1.0000
  O   O7        1.0  0.22445451780598102  0.5197981847317408  0.4094004056981077  1.0000
  O   O8        1.0  0.275569938693181  0.07089796963924043  0.4094671662296604  1.0000
  O   O9        1.0  0.008812995787700064  0.6108602032719902  0.5978457290951553  1.0000
  O   O10       1.0  0.49110597622851065  0.7911723718309176  0.5978730549900816  1.0000
  O   O11       1.0  0.9911836015058171  0.3891407097997401  0.4021535604140212  1.0000
  O   O12       1.0  0.5088975625374843  0.2088301457019385  0.40212451941741983  1.0000
