data_image0
_chemical_formula_structural       CuSiH28C28N4F6
_chemical_formula_sum              "Cu1 Si1 H28 C28 N4 F6"
_cell_length_a       7.973314960555871
_cell_length_b       13.736891725460744
_cell_length_c       13.736878679127376
_cell_angle_alpha    89.62963763351306
_cell_angle_beta     85.51374673404162
_cell_angle_gamma    85.51305157565284

_space_group_name_H-M_alt    "P 1"
_space_group_IT_number       1

loop_
  _space_group_symop_operation_xyz
  'x, y, z'

loop_
  _atom_site_type_symbol
  _atom_site_label
  _atom_site_symmetry_multiplicity
  _atom_site_fract_x
  _atom_site_fract_y
  _atom_site_fract_z
  _atom_site_occupancy
  Cu  Cu1       1.0  0.4999903633442455  0.49999573564318217  0.49999700495545324  1.0000
  Si  Si1       1.0  0.99998053011943  0.4999982988819979  0.49999835395443865  1.0000
  H   H1        1.0  0.26026682539286117  0.49999278759769084  0.3434002727769396  1.0000
  H   H2        1.0  0.2662802837380766  0.4999870886847688  0.1705657743317062  1.0000
  H   H3        1.0  0.8124436489843204  0.5003832999738053  0.16501292858675495  1.0000
  H   H4        1.0  0.781644827983527  0.500235454075181  0.33915977783938434  1.0000
  H   H5        1.0  0.1875382351959587  0.49964904584586384  0.8349778957571629  1.0000
  H   H6        1.0  0.7336664689785408  0.5002942692151535  0.8294164233102206  1.0000
  H   H7        1.0  0.7396968083664035  0.5001345031374883  0.6565878856644287  1.0000
  H   H8        1.0  0.2183383700619571  0.4997465218345952  0.6608327243026436  1.0000
  H   H9        1.0  0.2602859361413365  0.34340686366788026  0.4998703018495333  1.0000
  H   H10       1.0  0.26631707482680156  0.1705770796067299  0.49970979343133576  1.0000
  H   H11       1.0  0.8124465377937822  0.16501376006546312  0.5003455046651624  1.0000
  H   H12       1.0  0.7816461011288921  0.339159438430876  0.5002415344289303  1.0000
  H   H13       1.0  0.18754552345929904  0.8349806197878779  0.4996094290858862  1.0000
  H   H14       1.0  0.7337051862362926  0.8294246356301402  0.5000210666971936  1.0000
  H   H15       1.0  0.7397237105039093  0.6565933450237866  0.5000117894278233  1.0000
  H   H16       1.0  0.21834828449871668  0.6608334537638074  0.4997518925417451  1.0000
  H   H17       1.0  0.766794890905771  0.5649316147161161  0.9448952750142254  1.0000
  H   H18       1.0  0.836233723883275  0.499293616895102  0.045444679927136605  1.0000
  H   H19       1.0  0.7834975009678684  0.4349401703126148  0.9443736672890706  1.0000
  H   H20       1.0  0.21619292504184529  0.5650172199592945  0.055399800138609095  1.0000
  H   H21       1.0  0.16380937596814246  0.5001845377211468  0.954542248443779  1.0000
  H   H22       1.0  0.23347757222600754  0.43502386752683014  0.05530577088002529  1.0000
  H   H23       1.0  0.7837940838340315  0.9445935011443681  0.4349880337533705  1.0000
  H   H24       1.0  0.8361709117296102  0.04545035273982732  0.49982465695129713  1.0000
  H   H25       1.0  0.7664983213211158  0.9446879853422916  0.5649815978923199  1.0000
  H   H26       1.0  0.2331734637024425  0.055096310284916704  0.4350738789211802  1.0000
  H   H27       1.0  0.1637468196585203  0.9545490271960803  0.5007194023584843  1.0000
  H   H28       1.0  0.21649236101175964  0.05562114643234392  0.5650668574645932  1.0000
  C   C1        1.0  0.38142938406061677  0.5000509099980378  0.3009595096814976  1.0000
  C   C2        1.0  0.38783261117053053  0.5000567097192602  0.19960047285591995  1.0000
  C   C3        1.0  0.5420872099310898  0.5000937236608962  0.1406150229484453  1.0000
  C   C4        1.0  0.6838297599958311  0.5002317869783184  0.19720133066147835  1.0000
  C   C5        1.0  0.6696488982460166  0.5001775604018591  0.2985350481503487  1.0000
  C   C6        1.0  0.5647985768200455  0.4999833942812374  0.031081961309212088  1.0000
  C   C7        1.0  0.4351875749393768  0.4999854364100927  0.9689068488992163  1.0000
  C   C8        1.0  0.3161522629762813  0.49978961025196605  0.8027880921245866  1.0000
  C   C9        1.0  0.45789452540880393  0.49994008444546983  0.8593721597197117  1.0000
  C   C10       1.0  0.6121315819491072  0.50008590681162  0.8003897616406801  1.0000
  C   C11       1.0  0.6185398275186599  0.500042057187656  0.6990300587251497  1.0000
  C   C12       1.0  0.33033318944978146  0.4998233985251304  0.7014544843724335  1.0000
  C   C13       1.0  0.38144363695838013  0.3009648202041718  0.4999584710148993  1.0000
  C   C14       1.0  0.38785113565310064  0.19960577468064863  0.4999159041930809  1.0000
  C   C15       1.0  0.542090916832656  0.1406225157735861  0.5000590948534266  1.0000
  C   C16       1.0  0.683833995807923  0.19720495299432633  0.5002054055635056  1.0000
  C   C17       1.0  0.6696539963765744  0.2985389448183683  0.5001677098215749  1.0000
  C   C18       1.0  0.5647945354215763  0.031087378606876808  0.5000152483843577  1.0000
  C   C19       1.0  0.43518373305916197  0.968910648321689  0.5000166838833664  1.0000
  C   C20       1.0  0.31615894062156974  0.8027916081716173  0.49976039902447406  1.0000
  C   C21       1.0  0.4579004136370416  0.8593769709019767  0.49990457731932014  1.0000
  C   C22       1.0  0.6121538819669468  0.8003929997267535  0.4999438225269016  1.0000
  C   C23       1.0  0.618560911184623  0.6990339291876001  0.4999493222451647  1.0000
  C   C24       1.0  0.33034237461173177  0.7014590576324482  0.4998139577654895  1.0000
  C   C25       1.0  0.7465382187912296  0.4997831996478369  0.9897148246627763  1.0000
  C   C26       1.0  0.2534536460910815  0.5000607970368521  0.010272975931321997  1.0000
  C   C27       1.0  0.7465310950525536  0.989719978676547  0.49994284358032093  1.0000
  C   C28       1.0  0.253440653345578  0.010279453639626  0.5002225757024163  1.0000
  N   N1        1.0  0.5197505576639612  0.5000579384641739  0.35088399190635033  1.0000
  N   N2        1.0  0.48022919746667714  0.49994156725001204  0.6491056468274647  1.0000
  N   N3        1.0  0.5197553960009033  0.3508855859472533  0.5000529630087414  1.0000
  N   N4        1.0  0.4802375043234832  0.6491095030773478  0.49993541855866397  1.0000
  F   F1        1.0  0.21623327353251642  0.5015450688898826  0.5015378655661991  1.0000
  F   F2        1.0  0.7837268919293903  0.49845011270074485  0.4984533497807248  1.0000
  F   F3        1.0  0.9999687623165908  0.5884721159240912  0.4115248016713834  1.0000
  F   F4        1.0  0.999981478180388  0.4115303513632611  0.5884737854737665  1.0000
  F   F5        1.0  0.027223782499007077  0.41157683019427094  0.41157726048397336  1.0000
  F   F6        1.0  0.9727282432599795  0.5884227522122957  0.5884179132733464  1.0000
