data_image0
_chemical_formula_structural       Ni4H80C72N8O24
_chemical_formula_sum              "Ni4 H80 C72 N8 O24"
_cell_length_a       9.260989661743675
_cell_length_b       13.512805512171902
_cell_length_c       19.26245685959623
_cell_angle_alpha    110.66797514441632
_cell_angle_beta     102.59997674821857
_cell_angle_gamma    90.13840909959087

_space_group_name_H-M_alt    "P 1"
_space_group_IT_number       1

loop_
  _space_group_symop_operation_xyz
  'x, y, z'

loop_
  _atom_site_type_symbol
  _atom_site_label
  _atom_site_symmetry_multiplicity
  _atom_site_fract_x
  _atom_site_fract_y
  _atom_site_fract_z
  _atom_site_occupancy
  Ni  Ni1       1.0  0.17783735950941804  0.585356032560689  0.7329253848644368  1.0000
  Ni  Ni2       1.0  0.32359561635102807  0.8508552723085003  0.26596012719527795  1.0000
  Ni  Ni3       1.0  0.82047468662428  0.4134390705339754  0.266390966485872  1.0000
  Ni  Ni4       1.0  0.6790593430561173  0.14951703996443633  0.7342551510960574  1.0000
  H   H1        1.0  0.4393341812118336  0.6609095857354034  0.7765238726196697  1.0000
  H   H2        1.0  0.06193963379283928  0.8810623230965786  0.22249185676464814  1.0000
  H   H3        1.0  0.5581235207433579  0.33979836376302325  0.22352001166041185  1.0000
  H   H4        1.0  0.9408895984161062  0.11818677652566102  0.7772272393078409  1.0000
  H   H5        1.0  0.4323928651096479  0.5415650371837442  0.7776674146206373  1.0000
  H   H6        1.0  0.06903636099063701  0.7603607240003567  0.22067903568661495  1.0000
  H   H7        1.0  0.5667057423904042  0.45862049338752786  0.2214180107760483  1.0000
  H   H8        1.0  0.9341092888746018  0.23890039569257468  0.7788090827718078  1.0000
  H   H9        1.0  0.06344421212011749  0.41073869248673106  0.7544215322979538  1.0000
  H   H10       1.0  0.4389203033486809  0.6554996468877262  0.24530466440602067  1.0000
  H   H11       1.0  0.9374223044027726  0.5878734718027872  0.24527818676374832  1.0000
  H   H12       1.0  0.5643829885796947  0.34507430408439155  0.7546398858405821  1.0000
  H   H13       1.0  0.2391923484920824  0.42928840431663645  0.7743615689921339  1.0000
  H   H14       1.0  0.2631608780597644  0.6530899418978108  0.22511474248165075  1.0000
  H   H15       1.0  0.7615442133386807  0.5704394602430225  0.22575333144948206  1.0000
  H   H16       1.0  0.7402544690898621  0.34729539122486097  0.7748127419494464  1.0000
  H   H17       1.0  0.7710122808524886  0.5233569567252658  0.49331089416131835  1.0000
  H   H18       1.0  0.7274599075644516  0.029811626846509186  0.5074332546239048  1.0000
  H   H19       1.0  0.22617388173757985  0.47666669479372076  0.5067025828756967  1.0000
  H   H20       1.0  0.2721469369692002  0.9698739140252997  0.4946803534716152  1.0000
  H   H21       1.0  0.05192628010403406  0.6633091446979121  0.4053458163264877  1.0000
  H   H22       1.0  0.4482247281834403  0.25822318527185195  0.5940008087152788  1.0000
  H   H23       1.0  0.9477287494972303  0.33569819514120497  0.5936768642020096  1.0000
  H   H24       1.0  0.5528030338616929  0.7418078918537246  0.40580857317163305  1.0000
  H   H25       1.0  0.14418790912291257  0.6827027073588211  0.5439020445793473  1.0000
  H   H26       1.0  0.3565336177003573  0.1374786138227292  0.4552415379429461  1.0000
  H   H27       1.0  0.8543020928545244  0.316211171486202  0.4551110726705473  1.0000
  H   H28       1.0  0.6434466364008529  0.8611812511019675  0.5443100147098715  1.0000
  H   H29       1.0  0.028863167176737592  0.5537320446897167  0.5749469637809097  1.0000
  H   H30       1.0  0.47027428797687065  0.9778951446713574  0.42472478387258383  1.0000
  H   H31       1.0  0.9686366088830451  0.4448173122152994  0.4244143336770704  1.0000
  H   H32       1.0  0.5299326752641562  0.020849096990587943  0.5766016227602576  1.0000
  H   H33       1.0  0.4573244566297275  0.7998004349525513  0.6167819263776548  1.0000
  H   H34       1.0  0.043412232901410205  0.18033261324681843  0.3825215744043857  1.0000
  H   H35       1.0  0.5391946655129516  0.20197947646857262  0.3836633251753908  1.0000
  H   H36       1.0  0.9572448165552319  0.8192560070989215  0.616991269198145  1.0000
  H   H37       1.0  0.35279115712788217  0.7972085211411366  0.4829412215939682  1.0000
  H   H38       1.0  0.14737941846200903  0.3124453881428691  0.5159511827680914  1.0000
  H   H39       1.0  0.6453845221033063  0.20345802699838322  0.5171161992672351  1.0000
  H   H40       1.0  0.8532238732676801  0.6867322747423897  0.48357109086580125  1.0000
  H   H41       1.0  0.8776703606936138  0.5577094676852351  0.7622534280407434  1.0000
  H   H42       1.0  0.6245722358054095  0.7964210061096394  0.23761816789328788  1.0000
  H   H43       1.0  0.12112069109375055  0.44016590420402213  0.23727063509226537  1.0000
  H   H44       1.0  0.3791838795618857  0.20744033252891803  0.7634266457822318  1.0000
  H   H45       1.0  0.6136285605788032  0.5277370374809534  0.6896763454655994  1.0000
  H   H46       1.0  0.8880040967258221  0.8398032412593749  0.31135322700094276  1.0000
  H   H47       1.0  0.38485491732695465  0.47137751254483345  0.31047974063010014  1.0000
  H   H48       1.0  0.11524222673360637  0.16537869586802845  0.6904285341344333  1.0000
  H   H49       1.0  0.16327905710058124  0.6334533748958789  0.8952933755762869  1.0000
  H   H50       1.0  0.33937008740809194  0.7360128058926845  0.10313107875578698  1.0000
  H   H51       1.0  0.835222483194606  0.3653484577608239  0.10399154862240316  1.0000
  H   H52       1.0  0.6602049069666335  0.26526202614541433  0.8967245819604839  1.0000
  H   H53       1.0  0.061818582844843206  0.7897723676843637  0.7432582438472151  1.0000
  H   H54       1.0  0.4410388027453962  0.04519647044754994  0.25602996182269777  1.0000
  H   H55       1.0  0.9356221145639481  0.2087255184012378  0.2558799135979157  1.0000
  H   H56       1.0  0.5639502922448826  0.9550579020550386  0.7448013745697036  1.0000
  H   H57       1.0  0.953706050922257  0.9342330781978204  0.8328670130353542  1.0000
  H   H58       1.0  0.5477392221997732  0.10073692096818118  0.16646577447428257  1.0000
  H   H59       1.0  0.04451048977241359  0.06456340247758864  0.16649689405868165  1.0000
  H   H60       1.0  0.4563403985523564  0.8996245697920741  0.834034949764593  1.0000
  H   H61       1.0  0.472053834873293  0.418996662460813  0.5359361107009801  1.0000
  H   H62       1.0  0.025564473294949205  0.8833250293097804  0.46610329087066277  1.0000
  H   H63       1.0  0.5246560632458426  0.581955068134121  0.4643638657915756  1.0000
  H   H64       1.0  0.975223880749354  0.11884760457340332  0.5362010251166892  1.0000
  H   H65       1.0  0.443709302393529  0.5537498824543048  0.5735600592939887  1.0000
  H   H66       1.0  0.05710334213040367  0.9791310197615956  0.4279874121730101  1.0000
  H   H67       1.0  0.5543674483463832  0.44740074070921293  0.4268906195964276  1.0000
  H   H68       1.0  0.9443672054720266  0.02312747594794446  0.574427212599481  1.0000
  H   H69       1.0  0.05931891549223419  0.7726728488794021  0.9936043942176338  1.0000
  H   H70       1.0  0.4418853849656017  0.7776393352017622  0.0048346899952561645  1.0000
  H   H71       1.0  0.9397169075301192  0.22627976817137344  0.005867480385475647  1.0000
  H   H72       1.0  0.556387802970839  0.22355981810058959  0.9946104947525637  1.0000
  H   H73       1.0  0.841044436518608  0.9813637773531808  0.9497463428255484  1.0000
  H   H74       1.0  0.6596157710564157  0.031508990296629194  0.04929335069608239  1.0000
  H   H75       1.0  0.15820679547653066  0.017747828090008987  0.04985210451308569  1.0000
  H   H76       1.0  0.34121717936541535  0.9691237107065048  0.9504262569921025  1.0000
  H   H77       1.0  0.9052665996492236  0.9247528156356993  0.02011063826439121  1.0000
  H   H78       1.0  0.5933934056517884  0.9049075647087788  0.9780289408011098  1.0000
  H   H79       1.0  0.09400755251827059  0.07427014941403315  0.9794753184243913  1.0000
  H   H80       1.0  0.4071056910987139  0.09575118669184947  0.02178372503838229  1.0000
  C   C1        1.0  0.7884690580276581  0.530274985632083  0.552705412839664  1.0000
  C   C2        1.0  0.7107706065353696  0.9775359889571573  0.4478949331006631  1.0000
  C   C3        1.0  0.20902294036796573  0.4692839330793887  0.44720528524699427  1.0000
  C   C4        1.0  0.2897680261223528  0.023066669594598403  0.5540181630977229  1.0000
  C   C5        1.0  0.1506179620077006  0.713889055490405  0.4128155207146448  1.0000
  C   C6        1.0  0.34944239405245975  0.3007787457444663  0.5863720990810178  1.0000
  C   C7        1.0  0.8488868665139008  0.2855380033333643  0.5865373899732444  1.0000
  C   C8        1.0  0.6511567663723953  0.6988092617853637  0.4132891900388457  1.0000
  C   C9        1.0  0.669284318044255  0.5215661165535364  0.5846080347852902  1.0000
  C   C10       1.0  0.8305126381608688  0.9373829880109595  0.4163359087568919  1.0000
  C   C11       1.0  0.3284117045157585  0.47827222011753157  0.4154875709451885  1.0000
  C   C12       1.0  0.17084150002094833  0.06483629932623095  0.5856876240422152  1.0000
  C   C13       1.0  0.24463552885367787  0.727596750318966  0.5463025279529815  1.0000
  C   C14       1.0  0.25599900266454506  0.17956310428393601  0.4528703281989762  1.0000
  C   C15       1.0  0.7533514935195385  0.2723267952464352  0.45327176031071287  1.0000
  C   C16       1.0  0.7444364042915909  0.8196039124137682  0.5467869738990173  1.0000
  C   C17       1.0  0.9324819142100438  0.5469004391464123  0.5972630941579948  1.0000
  C   C18       1.0  0.5671615169504703  0.9493114586319746  0.4027262402990316  1.0000
  C   C19       1.0  0.0652530899547585  0.45185703710435376  0.40231401948218337  1.0000
  C   C20       1.0  0.4337241851823848  0.05085154268060416  0.5986996719517917  1.0000
  C   C21       1.0  0.3533061263561592  0.7560383118881615  0.6110929139163372  1.0000
  C   C22       1.0  0.1474319223871632  0.142581243292028  0.38802220836783613  1.0000
  C   C23       1.0  0.6438157977405509  0.24459648478293153  0.3888492470052184  1.0000
  C   C24       1.0  0.8531893413838817  0.8569088306982664  0.6115366403504365  1.0000
  C   C25       1.0  0.2542088313228135  0.7496510508650187  0.4796953923064889  1.0000
  C   C26       1.0  0.24606106868355937  0.2686002371485186  0.5194228397876441  1.0000
  C   C27       1.0  0.7442482474207636  0.25047391120936874  0.5200278405903944  1.0000
  C   C28       1.0  0.7545192341749568  0.7305846632996376  0.48022537275645744  1.0000
  C   C29       1.0  0.3436666221778281  0.721738947573641  0.6756656860567956  1.0000
  C   C30       1.0  0.15706411938374737  0.04364232929783173  0.32320805737488456  1.0000
  C   C31       1.0  0.653368932960227  0.2784230687970463  0.3240628997920253  1.0000
  C   C32       1.0  0.8441137020997829  0.95601680266347  0.6763161470749138  1.0000
  C   C33       1.0  0.8487131153872977  0.5493240008242208  0.7023747989193081  1.0000
  C   C34       1.0  0.6526079816950485  0.8475293091361988  0.2977266156235529  1.0000
  C   C35       1.0  0.14967772009478608  0.4490727136332282  0.29724150258355303  1.0000
  C   C36       1.0  0.35026935975699297  0.155421221366076  0.7035663324802213  1.0000
  C   C37       1.0  0.16859814808592685  0.7373554060877154  0.3454052658188471  1.0000
  C   C38       1.0  0.3316208269288552  0.392331631400239  0.6535921184192047  1.0000
  C   C39       1.0  0.8320457682363909  0.26192035792639945  0.6540060431239139  1.0000
  C   C40       1.0  0.6684982111263053  0.6073148136019313  0.3459543880432887  1.0000
  C   C41       1.0  0.702227257195318  0.5324689549910671  0.6616029036290099  1.0000
  C   C42       1.0  0.7987077403892398  0.8718048560637469  0.3390986775053475  1.0000
  C   C43       1.0  0.29596848774908585  0.4666653227573148  0.33835098980028266  1.0000
  C   C44       1.0  0.20383679530953458  0.13173851633257516  0.662631882876198  1.0000
  C   C45       1.0  0.11617671086671774  0.7022911548183399  0.8849761592122147  1.0000
  C   C46       1.0  0.38620559811847943  0.8155300860133963  0.11370946438250924  1.0000
  C   C47       1.0  0.882332635271453  0.2965250311592981  0.11434613560053455  1.0000
  C   C48       1.0  0.6144900791910501  0.18548482438663405  0.8862913964753715  1.0000
  C   C49       1.0  0.05846022617400591  0.789517493886393  0.7993550538249748  1.0000
  C   C50       1.0  0.4441270040428193  0.988730593945739  0.19981546551689872  1.0000
  C   C51       1.0  0.9395636659962245  0.2092124167626891  0.19990100504652009  1.0000
  C   C52       1.0  0.5597206834939996  0.011791829702360562  0.8007517415660528  1.0000
  C   C53       1.0  0.9982115925132433  0.8694045295463151  0.8499282447338953  1.0000
  C   C54       1.0  0.5034042164733633  0.01851562132264205  0.14920311103223574  1.0000
  C   C55       1.0  0.00013784312675110084  0.12941177547600793  0.14942918728968377  1.0000
  C   C56       1.0  0.4996843488053102  0.9820365133091754  0.8511608703636993  1.0000
  C   C57       1.0  0.5112962228927528  0.49830410647925305  0.5398604653230022  1.0000
  C   C58       1.0  0.9880453269332248  0.958661215087737  0.46158475540535426  1.0000
  C   C59       1.0  0.48622106798488585  0.502464874736894  0.46048588089097797  1.0000
  C   C60       1.0  0.013084995679662398  0.04352713560450634  0.5406369594763447  1.0000
  C   C61       1.0  0.05763820353327282  0.7794413586068955  0.93862038318219  1.0000
  C   C62       1.0  0.4440267022665339  0.8394114800108596  0.06002440659401026  1.0000
  C   C63       1.0  0.9413645474319594  0.21951460839154888  0.060837494940201964  1.0000
  C   C64       1.0  0.5559271580751711  0.16156261530620222  0.9397488319916147  1.0000
  C   C65       1.0  0.9963043605147988  0.8648686542860984  0.9212251196676601  1.0000
  C   C66       1.0  0.5046923963691156  0.9427901938605671  0.07761442880362764  1.0000
  C   C67       1.0  0.0025857015817152013  0.1340645893565267  0.07823105649496398  1.0000
  C   C68       1.0  0.4965358098387328  0.05795181905594374  0.9223871090950763  1.0000
  C   C69       1.0  0.938962959698351  0.9527176540385862  0.9784038951164501  1.0000
  C   C70       1.0  0.5609108264075999  0.9744189172663977  0.020552951997522773  1.0000
  C   C71       1.0  0.0602148515313203  0.046266427588164995  0.02114056228995759  1.0000
  C   C72       1.0  0.43978692185260115  0.026291415412820877  0.9793000844154206  1.0000
  N   N1        1.0  0.962918418048801  0.5558257690170264  0.6707762881519697  1.0000
  N   N2        1.0  0.5378249147840465  0.8849660838347688  0.32898971656112497  1.0000
  N   N3        1.0  0.035288846901124785  0.44243881337126095  0.3286993521232872  1.0000
  N   N4        1.0  0.4642331511067824  0.11632496124305168  0.6721385227216742  1.0000
  N   N5        1.0  0.11602237372291306  0.7070610811309306  0.8163437501470125  1.0000
  N   N6        1.0  0.38665285936456684  0.8888928395238691  0.1825679909817025  1.0000
  N   N7        1.0  0.8820417599514485  0.2916684886820348  0.18289894489915065  1.0000
  N   N8        1.0  0.6160796642919876  0.11187882038708341  0.8178031774432098  1.0000
  O   O1        1.0  0.40156046478901436  0.6138345648457528  0.8010314894008841  1.0000
  O   O2        1.0  0.1001453215069574  0.809676591356016  0.1977608767703386  1.0000
  O   O3        1.0  0.5966102269381038  0.3859542069249142  0.19849927699085154  1.0000
  O   O4        1.0  0.9031652148514693  0.18978310011495822  0.8019124145896085  1.0000
  O   O5        1.0  0.2160564734182131  0.6814133262690586  0.6732307938383497  1.0000
  O   O6        1.0  0.2849983900943513  0.006797570147497791  0.32511504689122717  1.0000
  O   O7        1.0  0.7816052549275483  0.31680576555744705  0.32563874148353716  1.0000
  O   O8        1.0  0.7165672737039939  0.9935137257570826  0.6744173162681262  1.0000
  O   O9        1.0  0.2643079261817078  0.8125562981379488  0.356517767744833  1.0000
  O   O10       1.0  0.23519716408844718  0.45556853661426516  0.6423799551950677  1.0000
  O   O11       1.0  0.736370560986586  0.18682316781848832  0.6430967537765611  1.0000
  O   O12       1.0  0.7633478200031759  0.5431384015332056  0.3571555528578897  1.0000
  O   O13       1.0  0.08778242600825337  0.6804887135213064  0.2793208318118018  1.0000
  O   O14       1.0  0.41349626715596344  0.40308259742427305  0.7196243823374785  1.0000
  O   O15       1.0  0.9137108792280202  0.31841891458167004  0.7199826203015574  1.0000
  O   O16       1.0  0.5878633514225057  0.5974261928752042  0.2798204998726063  1.0000
  O   O17       1.0  0.14960786657118766  0.4649340687998699  0.7843825663218664  1.0000
  O   O18       1.0  0.3528004881014013  0.6792275504819043  0.21528884689464423  1.0000
  O   O19       1.0  0.850636979199308  0.5341097995141836  0.21562186112165435  1.0000
  O   O20       1.0  0.6504522142800084  0.32159612861288167  0.7847606751054313  1.0000
  O   O21       1.0  0.4620408079078614  0.731950138356872  0.7264068479643198  1.0000
  O   O22       1.0  0.0383688621743374  0.002038330406293157  0.27281495955955387  1.0000
  O   O23       1.0  0.534490703914912  0.2697611310073284  0.27397771529872716  1.0000
  O   O24       1.0  0.9629173661518208  0.9970703397121452  0.7267606482604164  1.0000
