data_image0
_chemical_formula_structural       Na4H20C20S4O16
_chemical_formula_sum              "Na4 H20 C20 S4 O16"
_cell_length_a       5.46354912300088
_cell_length_b       10.678083041592311
_cell_length_c       11.65493613511299
_cell_angle_alpha    96.63771580510587
_cell_angle_beta     90.00002369294998
_cell_angle_gamma    89.99995546616596

_space_group_name_H-M_alt    "P 1"
_space_group_IT_number       1

loop_
  _space_group_symop_operation_xyz
  'x, y, z'

loop_
  _atom_site_type_symbol
  _atom_site_label
  _atom_site_symmetry_multiplicity
  _atom_site_fract_x
  _atom_site_fract_y
  _atom_site_fract_z
  _atom_site_occupancy
  Na  Na1       1.0  0.903436952681858  0.6740173175718241  0.5957457820918892  1.0000
  Na  Na2       1.0  0.4034411353078156  0.8259836956091179  0.4042552086281718  1.0000
  Na  Na3       1.0  0.09656394069202891  0.3259857954811949  0.40425431289676095  1.0000
  Na  Na4       1.0  0.5965597580678407  0.17401187129733128  0.5957432558755401  1.0000
  H   H1        1.0  0.726923658693238  0.8761477904565851  0.8183385791820899  1.0000
  H   H2        1.0  0.22692017325032052  0.6238608676111922  0.18166407987694563  1.0000
  H   H3        1.0  0.27307906499978435  0.1238591231462536  0.1816687689518446  1.0000
  H   H4        1.0  0.7730862110584199  0.37614035249234234  0.818334105312509  1.0000
  H   H5        1.0  0.4312975141066461  0.14976496773727627  0.8247228145479327  1.0000
  H   H6        1.0  0.9313030974977748  0.3502240411561388  0.17527724737799844  1.0000
  H   H7        1.0  0.5686740942900813  0.8502315932782168  0.17528776389011114  1.0000
  H   H8        1.0  0.068710608061437  0.6497743541778362  0.8247215066610423  1.0000
  H   H9        1.0  0.4764035775067796  0.7933156546549187  0.9669184633519167  1.0000
  H   H10       1.0  0.976405293209112  0.7066966350986518  0.033084528254605096  1.0000
  H   H11       1.0  0.5235973158677895  0.20669690115623493  0.033086030307337894  1.0000
  H   H12       1.0  0.023593769849163896  0.2933017455849977  0.9669107922377335  1.0000
  H   H13       1.0  0.1468753908007585  0.6069114788748565  0.38206723379025226  1.0000
  H   H14       1.0  0.6468728731692509  0.8930962811597212  0.6179353459227743  1.0000
  H   H15       1.0  0.8531218419457788  0.39308879109365347  0.6179291381138228  1.0000
  H   H16       1.0  0.35312985051636053  0.10690777470315281  0.382064845577915  1.0000
  H   H17       1.0  0.9142684511274839  0.6889730557208936  0.3682879218139449  1.0000
  H   H18       1.0  0.41426588947374665  0.81103170432646  0.6317091606976177  1.0000
  H   H19       1.0  0.08572878162257781  0.3110262824280595  0.6317109287390963  1.0000
  H   H20       1.0  0.5857350039015473  0.1889733016745154  0.36829284408963764  1.0000
  C   C1        1.0  0.12444762028516011  0.033795562958729895  0.8563397923286402  1.0000
  C   C2        1.0  0.6244511787119507  0.46620868789263864  0.1436584460488177  1.0000
  C   C3        1.0  0.875564254958775  0.9662084855743771  0.14365868239692506  1.0000
  C   C4        1.0  0.3755405630912563  0.5337962778112343  0.8563341164816691  1.0000
  C   C5        1.0  0.9727181955450347  0.9828438855070373  0.9397099852321845  1.0000
  C   C6        1.0  0.47273099027835036  0.5171476754676334  0.06029345905555063  1.0000
  C   C7        1.0  0.027280867536532596  0.0171517436812252  0.0603030718518838  1.0000
  C   C8        1.0  0.5272845455855377  0.48285069422059473  0.9396992862738217  1.0000
  C   C9        1.0  0.772222151921959  0.9010357575834008  0.9089105835696429  1.0000
  C   C10       1.0  0.2722294496053764  0.598955911882797  0.09109204532792603  1.0000
  C   C11       1.0  0.22776409896722782  0.09896362086828958  0.0910977092423266  1.0000
  C   C12       1.0  0.7277677831464615  0.40103871221430853  0.9089063226639456  1.0000
  C   C13       1.0  0.3176901416055031  0.1129835148731857  0.8897161441308086  1.0000
  C   C14       1.0  0.8176845455829492  0.3870234526521301  0.11028148395647723  1.0000
  C   C15       1.0  0.6823272245736334  0.8870205299947855  0.1102814722071059  1.0000
  C   C16       1.0  0.18232183872544994  0.6129702139776184  0.8897133539739103  1.0000
  C   C17       1.0  0.6310759310510435  0.8545619579992589  0.9920599979780249  1.0000
  C   C18       1.0  0.13109578877422481  0.645440102714268  0.00792998862843321  1.0000
  C   C19       1.0  0.368923132007211  0.1454477510632586  0.007939914209387697  1.0000
  C   C20       1.0  0.8689124258455578  0.3545526174409943  0.9920638944024632  1.0000
  S   S1        1.0  0.07643969673925001  0.9912670490662946  0.705157827056837  1.0000
  S   S2        1.0  0.5764587308496587  0.5087350641915478  0.29483732158884385  1.0000
  S   S3        1.0  0.9235557057008422  0.0087322964103862  0.2948427402705391  1.0000
  S   S4        1.0  0.42354765346085094  0.49126427395484745  0.7051615289632168  1.0000
  O   O1        1.0  0.11252983676968142  0.8529681491713815  0.6863819658712771  1.0000
  O   O2        1.0  0.6125341358172777  0.647026445382764  0.31362270358340544  1.0000
  O   O3        1.0  0.8874765475439973  0.14703119996583067  0.3136194598419877  1.0000
  O   O4        1.0  0.3874576060028901  0.3529700826546502  0.6863801493688655  1.0000
  O   O5        1.0  0.2552231435455213  0.0603006540220292  0.6441862100170113  1.0000
  O   O6        1.0  0.7552272527365247  0.4397006695995386  0.3558057020694535  1.0000
  O   O7        1.0  0.7447795801464636  0.9396949275383333  0.3558156880347809  1.0000
  O   O8        1.0  0.2447681496996879  0.5603005505070655  0.6441924831211807  1.0000
  O   O9        1.0  0.8206395561541555  0.025016793096668308  0.6809892198931281  1.0000
  O   O10       1.0  0.3206452087754883  0.4749920986960632  0.3190180428426643  1.0000
  O   O11       1.0  0.17936133722820102  0.9749835171704858  0.3190165942682981  1.0000
  O   O12       1.0  0.6793611755339628  0.5250044036920157  0.6809788013985597  1.0000
  O   O13       1.0  0.07037566167566212  0.6884680372843306  0.41109399241480565  1.0000
  O   O14       1.0  0.5703768149170543  0.8115341343247022  0.5889140333392433  1.0000
  O   O15       1.0  0.9296197407626821  0.31152752596005223  0.5889036137024348  1.0000
  O   O16       1.0  0.4296185875187958  0.1884708606869907  0.41108539628739754  1.0000
