data_image0
_chemical_formula_structural       Cu4H40C28N12O12
_chemical_formula_sum              "Cu4 H40 C28 N12 O12"
_cell_length_a       6.607223098783687
_cell_length_b       8.113933367441543
_cell_length_c       18.272860226349845
_cell_angle_alpha    89.99964403193535
_cell_angle_beta     89.99939791826245
_cell_angle_gamma    91.94911463973321

_space_group_name_H-M_alt    "P 1"
_space_group_IT_number       1

loop_
  _space_group_symop_operation_xyz
  'x, y, z'

loop_
  _atom_site_type_symbol
  _atom_site_label
  _atom_site_symmetry_multiplicity
  _atom_site_fract_x
  _atom_site_fract_y
  _atom_site_fract_z
  _atom_site_occupancy
  Cu  Cu1       1.0  0.940947533249016  0.22443009532068464  0.5116999468881858  1.0000
  Cu  Cu2       1.0  0.05904843563291  0.27557098999763957  0.011698825407158601  1.0000
  Cu  Cu3       1.0  0.0590503070458865  0.7755668046066476  0.4882994939849682  1.0000
  Cu  Cu4       1.0  0.9409495743551446  0.7244296093849557  0.9883017099799646  1.0000
  H   H1        1.0  0.5794595495070495  0.1098829697444685  0.5048031318806636  1.0000
  H   H2        1.0  0.4205454207114698  0.39011202724630334  0.0047992233764234  1.0000
  H   H3        1.0  0.4205321244070887  0.8901114803843059  0.49519521448820575  1.0000
  H   H4        1.0  0.5794616691707759  0.6098885473869801  0.9952007647337455  1.0000
  H   H5        1.0  0.6265937878895967  0.2638187061027679  0.4314497814832308  1.0000
  H   H6        1.0  0.37341250582937846  0.23617733182041434  0.931449200962085  1.0000
  H   H7        1.0  0.3734025391152684  0.7361781979622891  0.5685480176136936  1.0000
  H   H8        1.0  0.6265946406145488  0.7638244759632684  0.06855133440598143  1.0000
  H   H9        1.0  0.7279419051004437  0.47521818234992014  0.5252501567743482  1.0000
  H   H10       1.0  0.27204452600400225  0.024781493811524096  0.025250010389804307  1.0000
  H   H11       1.0  0.27205279542618394  0.5247762595196265  0.474749284108171  1.0000
  H   H12       1.0  0.727952027263811  0.9752203428632457  0.9747488832192914  1.0000
  H   H13       1.0  0.6534162950852292  0.19153506296743217  0.6369726630583517  1.0000
  H   H14       1.0  0.3465649744533721  0.3084555631933412  0.1369741867766479  1.0000
  H   H15       1.0  0.3465768921351611  0.8084593830317316  0.3630262305673498  1.0000
  H   H16       1.0  0.6534284389975512  0.6915438153993139  0.8630279904000135  1.0000
  H   H17       1.0  0.7706141522985419  0.3897867572209321  0.6548932798998095  1.0000
  H   H18       1.0  0.22937717971570484  0.11020357457292108  0.1548936076499956  1.0000
  H   H19       1.0  0.22938508819543554  0.6102076722840907  0.3451045191949832  1.0000
  H   H20       1.0  0.7706250873745545  0.8897908466647735  0.8451063804778444  1.0000
  H   H21       1.0  0.5717515468582873  0.5921052282457782  0.7035305380855875  1.0000
  H   H22       1.0  0.4282476319024795  0.9078941962486128  0.20353202379837404  1.0000
  H   H23       1.0  0.4282614265881789  0.40789163043000803  0.2964683554991083  1.0000
  H   H24       1.0  0.571756261690318  0.09210268719674271  0.7964646807647782  1.0000
  H   H25       1.0  0.4763834643960577  0.4218648315636885  0.7566841000305403  1.0000
  H   H26       1.0  0.5236102414470735  0.0781424771263062  0.2566839430406419  1.0000
  H   H27       1.0  0.5236100056732695  0.578135780207745  0.2433147935861157  1.0000
  H   H28       1.0  0.47639539169871625  0.9218593347910444  0.7433154978108975  1.0000
  H   H29       1.0  0.20135803110894562  0.6547177810782543  0.6686034011650933  1.0000
  H   H30       1.0  0.7986393251312265  0.8452858685747984  0.1686058381269859  1.0000
  H   H31       1.0  0.7986463716038584  0.34529020075314787  0.3313938506414758  1.0000
  H   H32       1.0  0.20136944776663063  0.15471840139223053  0.831394697234586  1.0000
  H   H33       1.0  0.1686907742923154  0.4896422424715325  0.8204551234449797  1.0000
  H   H34       1.0  0.8313030653780656  0.0103752157284092  0.32045179262778595  1.0000
  H   H35       1.0  0.8313260743053731  0.5103731052577913  0.1795454118859396  1.0000
  H   H36       1.0  0.16869320499218077  0.989620455149762  0.6795503845485487  1.0000
  H   H37       1.0  0.9868348798398614  0.6291883945945146  0.7768646854160296  1.0000
  H   H38       1.0  0.013161122879864715  0.8708210459741041  0.2768640232403358  1.0000
  H   H39       1.0  0.013177428814785206  0.3708269655114905  0.22313584992352278  1.0000
  H   H40       1.0  0.9868351475065894  0.12917462491218148  0.723137059416601  1.0000
  C   C1        1.0  0.6450416888651773  0.22965220296647712  0.4886980834011681  1.0000
  C   C2        1.0  0.3549599958898567  0.2703454613780494  0.9886969316434886  1.0000
  C   C3        1.0  0.3549591214967264  0.7703434555593347  0.5113008102083398  1.0000
  C   C4        1.0  0.6450426106191285  0.7296563587863716  0.011303056473501303  1.0000
  C   C5        1.0  0.6969411763817134  0.3472530675052142  0.5416167408488448  1.0000
  C   C6        1.0  0.30305227998955786  0.1527451123916919  0.0416177652417531  1.0000
  C   C7        1.0  0.30305352415302167  0.6527413743683893  0.4583821527739786  1.0000
  C   C8        1.0  0.6969458431461817  0.8472579533038668  0.9583822228820581  1.0000
  C   C9        1.0  0.6561218229993029  0.3228603732204078  0.6219441781905817  1.0000
  C   C10       1.0  0.3438587177587991  0.17713787865555733  0.12194388536938311  1.0000
  C   C11       1.0  0.3438728775192175  0.6771340686450813  0.37805580995163274  1.0000
  C   C12       1.0  0.6561332955335571  0.8228639703796787  0.8780571972871414  1.0000
  C   C13       1.0  0.44726713210394564  0.4987981957863709  0.7086204189884883  1.0000
  C   C14       1.0  0.5527304581291047  0.0011974851744228003  0.2086209105787589  1.0000
  C   C15       1.0  0.5527353613140917  0.5012011580934655  0.291376285573918  1.0000
  C   C16       1.0  0.44727674490081876  0.9988055557718244  0.791378530268098  1.0000
  C   C17       1.0  0.24781975817747076  0.5788865883818347  0.7147292010644792  1.0000
  C   C18       1.0  0.7521866554864899  0.9211126495719809  0.2147310585357189  1.0000
  C   C19       1.0  0.7521949549030252  0.4211151988064756  0.2852669562116077  1.0000
  C   C20       1.0  0.24780989779753074  0.07888918711089594  0.785266740553979  1.0000
  C   C21       1.0  0.1281126602674973  0.5643979904247728  0.7733666840143486  1.0000
  C   C22       1.0  0.8718835026385535  0.9356127351310947  0.2733647621195274  1.0000
  C   C23       1.0  0.8718965086512965  0.4356149116396609  0.226631662295766  1.0000
  C   C24       1.0  0.12811288086316347  0.06438540205193284  0.7266379623128927  1.0000
  C   C25       1.0  0.29736597098722223  0.3448725965593695  0.6068426522422927  1.0000
  C   C26       1.0  0.7026271236050403  0.15512584607767374  0.10683777038928353  1.0000
  C   C27       1.0  0.7026351221831106  0.6551292277184474  0.39315897765666824  1.0000
  C   C28       1.0  0.2973753697886821  0.8448735077899983  0.893160575952223  1.0000
  N   N1        1.0  0.45953206392611895  0.3960602445265168  0.6417262479222289  1.0000
  N   N2        1.0  0.5404554575237553  0.1039376936430045  0.1417265028746257  1.0000
  N   N3        1.0  0.5404704294757109  0.6039391093452054  0.3582715511595822  1.0000
  N   N4        1.0  0.45953958240539805  0.896064147145161  0.858274032516448  1.0000
  N   N5        1.0  0.15896875719855072  0.2977936717687228  0.5713198063104485  1.0000
  N   N6        1.0  0.8410168186523419  0.20221642026907463  0.0713175511427053  1.0000
  N   N7        1.0  0.8410265090178654  0.7022131016413198  0.42868018181368944  1.0000
  N   N8        1.0  0.1589755340830621  0.7977928277050524  0.928681889723869  1.0000
  N   N9        1.0  0.18828750010133893  0.16136046713253901  0.39269491991017713  1.0000
  N   N10       1.0  0.8117124313961596  0.3386373987347824  0.8926940294966671  1.0000
  N   N11       1.0  0.8117165065662134  0.8386388825893007  0.6073061627269569  1.0000
  N   N12       1.0  0.1882793555927336  0.6613595176704764  0.107308694946191  1.0000
  O   O1        1.0  0.1587040410226024  0.3126842712134349  0.3866420752775923  1.0000
  O   O2        1.0  0.8412947826899922  0.18731862106483282  0.8866420368266859  1.0000
  O   O3        1.0  0.8413014789917098  0.6873150743990594  0.6133568183178612  1.0000
  O   O4        1.0  0.1586988005027123  0.8126844570074002  0.11335795130575121  1.0000
  O   O5        1.0  0.3157667442790384  0.08820113684741669  0.3553689302577467  1.0000
  O   O6        1.0  0.6842375455962824  0.4118022063832286  0.8553672289773218  1.0000
  O   O7        1.0  0.6842431458960121  0.911794496888547  0.6446348886718027  1.0000
  O   O8        1.0  0.31574090430708424  0.588200912871642  0.1446426098584723  1.0000
  O   O9        1.0  0.080143077152286  0.07641850359428301  0.440379075112844  1.0000
  O   O10       1.0  0.9198524720510903  0.423579897226766  0.9403786331300809  1.0000
  O   O11       1.0  0.919853249820157  0.9235784004545595  0.5596209130228829  1.0000
  O   O12       1.0  0.0801531045168034  0.5764206815320778  0.0596213549829656  1.0000
