data_image0
_chemical_formula_structural       Ag4H24C48N20O12
_chemical_formula_sum              "Ag4 H24 C48 N20 O12"
_cell_length_a       7.513458347020553
_cell_length_b       8.15695529292489
_cell_length_c       20.085186184636857
_cell_angle_alpha    93.83920391442675
_cell_angle_beta     89.99980550606666
_cell_angle_gamma    89.9998297693008

_space_group_name_H-M_alt    "P 1"
_space_group_IT_number       1

loop_
  _space_group_symop_operation_xyz
  'x, y, z'

loop_
  _atom_site_type_symbol
  _atom_site_label
  _atom_site_symmetry_multiplicity
  _atom_site_fract_x
  _atom_site_fract_y
  _atom_site_fract_z
  _atom_site_occupancy
  Ag  Ag1       1.0  0.5899147994024221  0.6866466255297041  0.924887301437714  1.0000
  Ag  Ag2       1.0  0.9100833459409969  0.18664755031595354  0.4248888245349676  1.0000
  Ag  Ag3       1.0  0.4100846117933941  0.3133540438087152  0.07511115472370021  1.0000
  Ag  Ag4       1.0  0.08991872714247509  0.813351902277617  0.5751105967066722  1.0000
  H   H1        1.0  0.7468302198134965  0.8330516366234733  0.0632457621644136  1.0000
  H   H2        1.0  0.7531627351828333  0.3330514620730868  0.5632470242843794  1.0000
  H   H3        1.0  0.2531665294898744  0.16694781597796293  0.9367536590808356  1.0000
  H   H4        1.0  0.24683800695985522  0.6669455331415365  0.43675233497838667  1.0000
  H   H5        1.0  0.9342095486815153  0.32845982330611184  0.0437351994410875  1.0000
  H   H6        1.0  0.5657902521586423  0.8284639384076514  0.5437383153302947  1.0000
  H   H7        1.0  0.0657898625095044  0.6715384125504754  0.9562651868843873  1.0000
  H   H8        1.0  0.43421315184725273  0.17153557393162092  0.4562660862700341  1.0000
  H   H9        1.0  0.7971208805963171  0.31740241905030325  0.9313167684939004  1.0000
  H   H10       1.0  0.702878115428213  0.8174052168316238  0.4313186161530638  1.0000
  H   H11       1.0  0.20287719964769477  0.6825982682143845  0.0686831817763007  1.0000
  H   H12       1.0  0.29712395763532123  0.18259795768190656  0.5686838862739948  1.0000
  H   H13       1.0  0.6337504223218459  0.3103972209810665  0.8493779686446388  1.0000
  H   H14       1.0  0.8662480058208146  0.8103970961231326  0.3493810269746049  1.0000
  H   H15       1.0  0.3662476579336058  0.6896046591254716  0.15061902439968833  1.0000
  H   H16       1.0  0.13375273630433782  0.18960483775238401  0.6506204483915496  1.0000
  H   H17       1.0  0.5043964576438852  0.2673738737040452  0.7358943274820362  1.0000
  H   H18       1.0  0.9955991420756121  0.7673782571365209  0.2358953422831789  1.0000
  H   H19       1.0  0.4956029535606987  0.7326243263039275  0.2641030706276908  1.0000
  H   H20       1.0  0.004397607214748701  0.23262612217627074  0.7641051989935406  1.0000
  H   H21       1.0  0.44200612750913854  0.7527152297882366  0.7730104363190122  1.0000
  H   H22       1.0  0.05799561886303201  0.2527183947289942  0.273009977503186  1.0000
  H   H23       1.0  0.5579986074666365  0.24728421682662122  0.22698848688486348  1.0000
  H   H24       1.0  0.9420091160953489  0.7472872132624458  0.7269905947580071  1.0000
  C   C1        1.0  0.7570864326081193  0.9426736667317217  0.035048638758084415  1.0000
  C   C2        1.0  0.7429117470432444  0.44267597988822877  0.5350499767571506  1.0000
  C   C3        1.0  0.24291164764027687  0.05732578586774649  0.9649507824862625  1.0000
  C   C4        1.0  0.25709032603796095  0.5573234786801036  0.46494994252045524  1.0000
  C   C5        1.0  0.8464992517982283  0.0826196893418114  0.0627062896718726  1.0000
  C   C6        1.0  0.6534985094509054  0.5826198470140227  0.5627081976247297  1.0000
  C   C7        1.0  0.1534961665534738  0.9173810039015822  0.9372941586360852  1.0000
  C   C8        1.0  0.34650090174210396  0.4173759374364181  0.4372926247569354  1.0000
  C   C9        1.0  0.8619035606794158  0.21966725914415972  0.024548133626559807  1.0000
  C   C10       1.0  0.6380954338549358  0.7196711484455989  0.5245501554296368  1.0000
  C   C11       1.0  0.13809585051387072  0.7803309707376584  0.9754517546629558  1.0000
  C   C12       1.0  0.3619066392172313  0.28032833402180296  0.47545175599180584  1.0000
  C   C13       1.0  0.7852861514617261  0.21205577018661614  0.9614260622766793  1.0000
  C   C14       1.0  0.7147155744861636  0.712058544911109  0.46142888996327963  1.0000
  C   C15       1.0  0.2147159216240055  0.7879436764321782  0.03857286092900841  1.0000
  C   C16       1.0  0.28528916046728636  0.28794340688280334  0.5385740795080451  1.0000
  C   C17       1.0  0.6972138679536712  0.06856785161075861  0.9370955539996686  1.0000
  C   C18       1.0  0.802788541126155  0.568572811283552  0.43709732820681785  1.0000
  C   C19       1.0  0.3027868741870351  0.9314315950100039  0.0629033692069143  1.0000
  C   C20       1.0  0.19721619383208377  0.43143157399219234  0.5629037111004466  1.0000
  C   C21       1.0  0.6140554202044227  0.0531123942412108  0.8699582972308307  1.0000
  C   C22       1.0  0.8859476454714965  0.5531134278675084  0.36996036377795605  1.0000
  C   C23       1.0  0.38594399098913357  0.9468882810719776  0.1300406569665427  1.0000
  C   C24       1.0  0.11405575854384858  0.44688972871975347  0.6300406445403226  1.0000
  C   C25       1.0  0.5937238637932438  0.18785745973558224  0.8307189363600996  1.0000
  C   C26       1.0  0.9062777904868967  0.6878608846376226  0.3307205392914484  1.0000
  C   C27       1.0  0.4062755474024371  0.8121419868871486  0.16927998684738552  1.0000
  C   C28       1.0  0.09372162069337969  0.31214227195554395  0.6692804690295378  1.0000
  C   C29       1.0  0.5191327032285926  0.16493734560825155  0.7675621947169233  1.0000
  C   C30       1.0  0.9808695957713455  0.6649405558737344  0.2675641945713494  1.0000
  C   C31       1.0  0.48086670797612646  0.8350620771154098  0.2324347363467254  1.0000
  C   C32       1.0  0.019128484468424703  0.3350625887718691  0.7324358176786205  1.0000
  C   C33       1.0  0.4649808999376858  0.005781587224738902  0.7454354533613669  1.0000
  C   C34       1.0  0.03501923097024931  0.5057848754914078  0.24543703052734142  1.0000
  C   C35       1.0  0.5350171803152293  0.9942178534251982  0.2545629718110689  1.0000
  C   C36       1.0  0.964980180214539  0.49421826915222783  0.7545629817217261  1.0000
  C   C37       1.0  0.4847704520607791  0.8773303346839896  0.7882480654380544  1.0000
  C   C38       1.0  0.0152307542791377  0.37733118664844784  0.2882490967201008  1.0000
  C   C39       1.0  0.5152302900823216  0.12267032867769961  0.2117498926864982  1.0000
  C   C40       1.0  0.9847713187935766  0.6226731866817019  0.71175094651705  1.0000
  C   C41       1.0  0.9196370606243179  0.07523325064351381  0.1277877222095825  1.0000
  C   C42       1.0  0.5803601363601986  0.5752323959380518  0.6277896983152688  1.0000
  C   C43       1.0  0.08035835772951569  0.924766213909429  0.8722126951084875  1.0000
  C   C44       1.0  0.41963927483706  0.42476093113148045  0.3722110620866133  1.0000
  C   C45       1.0  0.39062239462312925  0.9713679963001169  0.6812439999793867  1.0000
  C   C46       1.0  0.10937548221902921  0.4713698044829897  0.18124543266664261  1.0000
  C   C47       1.0  0.6093743546957883  0.028628969046572205  0.318752869106291  1.0000
  C   C48       1.0  0.890621267064553  0.5286345927541023  0.8187566027179543  1.0000
  N   N1        1.0  0.6860882617193553  0.9360589685568572  0.9741294548957172  1.0000
  N   N2        1.0  0.8139112952735063  0.4360614124482964  0.47413163738630715  1.0000
  N   N3        1.0  0.3139098185314353  0.06394170078353768  0.025869001266606503  1.0000
  N   N4        1.0  0.18609210874622312  0.5639405094737454  0.5258688419061316  1.0000
  N   N5        1.0  0.5574663581047191  0.9016604191615728  0.8484236835876615  1.0000
  N   N6        1.0  0.9425371077875228  0.40166248861062565  0.3484261897574541  1.0000
  N   N7        1.0  0.4425357149811476  0.09834025017291029  0.151574772571955  1.0000
  N   N8        1.0  0.05746496528053769  0.5983406739533735  0.6515753165976863  1.0000
  N   N9        1.0  0.9780560178279601  0.0586113710298832  0.1808094623937961  1.0000
  N   N10       1.0  0.521940753696889  0.5586069910837139  0.6808104286483215  1.0000
  N   N11       1.0  0.021939400523749  0.9413893222135103  0.8191909859141618  1.0000
  N   N12       1.0  0.4780613193904131  0.441386335981882  0.3191903317517557  1.0000
  N   N13       1.0  0.32694894010604253  0.9409269051596991  0.6287385118784955  1.0000
  N   N14       1.0  0.17305217138380874  0.4409272903523345  0.1287393292248211  1.0000
  N   N15       1.0  0.6730544639247071  0.0590725414571338  0.3712604113262827  1.0000
  N   N16       1.0  0.8269499017061647  0.5590696988855584  0.8712595320010905  1.0000
  N   N17       1.0  0.2958403862126673  0.45768022917018675  0.8845772125236806  1.0000
  N   N18       1.0  0.20415835927514792  0.9576817884994712  0.38457852942139686  1.0000
  N   N19       1.0  0.7041603559235127  0.5423192294001141  0.1154227067548206  1.0000
  N   N20       1.0  0.795843713803805  0.042317676043630605  0.6154218878921682  1.0000
  O   O1        1.0  0.4024142449230724  0.4597739292034362  0.9354286869403624  1.0000
  O   O2        1.0  0.09758270333957599  0.9597745690723729  0.4354296192802068  1.0000
  O   O3        1.0  0.5975838353206697  0.5402243126298815  0.06457219742197401  1.0000
  O   O4        1.0  0.9024207006821426  0.0402249014435299  0.5645712960684081  1.0000
  O   O5        1.0  0.3080411615326214  0.5689728947978666  0.8443086759696286  1.0000
  O   O6        1.0  0.1919592028325852  0.06897322407007073  0.3443094676859175  1.0000
  O   O7        1.0  0.6919609115507158  0.4310253350800152  0.1556912123180823  1.0000
  O   O8        1.0  0.8080428702463607  0.9310262404730238  0.6556909496276404  1.0000
  O   O9        1.0  0.18258916075900802  0.34444636170601234  0.8768773878978067  1.0000
  O   O10       1.0  0.31740868894820556  0.8444475980350105  0.3768795473497449  1.0000
  O   O11       1.0  0.8174089194893882  0.6555530908934557  0.12312203334654014  1.0000
  O   O12       1.0  0.6825907222450809  0.15555063184680756  0.6231203409397708  1.0000
