data_image0
_chemical_formula_structural       Al2H18C18O11
_chemical_formula_sum              "Al2 H18 C18 O11"
_cell_length_a       6.683242492683966
_cell_length_b       11.127085866113104
_cell_length_c       10.997678390943173
_cell_angle_alpha    87.95754510541967
_cell_angle_beta     72.40426819070572
_cell_angle_gamma    73.08670236796536

_space_group_name_H-M_alt    "P 1"
_space_group_IT_number       1

loop_
  _space_group_symop_operation_xyz
  'x, y, z'

loop_
  _atom_site_type_symbol
  _atom_site_label
  _atom_site_symmetry_multiplicity
  _atom_site_fract_x
  _atom_site_fract_y
  _atom_site_fract_z
  _atom_site_occupancy
  Al  Al1       1.0  0.00010627500367366603  0.5009652940247734  0.5030228722365351  1.0000
  Al  Al2       1.0  0.5037012806455221  0.497354346119927  0.49861909763023243  1.0000
  H   H1        1.0  0.1445732680974031  0.5798337053405762  0.6492688905647839  1.0000
  H   H2        1.0  0.8723735315495555  0.4059838658142069  0.3578772405187961  1.0000
  H   H3        1.0  0.7489686236738746  0.1201496233078885  0.5230225483373586  1.0000
  H   H4        1.0  0.1266481558837285  0.11734635771451  0.4867584016883555  1.0000
  H   H5        1.0  0.8663752585861957  0.8854345806491039  0.5171382072094842  1.0000
  H   H6        1.0  0.5887868479447389  0.2971039734631802  0.10612107497027519  1.0000
  H   H7        1.0  0.7647104526297281  0.38917048370601043  0.10476768764062427  1.0000
  H   H8        1.0  0.8737130659322145  0.37258796942304423  0.881245610275023  1.0000
  H   H9        1.0  0.6772925355310803  0.29417811129513877  0.8840489091660115  1.0000
  H   H10       1.0  0.7646736046328398  0.6073138366692206  0.9017378537775256  1.0000
  H   H11       1.0  0.5030116161153017  0.6993831403212881  0.8961091352839501  1.0000
  H   H12       1.0  0.6248269449949005  0.624566251452144  0.12483156807364541  1.0000
  H   H13       1.0  0.3573518006881498  0.7021996981856233  0.11757690902650351  1.0000
  H   H14       1.0  0.198346621992293  0.4082859319996502  0.1003898645359271  1.0000
  H   H15       1.0  0.09690359820132949  0.5733282575304911  0.11712368193722261  1.0000
  H   H16       1.0  0.21784017297151326  0.5876366726876726  0.896063740479441  1.0000
  H   H17       1.0  0.29358419627470056  0.42261756292241154  0.8789199843699151  1.0000
  H   H18       1.0  0.2885544346441974  0.7824412988165577  0.47380945552924897  1.0000
  C   C1        1.0  0.639824382303452  0.4976572017880584  0.7313811157461956  1.0000
  C   C2        1.0  0.6387207704093639  0.7296372562088038  0.4955216918153481  1.0000
  C   C3        1.0  0.35883957127498417  0.5011832513655817  0.270325490936102  1.0000
  C   C4        1.0  0.362271475872852  0.27235395707439375  0.5067587610841926  1.0000
  C   C5        1.0  0.5650540020293701  0.8683542933014793  0.4976868031254326  1.0000
  C   C6        1.0  0.4307802027960361  0.13189179350265326  0.505733800519117  1.0000
  C   C7        1.0  0.35419151042768926  0.934417358955365  0.48790776085369447  1.0000
  C   C8        1.0  0.6402704914507706  0.0669289570808544  0.5144241775378404  1.0000
  C   C9        1.0  0.288586094441598  0.0663247617259159  0.49330875196225316  1.0000
  C   C10       1.0  0.7046364366775109  0.9367577010455506  0.5109928748722866  1.0000
  C   C11       1.0  0.6303318118513557  0.3830126691547947  0.06975410990041549  1.0000
  C   C12       1.0  0.6994616178889429  0.37803381682766  0.9218221002246096  1.0000
  C   C13       1.0  0.5602458478768781  0.4970324458459031  0.8761772528984652  1.0000
  C   C14       1.0  0.5892451439789281  0.613549796863758  0.9337452953547681  1.0000
  C   C15       1.0  0.49955110534898467  0.6185832681064481  0.08155383600787046  1.0000
  C   C16       1.0  0.4298577106927651  0.4990371101888868  0.12532350205288617  1.0000
  C   C17       1.0  0.24368067312776995  0.4950158779183481  0.07230726169873238  1.0000
  C   C18       1.0  0.3171236231723069  0.5010019803604067  0.9254278094525076  1.0000
  O   O1        1.0  0.8416064740669427  0.48984091073641867  0.67832407684201  1.0000
  O   O2        1.0  0.503413221083484  0.6719134271404315  0.48186603277506623  1.0000
  O   O3        1.0  0.5065927444759525  0.49046196449531015  0.32456260710128493  1.0000
  O   O4        1.0  0.1723376158269686  0.32739896915368394  0.49689465501318597  1.0000
  O   O5        1.0  0.15761946791960912  0.5133195118217984  0.32850995701562613  1.0000
  O   O6        1.0  0.5019960692477381  0.326490066181492  0.5152524657753048  1.0000
  O   O7        1.0  0.4990664239833007  0.5084705295623025  0.672351852559359  1.0000
  O   O8        1.0  0.8252205984717661  0.6746282080939991  0.5088097395770531  1.0000
  O   O9        1.0  0.19667295638916463  0.5574989589660149  0.5582591860610577  1.0000
  O   O10       1.0  0.808086609125098  0.4440987015940295  0.4440110918120368  1.0000
  O   O11       1.0  0.2126525798478908  0.8748838650585  0.4737200406277252  1.0000
