data_image0
_chemical_formula_structural       Zn4H36C28N28
_chemical_formula_sum              "Zn4 H36 C28 N28"
_cell_length_a       6.018858395574813
_cell_length_b       10.958346305796537
_cell_length_c       16.538141017225502
_cell_angle_alpha    90.0005156865689
_cell_angle_beta     89.99953515721356
_cell_angle_gamma    105.12996505721281

_space_group_name_H-M_alt    "P 1"
_space_group_IT_number       1

loop_
  _space_group_symop_operation_xyz
  'x, y, z'

loop_
  _atom_site_type_symbol
  _atom_site_label
  _atom_site_symmetry_multiplicity
  _atom_site_fract_x
  _atom_site_fract_y
  _atom_site_fract_z
  _atom_site_occupancy
  Zn  Zn1       1.0  0.2382238542098564  0.26060112695237353  0.21078287432585793  1.0000
  Zn  Zn2       1.0  0.2617781698003086  0.739397186027553  0.7107806285005294  1.0000
  Zn  Zn3       1.0  0.7617793639084383  0.7393970418735736  0.7892173216952754  1.0000
  Zn  Zn4       1.0  0.7382251421863517  0.260604758439449  0.28921775354325513  1.0000
  H   H1        1.0  0.5364559962266213  0.3506698719320981  0.06434119227328239  1.0000
  H   H2        1.0  0.963542848344588  0.649327509617045  0.5643395851618107  1.0000
  H   H3        1.0  0.46353557351920943  0.6493282581150839  0.9356620270803332  1.0000
  H   H4        1.0  0.036462473294740526  0.350671610052821  0.43566121552180437  1.0000
  H   H5        1.0  0.7951724078938441  0.10737687979234073  0.955085872944579  1.0000
  H   H6        1.0  0.7048172133354956  0.8926182294196753  0.455080561605122  1.0000
  H   H7        1.0  0.20484104628157243  0.8926147162897211  0.04491553236644559  1.0000
  H   H8        1.0  0.2951751713455409  0.10739594850018364  0.5449172158298692  1.0000
  H   H9        1.0  0.8688479461949828  0.13115013023389113  0.10297675759863267  1.0000
  H   H10       1.0  0.6311523002823308  0.8688448560777928  0.6029708661241031  1.0000
  H   H11       1.0  0.13115577544456877  0.8688348265942384  0.8970252523703619  1.0000
  H   H12       1.0  0.36884718006917444  0.1311702893126707  0.3970275159656324  1.0000
  H   H13       1.0  0.699376132139804  0.3986374967415004  0.9360031391295962  1.0000
  H   H14       1.0  0.8006133497984251  0.6013564549993263  0.4359999976585484  1.0000
  H   H15       1.0  0.30062831053805195  0.6013597323384092  0.0639988708754302  1.0000
  H   H16       1.0  0.19938654022499244  0.3986417027388074  0.5639995937048707  1.0000
  H   H17       1.0  0.5983242759229769  0.2799342191620014  0.8615755880516713  1.0000
  H   H18       1.0  0.9016626093104777  0.720057948616038  0.36157164059711266  1.0000
  H   H19       1.0  0.4016763991745124  0.7200620535384774  0.1384270266192189  1.0000
  H   H20       1.0  0.09833097013557085  0.2799373566003923  0.6384279507675216  1.0000
  H   H21       1.0  0.5003555928269208  0.41896133081568376  0.86038558069162  1.0000
  H   H22       1.0  0.9996355181640838  0.5810327254219774  0.36038350884382436  1.0000
  H   H23       1.0  0.49964464280410686  0.5810339965797342  0.1396158246513366  1.0000
  H   H24       1.0  0.00035850075319395424  0.4189635250961602  0.639616687185864  1.0000
  H   H25       1.0  0.9218567904113613  0.15149287716878498  0.8194399706086202  1.0000
  H   H26       1.0  0.5781341796557485  0.8485026088165173  0.3194335782773336  1.0000
  H   H27       1.0  0.07814397855450751  0.8485071711727629  0.18056083008491433  1.0000
  H   H28       1.0  0.4218595875175382  0.15150024768876594  0.6805635944583484  1.0000
  H   H29       1.0  0.21848915450913614  0.15590710459377283  0.806190499461344  1.0000
  H   H30       1.0  0.28149253073193864  0.8440874873128978  0.30618525953669  1.0000
  H   H31       1.0  0.781517046053608  0.8440939056929511  0.19381392920391244  1.0000
  H   H32       1.0  0.7184999179848717  0.15591253331752603  0.6938155411697409  1.0000
  H   H33       1.0  0.1320042890067867  0.2982607827535446  0.804827550664335  1.0000
  H   H34       1.0  0.3679818764896439  0.7017290896791907  0.3048229927060433  1.0000
  H   H35       1.0  0.8679973589110406  0.7017411561846815  0.19517325003355515  1.0000
  H   H36       1.0  0.6320126757577144  0.2982718817884378  0.6951772033371029  1.0000
  C   C1        1.0  0.3747314247834837  0.29658357473278596  0.0377125323137122  1.0000
  C   C2        1.0  0.12526553499854035  0.7034175070678759  0.5377080761059714  1.0000
  C   C3        1.0  0.6252647915041721  0.7034174022837905  0.9622888730526211  1.0000
  C   C4        1.0  0.874740665607007  0.2965835031886003  0.46229091059335287  1.0000
  C   C5        1.0  0.3511773079173467  0.28676326418948866  0.9540126231592578  1.0000
  C   C6        1.0  0.1488074834354976  0.7132339333321128  0.45401184236657594  1.0000
  C   C7        1.0  0.6488150469405982  0.7132329807931516  0.045988782198776286  1.0000
  C   C8        1.0  0.8511903969162378  0.28676704921659996  0.5459877490085319  1.0000
  C   C9        1.0  0.13722002796318833  0.21754697127882144  0.9224354378977819  1.0000
  C   C10       1.0  0.3627803304727024  0.7824537006457818  0.4224319896541786  1.0000
  C   C11       1.0  0.8627786374578579  0.7824521262356046  0.07756778144768357  1.0000
  C   C12       1.0  0.6372239543247815  0.21755391006568922  0.5775657877423582  1.0000
  C   C13       1.0  0.9626519100849582  0.16169090519513676  0.9769854562156367  1.0000
  C   C14       1.0  0.5373382455793206  0.8383063381206887  0.476980338815295  1.0000
  C   C15       1.0  0.037343239552043876  0.838300629915736  0.0230147397980076  1.0000
  C   C16       1.0  0.462653605762121  0.16170311885640132  0.5230186479319981  1.0000
  C   C17       1.0  0.00110199291086132  0.17553176199787407  0.059481217383733985  1.0000
  C   C18       1.0  0.49889996221340743  0.8244667481080018  0.5594733044910427  1.0000
  C   C19       1.0  0.9988998129063591  0.8244597952953402  0.9405213972711122  1.0000
  C   C20       1.0  0.5011019672857557  0.17554651777022204  0.4405250775891715  1.0000
  C   C21       1.0  0.5485389498126169  0.34978605218548625  0.9004774683892476  1.0000
  C   C22       1.0  0.9514519699546042  0.6502093951336863  0.4004741518618004  1.0000
  C   C23       1.0  0.4514617252848795  0.6502102205149997  0.0995251462816427  1.0000
  C   C24       1.0  0.048546695494984235  0.3497897023605675  0.5995254395063796  1.0000
  C   C25       1.0  0.09853683282663184  0.2045597774159306  0.8333317320928229  1.0000
  C   C26       1.0  0.40144731406832795  0.7954341820621665  0.3333258230866604  1.0000
  C   C27       1.0  0.9014606080253458  0.7954402598512474  0.1666708825945165  1.0000
  C   C28       1.0  0.5985455741434862  0.2045667838531459  0.6666725589704257  1.0000
  N   N1        1.0  0.980169744800975  0.1416746805846288  0.274264912078813  1.0000
  N   N2        1.0  0.5198349965523833  0.8583269534459251  0.7742611183942926  1.0000
  N   N3        1.0  0.019834352259756903  0.8583253788447184  0.7257364932724426  1.0000
  N   N4        1.0  0.48016743645854393  0.1416731004412028  0.22574028695954235  1.0000
  N   N5        1.0  0.9947940601035157  0.05353926257053841  0.31595068610712923  1.0000
  N   N6        1.0  0.5052074824548216  0.9464609388405383  0.8159480764398805  1.0000
  N   N7        1.0  0.005206802735486361  0.9464645614087036  0.6840476959461624  1.0000
  N   N8        1.0  0.49479608130436503  0.053534399619152906  0.1840497009206246  1.0000
  N   N9        1.0  0.005603768201993443  0.968503535996952  0.3563942492184111  1.0000
  N   N10       1.0  0.49439552562409983  0.031495450773725515  0.8563930371730988  1.0000
  N   N11       1.0  0.9943935788101401  0.03149272560899871  0.6436065514689985  1.0000
  N   N12       1.0  0.5056098898788407  0.9685074445405706  0.14360655419604024  1.0000
  N   N13       1.0  0.9888029356144732  0.3803234312389707  0.22478182494361929  1.0000
  N   N14       1.0  0.5111988166083138  0.6196766961981981  0.7247784270713209  1.0000
  N   N15       1.0  0.011199497424982606  0.6196766226279852  0.775215952432923  1.0000
  N   N16       1.0  0.4888057199664432  0.3803243085026012  0.2752181409790566  1.0000
  N   N17       1.0  0.9322048184544088  0.43589069826897037  0.1680574473009244  1.0000
  N   N18       1.0  0.567798705080108  0.564110689038536  0.6680547455848753  1.0000
  N   N19       1.0  0.06779927863011193  0.5641093611435795  0.8319409347359182  1.0000
  N   N20       1.0  0.43220215775413356  0.43589313494406684  0.33194424113129617  1.0000
  N   N21       1.0  0.881528268601791  0.489539063396741  0.11353342283081956  1.0000
  N   N22       1.0  0.6184797864176873  0.5104588983689595  0.6135290287065018  1.0000
  N   N23       1.0  0.11847827763038775  0.5104591165035688  0.8864649591965159  1.0000
  N   N24       1.0  0.38152054310073424  0.48954020465406983  0.3864681440075656  1.0000
  N   N25       1.0  0.20427331317153372  0.2426866550650432  0.0897372248435957  1.0000
  N   N26       1.0  0.29572684753332384  0.7573093555800344  0.5897313535320022  1.0000
  N   N27       1.0  0.7957235943741382  0.7573086612358397  0.91026236651588  1.0000
  N   N28       1.0  0.7042736696695259  0.24269729876209573  0.4102688425190451  1.0000
