data_image0
_chemical_formula_structural       Zn6H66C73N4O32
_chemical_formula_sum              "Zn6 H66 C73 N4 O32"
_cell_length_a       21.30989408066882
_cell_length_b       21.381970670309876
_cell_length_c       21.881368985019165
_cell_angle_alpha    60.805129814420134
_cell_angle_beta     60.72539569817718
_cell_angle_gamma    89.73240131463693

_space_group_name_H-M_alt    "P 1"
_space_group_IT_number       1

loop_
  _space_group_symop_operation_xyz
  'x, y, z'

loop_
  _atom_site_type_symbol
  _atom_site_label
  _atom_site_symmetry_multiplicity
  _atom_site_fract_x
  _atom_site_fract_y
  _atom_site_fract_z
  _atom_site_occupancy
  Zn  Zn1       1.0  0.005802995472833835  0.9346828283531748  0.4981820971155744  1.0000
  Zn  Zn2       1.0  0.0038787851612553984  0.0598797291976538  0.5008608700321419  1.0000
  Zn  Zn3       1.0  0.4289294032667427  0.503483698693941  0.49629417542310955  1.0000
  Zn  Zn4       1.0  0.5560997435934638  0.5018467130188071  0.49466368495908597  1.0000
  Zn  Zn5       1.0  0.5449363538677119  0.039042650442510804  0.42091038209619563  1.0000
  Zn  Zn6       1.0  0.4584463764475828  0.9566452789575594  0.5910537414482205  1.0000
  H   H1        1.0  0.6786645226693722  0.8142787754561027  0.9220939501397822  1.0000
  H   H2        1.0  0.6177843114213886  0.656061818475962  0.04303642990039694  1.0000
  H   H3        1.0  0.7018203909337402  0.8313779156433155  0.030995750584281615  1.0000
  H   H4        1.0  0.848993918141467  0.8185764568235785  0.9513112340560782  1.0000
  H   H5        1.0  0.7890328770895392  0.6605726379931481  0.07203043175351813  1.0000
  H   H6        1.0  0.7647874862420991  0.642224866918454  0.9643760243868797  1.0000
  H   H7        1.0  0.8452926745478494  0.965887088270868  0.44335114103597595  1.0000
  H   H8        1.0  0.8502489368392574  0.061452472648646485  0.3874722132280652  1.0000
  H   H9        1.0  0.7366153342112584  0.016788867397139  0.40845087966781074  1.0000
  H   H10       1.0  0.7214443145714569  0.9237008654013156  0.48590260404662183  1.0000
  H   H11       1.0  0.7647565967082315  0.8904550221143451  0.599115439520908  1.0000
  H   H12       1.0  0.6374178222230427  0.876416526910944  0.6430978540314031  1.0000
  H   H13       1.0  0.8235253912154549  0.13092689069330285  0.4487398969072629  1.0000
  H   H14       1.0  0.7149182620281779  0.11352026218954592  0.45163560961716326  1.0000
  H   H15       1.0  0.660941103245527  0.07938051771740359  0.5600585664554458  1.0000
  H   H16       1.0  0.7453002748305764  0.9316891892034674  0.6570915467876901  1.0000
  H   H17       1.0  0.6323839835454094  0.9453586978949315  0.6665381871139219  1.0000
  H   H18       1.0  0.35862893499395193  0.22121354963083922  0.930295436404002  1.0000
  H   H19       1.0  0.23738636869718724  0.3617135423581317  0.9550032487439636  1.0000
  H   H20       1.0  0.15994135359564146  0.19332511523430182  0.9528518247249949  1.0000
  H   H21       1.0  0.222436733098391  0.10030537111772023  0.0390903768587663  1.0000
  H   H22       1.0  0.1406864223334167  0.8939418789642629  0.6044913396134391  1.0000
  H   H23       1.0  0.1117497596606326  0.9485162564736881  0.6474771769118634  1.0000
  H   H24       1.0  0.2164827955874529  0.9576233565108583  0.6560329737046258  1.0000
  H   H25       1.0  0.22851689040641077  0.8832682304269638  0.6420755372004406  1.0000
  H   H26       1.0  0.22036197638074378  0.9555505826469073  0.4474794632891133  1.0000
  H   H27       1.0  0.23734820690741287  0.1349742216866616  0.4406571317284574  1.0000
  H   H28       1.0  0.18440179879614502  0.088917420119742  0.5510135565189387  1.0000
  H   H29       1.0  0.3003934406458272  0.09109408061826942  0.5379596665452908  1.0000
  H   H30       1.0  0.3486610201674337  0.114823100790943  0.43324968998754804  1.0000
  H   H31       1.0  0.27239549076453073  0.0520848069161914  0.3808211986696434  1.0000
  H   H32       1.0  0.36619583007022527  0.0201528031930209  0.4024284138017721  1.0000
  H   H33       1.0  0.5417265578748598  0.37486163018644447  0.3534742120950512  1.0000
  H   H34       1.0  0.4472817575896926  0.3445991476601478  0.4388739001962207  1.0000
  H   H35       1.0  0.4264349240644947  0.22291876078001852  0.4669309737678019  1.0000
  H   H36       1.0  0.511303487211336  0.2616245566849003  0.36686095601928054  1.0000
  H   H37       1.0  0.6489759855964081  0.3697538056903015  0.37889583812493305  1.0000
  H   H38       1.0  0.6315643270099115  0.2786701988207554  0.3523656428024751  1.0000
  H   H39       1.0  0.41541738443110177  0.2567827278861258  0.582528090238256  1.0000
  H   H40       1.0  0.4211718618180739  0.1470299639759389  0.5931363042659114  1.0000
  H   H41       1.0  0.6246168967387574  0.3010985555091494  0.48121491242937253  1.0000
  H   H42       1.0  0.6427003760899125  0.22008162205585077  0.4353178055072675  1.0000
  H   H43       1.0  0.5145109994209988  0.7349764731945355  0.389139778203152  1.0000
  H   H44       1.0  0.6048708342231278  0.7605196460332309  0.3684245546832869  1.0000
  H   H45       1.0  0.5820402515884665  0.8747565700927636  0.3481304465840227  1.0000
  H   H46       1.0  0.48402051953640063  0.836592369494788  0.3997217321690131  1.0000
  H   H47       1.0  0.4046322118615961  0.687484277623696  0.530938229358533  1.0000
  H   H48       1.0  0.39469546341782547  0.7798337022044493  0.5617474366461793  1.0000
  H   H49       1.0  0.6267112717607475  0.7055139550668486  0.47833075673519  1.0000
  H   H50       1.0  0.6356329622117443  0.8274922240124454  0.4301244905682254  1.0000
  H   H51       1.0  0.4358131660693018  0.7431136794066333  0.6192406331153394  1.0000
  H   H52       1.0  0.3606456508116338  0.32413214257251616  0.9965948625774032  1.0000
  H   H53       1.0  0.27340300029509734  0.2909484978688753  0.0942144418776181  1.0000
  H   H54       1.0  0.3278404591703463  0.22915281248197064  0.08358985974602008  1.0000
  H   H55       1.0  0.25868656398634465  0.8584634194924163  0.5406305007473406  1.0000
  H   H56       1.0  0.32395274893882936  0.8955633310903934  0.4322406568750734  1.0000
  H   H57       1.0  0.35750381351343913  0.8875639655669972  0.49499845282012706  1.0000
  H   H58       1.0  0.5391282538221275  0.25165436275526787  0.6173602205551134  1.0000
  H   H59       1.0  0.46965937119361456  0.2980386733170377  0.6372394439427396  1.0000
  H   H60       1.0  0.4420087330034193  0.19853253818597946  0.6942895827441973  1.0000
  H   H61       1.0  0.49907743382370734  0.6526600654804824  0.6588861067799243  1.0000
  H   H62       1.0  0.5418160072872027  0.5944767408346294  0.625386568362913  1.0000
  H   H63       1.0  0.5961649422013409  0.6639124045950947  0.6173432039156597  1.0000
  H   H64       1.0  0.6094415437126982  0.8671080518617347  0.5242561599151401  1.0000
  H   H65       1.0  0.5433986525948596  0.7787101037845544  0.6148055446285953  1.0000
  H   H66       1.0  0.6404820718836532  0.7869771208016942  0.5551525404447518  1.0000
  C   C1        1.0  0.8812746875543878  0.017446711819026496  0.510650918909626  1.0000
  C   C2        1.0  0.9265259957806079  0.8884597185025312  0.6576258213485531  1.0000
  C   C3        1.0  0.12151254271678616  0.020124499224230895  0.5019564016863285  1.0000
  C   C4        1.0  0.07871613132012809  0.0534898324979025  0.33936379118262755  1.0000
  C   C5        1.0  0.6697111179929748  0.6922860237997099  0.021808138368811552  1.0000
  C   C6        1.0  0.702167503937943  0.7794513876990122  0.9566200266752035  1.0000
  C   C7        1.0  0.8783436489435272  0.8420063397790046  0.7478490738892988  1.0000
  C   C8        1.0  0.586548086938933  0.6310569801274256  0.24668119005815484  1.0000
  C   C9        1.0  0.7504185206138843  0.6839835598995448  0.9797709608844445  1.0000
  C   C10       1.0  0.78428412463078  0.7718822965363544  0.9121270979666461  1.0000
  C   C11       1.0  0.7648824724567758  0.6948072016891375  0.03800436489748194  1.0000
  C   C12       1.0  0.682634727043471  0.7016935655105954  0.08260499462656411  1.0000
  C   C13       1.0  0.7972151580371403  0.7819804286408497  0.9727111393933898  1.0000
  C   C14       1.0  0.7165039025903822  0.7900475938804449  0.01495198555736733  1.0000
  C   C15       1.0  0.8353480637850057  0.8091245180654669  0.8241147569429542  1.0000
  C   C16       1.0  0.6306508935124029  0.6648671489028503  0.17043031281521343  1.0000
  C   C17       1.0  0.814806099323043  0.0065068460676088  0.44768710598148703  1.0000
  C   C18       1.0  0.7367287858439082  0.9827010085607171  0.4653749061080674  1.0000
  C   C19       1.0  0.7461726536913671  0.9365869554676606  0.60445353777876  1.0000
  C   C20       1.0  0.779023964805809  0.080604100584587  0.5090095824335705  1.0000
  C   C21       1.0  0.8055536701246807  0.011040491517590598  0.5201897352738741  1.0000
  C   C22       1.0  0.6763684671044955  0.9910785076919166  0.5357906576202397  1.0000
  C   C23       1.0  0.6672111130417591  0.9330334383436425  0.6192305032712679  1.0000
  C   C24       1.0  0.7046581383051559  0.0707710537858404  0.5130678348467583  1.0000
  C   C25       1.0  0.30138654146551147  0.22508003388671227  0.9605195934260351  1.0000
  C   C26       1.0  0.2694842743645792  0.25259099246033395  0.021496687110662584  1.0000
  C   C27       1.0  0.1194471786610833  0.0975891841613645  0.2486612624121065  1.0000
  C   C28       1.0  0.3418793351354878  0.3673816392971645  0.7452743119084744  1.0000
  C   C29       1.0  0.2266136926662838  0.15868383738308717  0.01959039677664983  1.0000
  C   C30       1.0  0.19339012496097746  0.1837446678913537  0.08326833826516386  1.0000
  C   C31       1.0  0.1920718942305371  0.2095138501765064  0.9720837648261735  1.0000
  C   C32       1.0  0.26801308468885315  0.2772753076327774  0.9105722745848936  1.0000
  C   C33       1.0  0.1614154153151688  0.237684145324522  0.03154472011037513  1.0000
  C   C34       1.0  0.23491596866298892  0.30370297004706254  0.9736776161866771  1.0000
  C   C35       1.0  0.15331965635073888  0.13735812997894212  0.1720626822035811  1.0000
  C   C36       1.0  0.3066647332349888  0.32573221125186075  0.8218481680389402  1.0000
  C   C37       1.0  0.16052525011203764  0.9447400999075629  0.5992684713443521  1.0000
  C   C38       1.0  0.22563882237096775  0.9410034404519864  0.61279072948561  1.0000
  C   C39       1.0  0.2483385248787187  0.0010468937860110999  0.44426630928657557  1.0000
  C   C40       1.0  0.22488363399574499  0.08388572476053469  0.4990872544749152  1.0000
  C   C41       1.0  0.1883950836729866  0.014203965792916098  0.5101732592240751  1.0000
  C   C42       1.0  0.3007652387864894  0.994506793625604  0.5278145780065981  1.0000
  C   C43       1.0  0.3110020372400654  0.9809493005920658  0.4602690897371248  1.0000
  C   C44       1.0  0.2980296726309462  0.0764297689178335  0.4972519887454752  1.0000
  C   C45       1.0  0.5254144284411808  0.39235852125853654  0.48007610374111204  1.0000
  C   C46       1.0  0.5426393656249004  0.5867749200297608  0.33704681785445706  1.0000
  C   C47       1.0  0.5152343226200741  0.6160702588062463  0.503035727620457  1.0000
  C   C48       1.0  0.38814127909887464  0.4164638581800233  0.6548260260657202  1.0000
  C   C49       1.0  0.5170054023611924  0.8923173557059627  0.4785338637119382  1.0000
  C   C50       1.0  0.6032720201477629  0.9849674596593088  0.5393542914393235  1.0000
  C   C51       1.0  0.5234931967640009  0.13432525316452623  0.4680570223121381  1.0000
  C   C52       1.0  0.3694146208859549  0.9883935494036676  0.5329176885195183  1.0000
  C   C53       1.0  0.49965767472490097  0.329299667491277  0.4195512846494226  1.0000
  C   C54       1.0  0.4870867705411327  0.25340922438697777  0.4284657035151441  1.0000
  C   C55       1.0  0.6078398158251446  0.31573547782566186  0.43701427746965743  1.0000
  C   C56       1.0  0.4726870266112471  0.2536400435293018  0.5654676419253449  1.0000
  C   C57       1.0  0.5283323426161245  0.3244352189090521  0.47392697923503146  1.0000
  C   C58       1.0  0.5259143406541896  0.20452196294996133  0.4698837968450816  1.0000
  C   C59       1.0  0.6080467772218866  0.2541406186887444  0.41931617254835635  1.0000
  C   C60       1.0  0.4778877435557476  0.1824822647279021  0.5618047016440925  1.0000
  C   C61       1.0  0.5447085907468292  0.7527154441663698  0.40951272013364115  1.0000
  C   C62       1.0  0.5325989434329016  0.8259368774663686  0.40433759213933473  1.0000
  C   C63       1.0  0.4372488000468093  0.6885389511648013  0.556998309629428  1.0000
  C   C64       1.0  0.57222490280693  0.7082035906725113  0.5207040097615094  1.0000
  C   C65       1.0  0.5171383784036934  0.6881444249315152  0.5015474438016626  1.0000
  C   C66       1.0  0.518352389672536  0.8185613411057913  0.48380252644601296  1.0000
  C   C67       1.0  0.4416275815788921  0.758062450762239  0.5607619007020759  1.0000
  C   C68       1.0  0.5835569831402481  0.792418786419468  0.4939189668007202  1.0000
  C   C69       1.0  0.30999526832301433  0.2753365392522796  0.050635195521948576  1.0000
  C   C70       1.0  0.31278010777739235  0.9010970817800725  0.4837535507476148  1.0000
  C   C71       1.0  0.48173387327237543  0.25026566707681036  0.6321660682798367  1.0000
  C   C72       1.0  0.5506819151326852  0.6517691177760555  0.6107547381172297  1.0000
  C   C73       1.0  0.5943483700125043  0.8067238847774619  0.5505883390613846  1.0000
  N   N1        1.0  0.7671098278821873  0.09899167396297771  0.5723765443006315  1.0000
  N   N2        1.0  0.08392252048049899  0.2401715117266292  0.07570145530966947  1.0000
  N   N3        1.0  0.5039297734729259  0.13073973094103764  0.6166068724527205  1.0000
  N   N4        1.0  0.3879490723055099  0.6173117784418807  0.6467579980977547  1.0000
  O   O1        1.0  0.9112133295396632  0.967362729122712  0.5056939198169984  1.0000
  O   O2        1.0  0.910473609737899  0.07198787700190928  0.5080600103116311  1.0000
  O   O3        1.0  0.9466299115980021  0.8554109970653273  0.6178632868489586  1.0000
  O   O4        1.0  0.9452738736301498  0.9591602949027304  0.6236287905785077  1.0000
  O   O5        1.0  0.09636178795776108  0.9703150269200905  0.4968889826456574  1.0000
  O   O6        1.0  0.0932561732501114  0.07364050648271808  0.5017626500111659  1.0000
  O   O7        1.0  0.06160251653736274  0.9812649194396457  0.37692074866632197  1.0000
  O   O8        1.0  0.06296589198961298  0.0891203294489884  0.3747351154810943  1.0000
  O   O9        1.0  0.46867218052247483  0.41559606823201284  0.4884076325640549  1.0000
  O   O10       1.0  0.5789033614709138  0.4205358862042202  0.47989794691402216  1.0000
  O   O11       1.0  0.4697986593207446  0.566200525978836  0.37659557729029547  1.0000
  O   O12       1.0  0.5792981889968374  0.5703052837255458  0.37145677137751676  1.0000
  O   O13       1.0  0.4637268295492092  0.5925757900781577  0.4990075021609427  1.0000
  O   O14       1.0  0.5686481303354967  0.5871911539662592  0.5017018625465893  1.0000
  O   O15       1.0  0.3537273788033843  0.439094838222907  0.6167226518973052  1.0000
  O   O16       1.0  0.4593604184085507  0.43303110552535173  0.6193464050787368  1.0000
  O   O17       1.0  0.5560125417359244  0.9549922288933103  0.40568284440036007  1.0000
  O   O18       1.0  0.4775678138863171  0.8868946643112068  0.5480471589009213  1.0000
  O   O19       1.0  0.6106767798184478  0.0182971790457032  0.4686251897759347  1.0000
  O   O20       1.0  0.539307654868253  0.9482917298774257  0.611194472718658  1.0000
  O   O21       1.0  0.5597676922931994  0.14216509324099044  0.3962040965484449  1.0000
  O   O22       1.0  0.4847809333842363  0.0717660342931339  0.5388310523600025  1.0000
  O   O23       1.0  0.43349117035167956  0.021243599490091497  0.46284483958665124  1.0000
  O   O24       1.0  0.3597946524306364  0.952432693447747  0.6057043115143377  1.0000
  O   O25       1.0  0.7304708544574082  0.0474716616308513  0.6481523399522758  1.0000
  O   O26       1.0  0.7928196329896905  0.16579550731626816  0.5433975323287825  1.0000
  O   O27       1.0  0.07517875662912131  0.2937840298928764  0.08348770324919023  1.0000
  O   O28       1.0  0.032777673568929785  0.1862368023693719  0.10479826555248202  1.0000
  O   O29       1.0  0.5724687857596464  0.14469107230125644  0.5873275850501046  1.0000
  O   O30       1.0  0.4538529425234685  0.0790407574820975  0.6892890181438603  1.0000
  O   O31       1.0  0.3300465342961729  0.6227772788426122  0.6964710423413862  1.0000
  O   O32       1.0  0.4065221933363005  0.5592570747938765  0.66363543840383  1.0000
