data_image0
_chemical_formula_structural       K2H8C6S2O12
_chemical_formula_sum              "K2 H8 C6 S2 O12"
_cell_length_a       5.539578695558428
_cell_length_b       7.165659283473175
_cell_length_c       9.119898034626239
_cell_angle_alpha    92.0053151510029
_cell_angle_beta     107.53762414989954
_cell_angle_gamma    105.90927609447509

_space_group_name_H-M_alt    "P 1"
_space_group_IT_number       1

loop_
  _space_group_symop_operation_xyz
  'x, y, z'

loop_
  _atom_site_type_symbol
  _atom_site_label
  _atom_site_symmetry_multiplicity
  _atom_site_fract_x
  _atom_site_fract_y
  _atom_site_fract_z
  _atom_site_occupancy
  K   K1        1.0  0.32680892854314436  0.7181250803295924  0.037508791032543294  1.0000
  K   K2        1.0  0.6731805209458271  0.2818759949017887  0.962501919367632  1.0000
  H   H1        1.0  0.886898838683507  0.8978579787001735  0.25978706525781786  1.0000
  H   H2        1.0  0.11310653042779249  0.1021359769657764  0.7402043597687891  1.0000
  H   H3        1.0  0.9802123282213913  0.631790237578791  0.2869321757161386  1.0000
  H   H4        1.0  0.019821839842656137  0.36820370487126297  0.7131093899470569  1.0000
  H   H5        1.0  0.6436644881934583  0.1372273892248472  0.36196885261058037  1.0000
  H   H6        1.0  0.3563333533151152  0.8627475496821261  0.6380195325166295  1.0000
  H   H7        1.0  0.8576184082476458  0.7946839943388468  0.40556441020969897  1.0000
  H   H8        1.0  0.142400871246835  0.205311475214522  0.5944361445638859  1.0000
  C   C1        1.0  0.2746975316152529  0.5165998338887829  0.38186631082500344  1.0000
  C   C2        1.0  0.7252819745190778  0.4834100129014017  0.6181253369073402  1.0000
  C   C3        1.0  0.3929790619892798  0.36996655194756284  0.36357146397913437  1.0000
  C   C4        1.0  0.6069934376380814  0.6300257715686969  0.6364096081983985  1.0000
  C   C5        1.0  0.6185110113218074  0.352526860143243  0.47994052025451567  1.0000
  C   C6        1.0  0.38147567707438407  0.647477184470631  0.5200533372058158  1.0000
  S   S1        1.0  0.24920214951049496  0.20916829137656376  0.18633322247600145  1.0000
  S   S2        1.0  0.7508316366068044  0.7908447929423301  0.8136671988879838  1.0000
  O   O1        1.0  0.06644546823249439  0.5318452561326268  0.262134804269479  1.0000
  O   O2        1.0  0.9335051854795751  0.4681206907216476  0.7378349404582207  1.0000
  O   O3        1.0  0.7391782638059257  0.21313826885985068  0.468041762065077  1.0000
  O   O4        1.0  0.26079882223900347  0.786855427104129  0.5319686877103391  1.0000
  O   O5        1.0  0.251507579224608  0.3283304631374974  0.058897758451138295  1.0000
  O   O6        1.0  0.7485125123066539  0.6717102874238704  0.9410988610696263  1.0000
  O   O7        1.0  0.4190849078238444  0.0793573504862835  0.19487576145013455  1.0000
  O   O8        1.0  0.5809705440871511  0.9206718513000567  0.8051455061869814  1.0000
  O   O9        1.0  0.9773862402619147  0.10078340600515652  0.17859865870976677  1.0000
  O   O10       1.0  0.02258081238218779  0.8992087546707594  0.8214143237169862  1.0000
  O   O11       1.0  0.7979454923069297  0.773087401238058  0.2925099274280639  1.0000
  O   O12       1.0  0.2020524489115445  0.22690213206588786  0.7074800237877736  1.0000
