data_image0
_chemical_formula_structural       Zn5H34C26O32
_chemical_formula_sum              "Zn5 H34 C26 O32"
_cell_length_a       7.682096078450166
_cell_length_b       10.205111609119312
_cell_length_c       12.169076204630134
_cell_angle_alpha    89.98508560378914
_cell_angle_beta     90.23038720961992
_cell_angle_gamma    88.05155211623332

_space_group_name_H-M_alt    "P 1"
_space_group_IT_number       1

loop_
  _space_group_symop_operation_xyz
  'x, y, z'

loop_
  _atom_site_type_symbol
  _atom_site_label
  _atom_site_symmetry_multiplicity
  _atom_site_fract_x
  _atom_site_fract_y
  _atom_site_fract_z
  _atom_site_occupancy
  Zn  Zn1       1.0  0.49999314594855787  1.5565485612009443e-06  0.49999809353318614  1.0000
  Zn  Zn2       1.0  0.39527604230084973  0.30669663653451107  0.410343060394787  1.0000
  Zn  Zn3       1.0  0.6047765140399619  0.6933163797829066  0.5896493945686598  1.0000
  Zn  Zn4       1.0  0.44134983818086215  0.06254196780472648  0.2292991421605208  1.0000
  Zn  Zn5       1.0  0.558647456310055  0.9374621065667483  0.7706965808206547  1.0000
  H   H1        1.0  0.18331844799740074  0.6046136180452919  0.17359509551270236  1.0000
  H   H2        1.0  0.8166747143154324  0.39539332137248817  0.8264014405538588  1.0000
  H   H3        1.0  0.3899305195393693  0.2930944229220316  0.9709887630527873  1.0000
  H   H4        1.0  0.6100718446007605  0.7069117292071637  0.029012711415873593  1.0000
  H   H5        1.0  0.03154729357088121  0.7741962403604886  0.1652916497506496  1.0000
  H   H6        1.0  0.9684434180627118  0.22580868312265787  0.8347032452750439  1.0000
  H   H7        1.0  0.950691367151414  0.9020290856792315  0.0795247049409866  1.0000
  H   H8        1.0  0.0493056955127429  0.0979779311191606  0.9204718336047719  1.0000
  H   H9        1.0  0.9426422476469083  0.7023034105273922  0.8190870726818958  1.0000
  H   H10       1.0  0.057356294666540485  0.2977016840946121  0.1809144013722914  1.0000
  H   H11       1.0  0.012614507562851391  0.5808693744812319  0.720887381552444  1.0000
  H   H12       1.0  0.9873734542815524  0.4191374617623965  0.2791091512085231  1.0000
  H   H13       1.0  0.31186702226066393  0.22270708966073738  0.8075435282039365  1.0000
  H   H14       1.0  0.6881291441510341  0.7772950068528531  0.19245548511535296  1.0000
  H   H15       1.0  0.5246772846658416  0.2850942533368794  0.8031999801360428  1.0000
  H   H16       1.0  0.47532390268209895  0.7149098943208044  0.1967941018068089  1.0000
  H   H17       1.0  0.6343860918987047  0.1577194042659826  0.3641772838483277  1.0000
  H   H18       1.0  0.3656284305320057  0.842264384686658  0.6358135618563309  1.0000
  H   H19       1.0  0.1985216602905382  0.5125286766008872  0.3605632627421969  1.0000
  H   H20       1.0  0.8014295395415799  0.4874833795992045  0.6394578872541388  1.0000
  H   H21       1.0  0.10156601117078877  0.4476622639822239  0.45745391967076887  1.0000
  H   H22       1.0  0.8985188378711014  0.5522080808822594  0.5425446022765996  1.0000
  H   H23       1.0  0.6478030790543698  0.4602627950877861  0.3541077759942581  1.0000
  H   H24       1.0  0.3522287942441905  0.5397665804136481  0.645918323582137  1.0000
  H   H25       1.0  0.7073838638845797  0.4206744765387641  0.47484403382624407  1.0000
  H   H26       1.0  0.2926354902827626  0.5792996683696501  0.5251788835966451  1.0000
  H   H27       1.0  0.7623600775938113  0.0773666472261851  0.20895743469078806  1.0000
  H   H28       1.0  0.2376398806673592  0.9226364904169768  0.791035004972862  1.0000
  H   H29       1.0  0.6795006811657983  0.0604333025737063  0.0855603226280124  1.0000
  H   H30       1.0  0.32049294854771654  0.9395677540374192  0.9144354040681505  1.0000
  H   H31       1.0  0.16709912844906674  0.0829717852742462  0.45988286086802777  1.0000
  H   H32       1.0  0.8328928822242431  0.9170498703725801  0.5401193965389622  1.0000
  H   H33       1.0  0.1667807115505369  0.9663189350914222  0.5506549415081138  1.0000
  H   H34       1.0  0.833212129169432  0.0336919207382564  0.4493399427820108  1.0000
  C   C1        1.0  0.34212333590862426  0.35937649792298026  0.1762717353030894  1.0000
  C   C2        1.0  0.6578737567327478  0.6406305352530381  0.8237313773127753  1.0000
  C   C3        1.0  0.2950876479150962  0.4438398683667942  0.0794817790899813  1.0000
  C   C4        1.0  0.7049057649602589  0.5561641388600762  0.9205180502058141  1.0000
  C   C5        1.0  0.21479620120516063  0.568471629154864  0.0917257129685822  1.0000
  C   C6        1.0  0.7851984220212102  0.43153337785051354  0.9082716498125902  1.0000
  C   C7        1.0  0.17448516377466214  0.6426690335187004  0.9978361607111664  1.0000
  C   C8        1.0  0.8255083051424206  0.3573339812983747  0.0021587400967745993  1.0000
  C   C9        1.0  0.2248254628321789  0.5952900083012196  0.8935570344542896  1.0000
  C   C10       1.0  0.775171913930528  0.4047130879908779  0.1064395123503772  1.0000
  C   C11       1.0  0.29506368017750634  0.46695816166262444  0.8821529125238284  1.0000
  C   C12       1.0  0.7049351574987383  0.5330430022170631  0.11784446099545678  1.0000
  C   C13       1.0  0.3308437191955846  0.39123868172062265  0.9754412633215991  1.0000
  C   C14       1.0  0.6691548156235639  0.6087664088069786  0.0245585672150668  1.0000
  C   C15       1.0  0.0628331783203322  0.8341826070159468  0.09333496166051698  1.0000
  C   C16       1.0  0.9371615832195557  0.16582042950026477  0.9066582964562996  1.0000
  C   C17       1.0  0.22398882931291547  0.913048433897643  0.11714766147245828  1.0000
  C   C18       1.0  0.7760073370987822  0.0869536626159473  0.882851351846824  1.0000
  C   C19       1.0  0.03916090320802109  0.6776467645909676  0.7552592706608223  1.0000
  C   C20       1.0  0.9608325059201801  0.32235724058870124  0.24473973687621248  1.0000
  C   C21       1.0  0.020420616165374394  0.7821151465204609  0.667203251108198  1.0000
  C   C22       1.0  0.9795712647661146  0.21789177733980133  0.3327973929257837  1.0000
  C   C23       1.0  0.39425777030585607  0.2932700222794651  0.7654863027129081  1.0000
  C   C24       1.0  0.6057410000872137  0.7067321278684062  0.23451353401793534  1.0000
  C   C25       1.0  0.40970146834349913  0.25067353558783617  0.6460492576208381  1.0000
  C   C26       1.0  0.5902986059138227  0.7493286424007835  0.35395140169516986  1.0000
  O   O1        1.0  0.3831326606555194  0.24076382113889844  0.15714279311478657  1.0000
  O   O2        1.0  0.6168631281215866  0.7592431841963859  0.8428594969159136  1.0000
  O   O3        1.0  0.33541736074074874  0.4121284747551074  0.2729499835605367  1.0000
  O   O4        1.0  0.6645834789498151  0.5878805981018831  0.7270539491638316  1.0000
  O   O5        1.0  0.08173607175403669  0.7595940902387498  0.9950698142437984  1.0000
  O   O6        1.0  0.9182609721743586  0.24041291632363485  0.0049226155081428  1.0000
  O   O7        1.0  0.22497102759066215  0.9689117087240575  0.21176867940401675  1.0000
  O   O8        1.0  0.7750281354256002  0.0310855407909401  0.7882311676504727  1.0000
  O   O9        1.0  0.3431782253129184  0.9206665181720126  0.0474755847186188  1.0000
  O   O10       1.0  0.6568171521052406  0.0793453775601307  0.9525225861946325  1.0000
  O   O11       1.0  0.2095605644470595  0.6757353953989593  0.803330630208805  1.0000
  O   O12       1.0  0.7904397229012686  0.32426382992671426  0.1966651047488028  1.0000
  O   O13       1.0  0.12870428714487053  0.8731485915271263  0.666073955623915  1.0000
  O   O14       1.0  0.8713012006718869  0.12685073697269902  0.33392178263929395  1.0000
  O   O15       1.0  0.8917043033207789  0.7731908222559483  0.6011291122556272  1.0000
  O   O16       1.0  0.10827741491752357  0.22682966329362128  0.3988797146750115  1.0000
  O   O17       1.0  0.3240197287839519  0.424509299389648  0.7763412738919158  1.0000
  O   O18       1.0  0.6759778872998295  0.5754908585699281  0.22365610086569626  1.0000
  O   O19       1.0  0.35009393948644874  0.3277587710054064  0.5710524538668977  1.0000
  O   O20       1.0  0.6499159123351601  0.6722347500211755  0.4289416557463426  1.0000
  O   O21       1.0  0.48250853291212076  0.139255595264558  0.6336137200219625  1.0000
  O   O22       1.0  0.5174853698468311  0.8607425414388742  0.3663902304560125  1.0000
  O   O23       1.0  0.5109413887775247  0.13588640444550038  0.3741229911039028  1.0000
  O   O24       1.0  0.48906531313739515  0.8641139258800336  0.6258711024034511  1.0000
  O   O25       1.0  0.14472111823366873  0.5319846332366466  0.4325504022864947  1.0000
  O   O26       1.0  0.8552394313700303  0.4679442047356872  0.5674873600397277  1.0000
  O   O27       1.0  0.6371267257536531  0.39211286671746143  0.41040117763061795  1.0000
  O   O28       1.0  0.3629099873565806  0.6078870931105059  0.58959951101874  1.0000
  O   O29       1.0  0.6788254770606202  0.027605327057365507  0.1638054208151658  1.0000
  O   O30       1.0  0.32117075288710584  0.9723957811408399  0.8361903075337904  1.0000
  O   O31       1.0  0.22792393339348388  0.00047899814699549993  0.4853969556919465  1.0000
  O   O32       1.0  0.7720633815180519  0.9995356688732215  0.514595451757387  1.0000
