data_image0
_chemical_formula_structural       Na4H40C32S2O24
_chemical_formula_sum              "Na4 H40 C32 S2 O24"
_cell_length_a       7.972803393892521
_cell_length_b       8.32722302994652
_cell_length_c       15.22608613881462
_cell_angle_alpha    75.61336929452007
_cell_angle_beta     87.51673069275597
_cell_angle_gamma    86.75323454215821

_space_group_name_H-M_alt    "P 1"
_space_group_IT_number       1

loop_
  _space_group_symop_operation_xyz
  'x, y, z'

loop_
  _atom_site_type_symbol
  _atom_site_label
  _atom_site_symmetry_multiplicity
  _atom_site_fract_x
  _atom_site_fract_y
  _atom_site_fract_z
  _atom_site_occupancy
  Na  Na1       1.0  0.31399785433496424  0.10839844236643612  0.9686119961895514  1.0000
  Na  Na2       1.0  0.6672818678746423  0.7944047487051408  0.9712142665147709  1.0000
  Na  Na3       1.0  0.9711095832315096  0.6749933542299262  0.1323254967783427  1.0000
  Na  Na4       1.0  0.2740844593128601  0.3852963365249735  0.0967017943123878  1.0000
  H   H1        1.0  0.34203696912830145  0.7569516662999973  0.04216760684926868  1.0000
  H   H2        1.0  0.31544625651424246  0.7477692886605141  0.9419869369596937  1.0000
  H   H3        1.0  0.6678489990223825  0.17529699830326714  0.9444278219150987  1.0000
  H   H4        1.0  0.6577134589827197  0.08935109714357742  0.0469541322030196  1.0000
  H   H5        1.0  0.9514289949950836  0.11862579284435532  0.03663915542555429  1.0000
  H   H6        1.0  0.9384207802941377  0.20298174459308171  0.9336657371797088  1.0000
  H   H7        1.0  0.15495351391572848  0.03217178656699101  0.1506022827252878  1.0000
  H   H8        1.0  0.3452586034746617  0.0053616577059898  0.16430449607294403  1.0000
  H   H9        1.0  0.6432816735905718  0.5624428977658057  0.13576501269516678  1.0000
  H   H10       1.0  0.5893594791878698  0.7278106440041798  0.16248883947980625  1.0000
  H   H11       1.0  0.037621557082026406  0.757488099572676  0.9344568251475067  1.0000
  H   H12       1.0  0.989841345851481  0.9230508628311966  0.9670512430198599  1.0000
  H   H13       1.0  0.9269362197178665  0.3133257324931407  0.116482663230876  1.0000
  H   H14       1.0  0.9081351390206722  0.4584270116337308  0.03241431308817511  1.0000
  H   H15       1.0  0.6129936182662521  0.4134578464695906  0.05240851743212719  1.0000
  H   H16       1.0  0.6302126832100612  0.2774253931720807  0.1429222520749747  1.0000
  H   H17       1.0  0.06043852900602789  0.4864497733852674  0.7843659705608701  1.0000
  H   H18       1.0  0.26821310672795573  0.5154967236946035  0.7367650080232835  1.0000
  H   H19       1.0  0.07174299129545152  0.42671913829249064  0.6482266932400336  1.0000
  H   H20       1.0  0.9809624865459128  0.2731555285085677  0.5410980674513866  1.0000
  H   H21       1.0  0.14772425847619536  0.809765224382822  0.7205959489207316  1.0000
  H   H22       1.0  0.23892457090870783  0.9616392680707123  0.828260728640629  1.0000
  H   H23       1.0  0.32030942292880854  0.7315064396238785  0.5274690771996616  1.0000
  H   H24       1.0  0.5660880863339273  0.7849535395556302  0.4227130534092254  1.0000
  H   H25       1.0  0.33229711664455414  0.2548059693730097  0.28409199789859935  1.0000
  H   H26       1.0  0.0818642952030402  0.1985256535407416  0.3890049411341963  1.0000
  H   H27       1.0  0.6892855597376059  0.8234560722611306  0.2887515217857625  1.0000
  H   H28       1.0  0.8047044433129927  0.9410502091782367  0.34744028629789625  1.0000
  H   H29       1.0  0.7819331428281802  0.5994427363490403  0.7375137287182199  1.0000
  H   H30       1.0  0.5673599232741823  0.5832474277724274  0.7755896941124262  1.0000
  H   H31       1.0  0.7540342394882631  0.056687842668914405  0.8252810863168492  1.0000
  H   H32       1.0  0.6644341981792293  0.3220082416608108  0.7216705907192775  1.0000
  H   H33       1.0  0.4637513566440959  0.054850185793057414  0.5434799833163951  1.0000
  H   H34       1.0  0.5491363961161896  0.7878286025614543  0.6484125490482597  1.0000
  H   H35       1.0  0.7873484601577802  0.5908804583728083  0.5508177680599999  1.0000
  H   H36       1.0  0.032481803792307994  0.6445028333594537  0.44723925482836074  1.0000
  H   H37       1.0  0.8250010122714927  0.3630788904874721  0.2774032646996076  1.0000
  H   H38       1.0  0.5802397631660269  0.3012127953200546  0.3859730129313377  1.0000
  H   H39       1.0  0.2870375091108174  0.5595133679248931  0.35963541617423533  1.0000
  H   H40       1.0  0.15741291773394295  0.7454506746171603  0.3240614270024267  1.0000
  C   C1        1.0  0.2444882509956799  0.5030350797156372  0.8804662227141051  1.0000
  C   C2        1.0  0.1938657327961266  0.4501719226974856  0.796439765277583  1.0000
  C   C3        1.0  0.1610693446378662  0.20306549118046044  0.7459989381164432  1.0000
  C   C4        1.0  0.08630524610168781  0.2918757579663378  0.6655046746750912  1.0000
  C   C5        1.0  0.036023587898832  0.20536745754175464  0.6044845148243567  1.0000
  C   C6        1.0  0.058625885034899704  0.032989167631214414  0.6237605217950205  1.0000
  C   C7        1.0  0.1307522259727492  0.9441796888145078  0.7047435287574402  1.0000
  C   C8        1.0  0.18080184021041396  0.029487628863016403  0.7656858990787399  1.0000
  C   C9        1.0  0.18518286655353933  0.960417958127785  0.4637763909308035  1.0000
  C   C10       1.0  0.32150863559298404  0.8452250952047181  0.47352748388407667  1.0000
  C   C11       1.0  0.4608105873500676  0.8757710251098701  0.4142646968503669  1.0000
  C   C12       1.0  0.4631489069499608  0.022812595536322505  0.3451994591821972  1.0000
  C   C13       1.0  0.3267303831694833  0.13971850633229368  0.33692682199726676  1.0000
  C   C14       1.0  0.18794726111411822  0.1086210089514807  0.3956101402484435  1.0000
  C   C15       1.0  0.7320881461880264  0.9478767645164864  0.28651202885550486  1.0000
  C   C16       1.0  0.8458172487291977  0.0003354834205921998  0.2025588022661182  1.0000
  C   C17       1.0  0.742046835407436  0.4760514742142377  0.8797326480269518  1.0000
  C   C18       1.0  0.6939089954816924  0.6081310460155578  0.79410381754046  1.0000
  C   C19       1.0  0.6511247835813168  0.9064008745628273  0.7455946058836673  1.0000
  C   C20       1.0  0.6858087273536243  0.0572885862111576  0.76481843911629  1.0000
  C   C21       1.0  0.6376661541327876  0.2060167665867425  0.7058238753589947  1.0000
  C   C22       1.0  0.5552639698737993  0.2038938270056576  0.6267564158900996  1.0000
  C   C23       1.0  0.5255019092321476  0.05439567347697501  0.6058078459185836  1.0000
  C   C24       1.0  0.5731539544940248  0.9039491027286958  0.6653015634481036  1.0000
  C   C25       1.0  0.6689939460251537  0.4428433671504024  0.4746132869929554  1.0000
  C   C26       1.0  0.7949373338336798  0.5401035542128412  0.49134784599502274  1.0000
  C   C27       1.0  0.9333003926420673  0.5727332045753786  0.4315695107873124  1.0000
  C   C28       1.0  0.9429065999992546  0.5088686622121873  0.35451598348446106  1.0000
  C   C29       1.0  0.8150950622951356  0.4115744576275376  0.3377489594197058  1.0000
  C   C30       1.0  0.6788604406164468  0.3777269573620998  0.3979629088872088  1.0000
  C   C31       1.0  0.20707387306361372  0.6324406047351516  0.305255778556635  1.0000
  C   C32       1.0  0.30891183278810525  0.6876645168242206  0.21717964269029721  1.0000
  S   S1        1.0  0.011258859333686599  0.926473250161287  0.5418052707439925  1.0000
  S   S2        1.0  0.49646914563398775  0.3952460811521092  0.5520040041312981  1.0000
  O   O1        1.0  0.22048853954051853  0.2741575546908166  0.8096747124930204  1.0000
  O   O2        1.0  0.31827303051818495  0.39962887879404724  0.9434081316110792  1.0000
  O   O3        1.0  0.20671047043503418  0.6550247177062616  0.8778794569909962  1.0000
  O   O4        1.0  0.8643247449661545  0.0065056290232732  0.4926530504724552  1.0000
  O   O5        1.0  0.012111389859022409  0.7500376649677561  0.5868623492091701  1.0000
  O   O6        1.0  0.5913266717032855  0.0639594501658465  0.28260089709210223  1.0000
  O   O7        1.0  0.8040885623289713  0.1292656199846149  0.14015473682347587  1.0000
  O   O8        1.0  0.9776589474832209  0.9108371904442832  0.1988222894836866  1.0000
  O   O9        1.0  0.6969291537506592  0.7685513463807965  0.8118281262304166  1.0000
  O   O10       1.0  0.7375419025575596  0.5163579524084767  0.954960265859981  1.0000
  O   O11       1.0  0.7809102351242674  0.3326381827074557  0.8680874499842872  1.0000
  O   O12       1.0  0.4828770513057209  0.5192061832051493  0.6053183798255048  1.0000
  O   O13       1.0  0.3548958924780265  0.37306321573385764  0.4998836646064007  1.0000
  O   O14       1.0  0.07169819591681663  0.5350963147406279  0.2911485082203952  1.0000
  O   O15       1.0  0.27036860500112436  0.6389079210273609  0.14808485764811508  1.0000
  O   O16       1.0  0.425326124820444  0.7841257887123094  0.21956937685215644  1.0000
  O   O17       1.0  0.37091905691068666  0.8142676455925653  0.9781841892638141  1.0000
  O   O18       1.0  0.6142555283725883  0.08257426079488542  0.9887431148294823  1.0000
  O   O19       1.0  0.008952049030526203  0.12141044686478612  0.97759247966642  1.0000
  O   O20       1.0  0.26214760350233485  0.08747781693652713  0.130880542545917  1.0000
  O   O21       1.0  0.6828299309325986  0.6751646684964001  0.1317972955637572  1.0000
  O   O22       1.0  0.9611174582398122  0.8053324953153974  0.9748836553293359  1.0000
  O   O23       1.0  0.9766094300187621  0.41998161870895967  0.0872722639303589  1.0000
  O   O24       1.0  0.5641984133476328  0.3804265374429932  0.11494243483159039  1.0000
