data_image0
_chemical_formula_structural       Ag4H8C8N28O16
_chemical_formula_sum              "Ag4 H8 C8 N28 O16"
_cell_length_a       5.669119545117556
_cell_length_b       8.55043991012269
_cell_length_c       15.375353496511249
_cell_angle_alpha    89.9994073887441
_cell_angle_beta     90.00072726288982
_cell_angle_gamma    90.00013110886155

_space_group_name_H-M_alt    "P 1"
_space_group_IT_number       1

loop_
  _space_group_symop_operation_xyz
  'x, y, z'

loop_
  _atom_site_type_symbol
  _atom_site_label
  _atom_site_symmetry_multiplicity
  _atom_site_fract_x
  _atom_site_fract_y
  _atom_site_fract_z
  _atom_site_occupancy
  Ag  Ag1       1.0  0.759170741696366  0.4185773153424107  0.5687081316737375  1.0000
  Ag  Ag2       1.0  0.7408191725295765  0.581429659172997  0.0687067531206367  1.0000
  Ag  Ag3       1.0  0.25916245484540923  0.08143063695672477  0.431294517761465  1.0000
  Ag  Ag4       1.0  0.24082752810269886  0.9185759370043556  0.9312961533926225  1.0000
  H   H1        1.0  0.1328300966549776  0.680188645006389  0.7470783909116889  1.0000
  H   H2        1.0  0.3671376619520998  0.3198119592574641  0.24708888093613973  1.0000
  H   H3        1.0  0.6328694905169031  0.819807432700628  0.2529090518737504  1.0000
  H   H4        1.0  0.8671655790814583  0.1801891382043053  0.7529181756717519  1.0000
  H   H5        1.0  0.1672755779891588  0.9799213145743192  0.6712634075915245  1.0000
  H   H6        1.0  0.33269309558896515  0.0200841920500849  0.17127613089765956  1.0000
  H   H7        1.0  0.6673253609266965  0.5200771540164126  0.3287222450607529  1.0000
  H   H8        1.0  0.8327229052148936  0.4799133450200728  0.8287314150966762  1.0000
  C   C1        1.0  0.23010710549336014  0.7225718433789082  0.6915350565721496  1.0000
  C   C2        1.0  0.26987108642049407  0.27742978200202373  0.19154598886045446  1.0000
  C   C3        1.0  0.7301270987777786  0.7774302282570955  0.3084515401135234  1.0000
  C   C4        1.0  0.7698869538067896  0.22256064342484894  0.8084593122698749  1.0000
  C   C5        1.0  0.2480283890207957  0.8689167076037164  0.6552421738134198  1.0000
  C   C6        1.0  0.2519556077787115  0.1310867545522426  0.15524997145738684  1.0000
  C   C7        1.0  0.7480526515355166  0.6310736956498458  0.3447477586515219  1.0000
  C   C8        1.0  0.7519802913429032  0.3689270345982648  0.8447500427427171  1.0000
  N   N1        1.0  0.3765344843444396  0.6302403111277997  0.6426737014175358  1.0000
  N   N2        1.0  0.12345613488308518  0.36976922984133137  0.14267105455034815  1.0000
  N   N3        1.0  0.876547663714824  0.8697678281826098  0.3573311403184363  1.0000
  N   N4        1.0  0.6234592536235227  0.1302373488864106  0.857327708525311  1.0000
  N   N5        1.0  0.4839293866021778  0.7076919633830199  0.5789542165268742  1.0000
  N   N6        1.0  0.016071384188172996  0.292311731799856  0.07895542063977959  1.0000
  N   N7        1.0  0.9839233250307801  0.7923139983817931  0.4210472248659371  1.0000
  N   N8        1.0  0.5160769685479208  0.2076888377987274  0.9210428404617942  1.0000
  N   N9        1.0  0.4035981058518632  0.8533217495992813  0.5884636303571185  1.0000
  N   N10       1.0  0.0963977008830099  0.14668060121031345  0.08846670769669629  1.0000
  N   N11       1.0  0.9036106128193637  0.6466782437477788  0.41153548439280735  1.0000
  N   N12       1.0  0.5964069923877773  0.3533189196384682  0.9115332297054904  1.0000
  N   N13       1.0  0.48060929199837693  0.9678754963412785  0.5320628226311611  1.0000
  N   N14       1.0  0.0193880987734047  0.03213256947169899  0.0320655560628254  1.0000
  N   N15       1.0  0.9806145242638991  0.5321316299998313  0.4679353513062877  1.0000
  N   N16       1.0  0.5194014969511471  0.467872683206238  0.9679366228975181  1.0000
  N   N17       1.0  0.6722200303269402  0.042492531507136284  0.5659884346632394  1.0000
  N   N18       1.0  0.8277874296268238  0.9575156625315696  0.06598917680627639  1.0000
  N   N19       1.0  0.1722060908569034  0.45751412049411744  0.43401510907241897  1.0000
  N   N20       1.0  0.3277928054261707  0.5424818777496938  0.9340095835378364  1.0000
  N   N21       1.0  0.45412494412007476  0.47829252913595605  0.6538474012588436  1.0000
  N   N22       1.0  0.0458713520769649  0.521714467333865  0.15384740997165375  1.0000
  N   N23       1.0  0.9541188870699315  0.021713377300081  0.3461522572012115  1.0000
  N   N24       1.0  0.5458735335169038  0.9782861575782247  0.8461532844253694  1.0000
  N   N25       1.0  0.27877337245396216  0.3764951091872462  0.6741401543063219  1.0000
  N   N26       1.0  0.22123067884562891  0.6235033275332852  0.1741377889363207  1.0000
  N   N27       1.0  0.7787581507491697  0.12349883822426475  0.3258619363993347  1.0000
  N   N28       1.0  0.7212265147575465  0.8764963915442578  0.825863074818727  1.0000
  O   O1        1.0  0.0701380892095074  0.42194396396426004  0.6863155146472761  1.0000
  O   O2        1.0  0.42986990959567345  0.5780472317381679  0.18631373866853804  1.0000
  O   O3        1.0  0.5701117060118293  0.07804031343214038  0.3136888526994852  1.0000
  O   O4        1.0  0.9298707759652912  0.9219492924907654  0.8136881004447005  1.0000
  O   O5        1.0  0.3425732827254819  0.23741102015798535  0.6812124153741193  1.0000
  O   O6        1.0  0.1574433598862015  0.7625943037599254  0.18120764175234427  1.0000
  O   O7        1.0  0.8425388981292626  0.2625912099147526  0.3187873719453548  1.0000
  O   O8        1.0  0.6574278841914492  0.7374088279929792  0.8187916229931884  1.0000
  O   O9        1.0  0.7589595308419491  0.004764057500857198  0.6373347490804305  1.0000
  O   O10       1.0  0.7410415683545681  0.9952346381709982  0.1373368174104783  1.0000
  O   O11       1.0  0.25896619499467727  0.49522986012627956  0.3626678994431812  1.0000
  O   O12       1.0  0.24104435380543526  0.5047627716771144  0.862660236629267  1.0000
  O   O13       1.0  0.7527662901750601  0.14977757121348384  0.5180544535503628  1.0000
  O   O14       1.0  0.7472271701482568  0.8502268259068727  0.0180560937429206  1.0000
  O   O15       1.0  0.2527624489404374  0.35021282847143437  0.4819514179648009  1.0000
  O   O16       1.0  0.24723457153993422  0.6497694236799062  0.981944891576461  1.0000
