data_image0
_chemical_formula_structural       Cu2H40C16S8Cl4O24
_chemical_formula_sum              "Cu2 H40 C16 S8 Cl4 O24"
_cell_length_a       8.263936617098658
_cell_length_b       9.403459618471429
_cell_length_c       12.40012337702227
_cell_angle_alpha    90.00020364175151
_cell_angle_beta     90.00004639856328
_cell_angle_gamma    97.42180739800277

_space_group_name_H-M_alt    "P 1"
_space_group_IT_number       1

loop_
  _space_group_symop_operation_xyz
  'x, y, z'

loop_
  _atom_site_type_symbol
  _atom_site_label
  _atom_site_symmetry_multiplicity
  _atom_site_fract_x
  _atom_site_fract_y
  _atom_site_fract_z
  _atom_site_occupancy
  Cu  Cu1       1.0  2.0309815908999997e-06  1.3897589852e-06  0.9999997276664061  1.0000
  Cu  Cu2       1.0  0.4999990596955826  0.99999745892049  0.4999997281442035  1.0000
  H   H1        1.0  0.8259207162944334  0.4116320561984638  0.0779733846285424  1.0000
  H   H2        1.0  0.3259275431867863  0.41163205106308715  0.4220238604032929  1.0000
  H   H3        1.0  0.17408081290403035  0.5883674948255407  0.9220239212851666  1.0000
  H   H4        1.0  0.6740710973756092  0.5883642798517106  0.577975864836084  1.0000
  H   H5        1.0  0.649622717051365  0.3810032334926988  0.16421598676985377  1.0000
  H   H6        1.0  0.1496336304226702  0.38100709788026427  0.3357835012952748  1.0000
  H   H7        1.0  0.3503747132249018  0.618993095995741  0.8357829320256086  1.0000
  H   H8        1.0  0.8503627455924203  0.618990302609909  0.664217030388528  1.0000
  H   H9        1.0  0.6292781832223681  0.3380808254886105  0.0234382921076772  1.0000
  H   H10       1.0  0.1292867950023862  0.3380843074484616  0.4765626826285256  1.0000
  H   H11       1.0  0.37072213569233275  0.6619187241149903  0.9765606266928871  1.0000
  H   H12       1.0  0.8707118455607982  0.6619120234683253  0.5234378490544387  1.0000
  H   H13       1.0  0.5075491101920377  0.13261294199261192  0.2168868652091689  1.0000
  H   H14       1.0  0.00755250294026411  0.13261546619342113  0.2831134923632561  1.0000
  H   H15       1.0  0.4924504665058648  0.8673898234549995  0.783112860039104  1.0000
  H   H16       1.0  0.9924481280235469  0.8673862282643726  0.7168894586582083  1.0000
  H   H17       1.0  0.4822106765354447  0.10976124915787723  0.0755140408211048  1.0000
  H   H18       1.0  0.9822170974521993  0.10976619116276964  0.4244857019119834  1.0000
  H   H19       1.0  0.5177869097657747  0.8902361527586538  0.924487297306605  1.0000
  H   H20       1.0  0.017783221465656158  0.8902333584487611  0.5755164426629306  1.0000
  H   H21       1.0  0.6300424105914714  0.8749034898928798  0.10163420348659  1.0000
  H   H22       1.0  0.1300472387628488  0.8749065827328765  0.3983649887941212  1.0000
  H   H23       1.0  0.36995595582266827  0.12509927413432828  0.898367134648538  1.0000
  H   H24       1.0  0.8699518698665116  0.12509296544634912  0.6016339300061162  1.0000
  H   H25       1.0  0.41986104679136815  0.8714898969229452  0.1374805604097418  1.0000
  H   H26       1.0  0.9198637158055192  0.8714945296885479  0.3625203900748204  1.0000
  H   H27       1.0  0.5801395841732315  0.1285117975368237  0.8625231970553172  1.0000
  H   H28       1.0  0.08013554884721688  0.12850609091479734  0.6374793351704894  1.0000
  H   H29       1.0  0.4266259226940647  0.647819513489502  0.2427687301478443  1.0000
  H   H30       1.0  0.9266252232407057  0.6478268410577074  0.2572267840856242  1.0000
  H   H31       1.0  0.5733731859360914  0.35218003469170617  0.7572309950959805  1.0000
  H   H32       1.0  0.073373337086629  0.35218557333242734  0.742769715400989  1.0000
  H   H33       1.0  0.6388793687023477  0.6451892112914736  0.2147239009341746  1.0000
  H   H34       1.0  0.13887944686084103  0.6451938866981594  0.28527225928364425  1.0000
  H   H35       1.0  0.3611189598133037  0.35480497477509243  0.7852742114150572  1.0000
  H   H36       1.0  0.8611192315968879  0.3548110221693508  0.7147274659672715  1.0000
  H   H37       1.0  0.5660276256418086  0.628161369996299  0.3521829748186818  1.0000
  H   H38       1.0  0.06602669306482765  0.6281685847379349  0.1478131007992545  1.0000
  H   H39       1.0  0.433972381226148  0.3718360347590561  0.6478143310917374  1.0000
  H   H40       1.0  0.9339724534582954  0.3718395413900241  0.8521842051253401  1.0000
  C   C1        1.0  0.710947439567228  0.34349434414802726  0.0933529480974045  1.0000
  C   C2        1.0  0.210954392441252  0.3434953357493883  0.4066464718332483  1.0000
  C   C3        1.0  0.2890528793466913  0.6565052054535914  0.9066451642595651  1.0000
  C   C4        1.0  0.7890433498809697  0.6565031385853147  0.5933532534087718  1.0000
  C   C5        1.0  0.5540952609385598  0.08260365692909491  0.145143169398871  1.0000
  C   C6        1.0  0.0540987938335533  0.0826065342172981  0.35485707856715004  1.0000
  C   C7        1.0  0.4459029494522113  0.9173980346739941  0.8548573622911845  1.0000
  C   C8        1.0  0.9458991045136215  0.9173930125454892  0.6451450660071174  1.0000
  C   C9        1.0  0.544695762889262  0.9212160944081308  0.1553224184735242  1.0000
  C   C10       1.0  0.04470048618489395  0.9212189230229558  0.3446776592381368  1.0000
  C   C11       1.0  0.4553021354571242  0.07878345235267402  0.8446789196571558  1.0000
  C   C12       1.0  0.9552986224452553  0.0787806251582452  0.655322066005688  1.0000
  C   C13       1.0  0.5508423948315765  0.67735154662455  0.2732830154644361  1.0000
  C   C14       1.0  0.05083993802860929  0.6773559309850086  0.22671399071536769  1.0000
  C   C15       1.0  0.4491576120371618  0.3226458581327947  0.7267150968895635  1.0000
  C   C16       1.0  0.9491594826443471  0.3226457620345117  0.7732833152006576  1.0000
  S   S1        1.0  0.761020664846235  0.16895324698766961  0.1237524244013173  1.0000
  S   S2        1.0  0.2610261920299877  0.16895301513392985  0.37624816596157723  1.0000
  S   S3        1.0  0.23897723349857358  0.8310462997691631  0.8762473008421878  1.0000
  S   S4        1.0  0.7389727605791521  0.8310454606291134  0.6237531721679374  1.0000
  S   S5        1.0  0.5925475766850566  0.867171876171817  0.2901984359658556  1.0000
  S   S6        1.0  0.09254750741241928  0.8671761801387986  0.2098015219901725  1.0000
  S   S7        1.0  0.40745243018841387  0.1328255285974365  0.7098045150496831  1.0000
  S   S8        1.0  0.907451015021941  0.1328276563045847  0.7901973968156638  1.0000
  Cl  Cl1       1.0  0.7599451768863045  0.6692647180670691  0.9197145317173818  1.0000
  Cl  Cl2       1.0  0.2599439184804949  0.6692619500960079  0.5802895498371966  1.0000
  Cl  Cl3       1.0  0.24005666435733267  0.3307369778012017  0.08028277419929  1.0000
  Cl  Cl4       1.0  0.7400583529387033  0.3307343850939049  0.419710981846741  1.0000
  O   O1        1.0  0.8079414326685563  0.1080364254608455  0.013402646539930198  1.0000
  O   O2        1.0  0.3079392896104878  0.10803243845805355  0.48659699864693806  1.0000
  O   O3        1.0  0.19206146284176384  0.8919641994195973  0.9865986915935279  1.0000
  O   O4        1.0  0.6920611853275886  0.8919681835696668  0.5134027265986916  1.0000
  O   O5        1.0  0.44863379768614203  0.9089808099214026  0.35808568156151205  1.0000
  O   O6        1.0  0.9486324049051332  0.9089843527007988  0.1419145785854354  1.0000
  O   O7        1.0  0.5513637886150773  0.09101659199512824  0.6419156565661979  1.0000
  O   O8        1.0  0.0513640090068677  0.09102162574604483  0.8580875659970814  1.0000
  O   O9        1.0  0.8131953055732666  0.8184349366418717  0.8859029860303238  1.0000
  O   O10       1.0  0.3131894280970826  0.8184334017985365  0.6141007184176885  1.0000
  O   O11       1.0  0.18680185055238493  0.1815678259530173  0.11409512633012037  1.0000
  O   O12       1.0  0.6868105787732401  0.181564002962773  0.3858990068234931  1.0000
  O   O13       1.0  0.6604475561487249  0.6703237901365284  0.0170984874326621  1.0000
  O   O14       1.0  0.16044720235673543  0.6703154981182637  0.4829066227028561  1.0000
  O   O15       1.0  0.3395613907898749  0.32967684186974827  0.9829044635895912  1.0000
  O   O16       1.0  0.8395515942274584  0.3296819052166883  0.5170922960944182  1.0000
  O   O17       1.0  0.9028096204646161  0.5981515644705341  0.9418521571845204  1.0000
  O   O18       1.0  0.4028045319434881  0.5981476108731132  0.5581598738151712  1.0000
  O   O19       1.0  0.09720557181308462  0.40185872501857045  0.05814514874726479  1.0000
  O   O20       1.0  0.597198051518518  0.401850869155112  0.44183823854096  1.0000
  O   O21       1.0  0.6636683456536902  0.5951688846439538  0.8330910748093387  1.0000
  O   O22       1.0  0.1636592525371086  0.5951697503005705  0.6669184013714613  1.0000
  O   O23       1.0  0.3363361903191162  0.4048263809864637  0.16691510197888698  1.0000
  O   O24       1.0  0.8363440731448505  0.4048255138915807  0.3330821303113182  1.0000
