data_image0
_chemical_formula_structural       Zn4H24C42O19
_chemical_formula_sum              "Zn4 H24 C42 O19"
_cell_length_a       17.322742466671652
_cell_length_b       17.32489899857844
_cell_length_c       17.342976978948162
_cell_angle_alpha    89.97527868505405
_cell_angle_beta     89.99884172741152
_cell_angle_gamma    90.0295967833349

_space_group_name_H-M_alt    "P 1"
_space_group_IT_number       1

loop_
  _space_group_symop_operation_xyz
  'x, y, z'

loop_
  _atom_site_type_symbol
  _atom_site_label
  _atom_site_symmetry_multiplicity
  _atom_site_fract_x
  _atom_site_fract_y
  _atom_site_fract_z
  _atom_site_occupancy
  Zn  Zn1       1.0  0.5659767728186509  0.4341993078006539  0.43413038908344254  1.0000
  Zn  Zn2       1.0  0.4350769244382207  0.565090340469695  0.4342863214263701  1.0000
  Zn  Zn3       1.0  0.4349589530999581  0.4351887096401016  0.5658546142648717  1.0000
  Zn  Zn4       1.0  0.5651169122968511  0.5653722062824755  0.5649193337190326  1.0000
  H   H1        1.0  0.8010459802268316  0.5860421020868926  0.5894347187853554  1.0000
  H   H2        1.0  0.9200239031021553  0.6265341072501867  0.6328722975052798  1.0000
  H   H3        1.0  0.197613632729535  0.4202770991309563  0.5953483388371339  1.0000
  H   H4        1.0  0.9933505796628525  0.4196839980250431  0.604818878881197  1.0000
  H   H5        1.0  0.1964689028526223  0.5807198955007636  0.4054201686165371  1.0000
  H   H6        1.0  0.8061143880856961  0.4136588852311007  0.4114158971756865  1.0000
  H   H7        1.0  0.5802957523668866  0.8031777188924422  0.5947785624391033  1.0000
  H   H8        1.0  0.58301346155109  0.007488063599538502  0.6012742860973361  1.0000
  H   H9        1.0  0.5828334011292355  0.1947988411540607  0.4084797881241188  1.0000
  H   H10       1.0  0.41773634882900273  0.19875037511644678  0.5933947169030632  1.0000
  H   H11       1.0  0.3783395274161806  0.07951909100421521  0.637141132851184  1.0000
  H   H12       1.0  0.41899697701251176  0.803385256487907  0.4056563896960412  1.0000
  H   H13       1.0  0.5919493638036499  0.5858575034809872  0.8014207490087203  1.0000
  H   H14       1.0  0.4178722874910576  0.5915745622479919  0.1980381840627388  1.0000
  H   H15       1.0  0.37824708203730495  0.6346137023905174  0.0787683613318322  1.0000
  H   H16       1.0  0.5860965610503044  0.4094779568735092  0.19475560856313487  1.0000
  H   H17       1.0  0.4095655373638892  0.41662419429187036  0.8051292296410894  1.0000
  H   H18       1.0  0.40752459182919404  0.414507353451377  0.0095131107859743  1.0000
  H   H19       1.0  0.05189436946629661  0.5814173503564817  0.4080577614940495  1.0000
  H   H20       1.0  0.9508026567997803  0.41546295834005786  0.41460605963046504  1.0000
  H   H21       1.0  0.5804568866198494  0.050118780686617015  0.4102609990559856  1.0000
  H   H22       1.0  0.41792535965161903  0.9479683408525122  0.40779959105315566  1.0000
  H   H23       1.0  0.5921574255120915  0.5877888886207503  0.9457992372343255  1.0000
  H   H24       1.0  0.5852067247252535  0.4119626245628822  0.0501858964845212  1.0000
  C   C1        1.0  0.8346352665618896  0.5485291434057303  0.5515821723602414  1.0000
  C   C2        1.0  0.9152283410909235  0.5492751050703221  0.5534141841942812  1.0000
  C   C3        1.0  0.1658413261720497  0.45594775180020264  0.5545486749496789  1.0000
  C   C4        1.0  0.0853417170091362  0.4573758867419855  0.5565719328338616  1.0000
  C   C5        1.0  0.16472267123137393  0.5461477969585503  0.4471532048789868  1.0000
  C   C6        1.0  0.08446002409613132  0.5464135472927081  0.4489772065340176  1.0000
  C   C7        1.0  0.8371598275915916  0.4513827070621944  0.4508683676134666  1.0000
  C   C8        1.0  0.9174753556485058  0.45261397758200433  0.452922846195257  1.0000
  C   C9        1.0  0.5444456580645962  0.8347220427825093  0.5539740651130174  1.0000
  C   C10       1.0  0.5433632665284307  0.9152195076244567  0.5552546501844873  1.0000
  C   C11       1.0  0.5466239504282981  0.163495679220425  0.4491535245375786  1.0000
  C   C12       1.0  0.5450774507166756  0.08318341996127292  0.4504324646880776  1.0000
  C   C13       1.0  0.4536271821791047  0.1654398595236302  0.5537768371201964  1.0000
  C   C14       1.0  0.45262613361126813  0.08483282621345012  0.5548874672400361  1.0000
  C   C15       1.0  0.453627522125494  0.8353444521022126  0.4471414354199936  1.0000
  C   C16       1.0  0.4532943740902695  0.9156135044109633  0.44857601469158237  1.0000
  C   C17       1.0  0.5524846192587773  0.5496501189580486  0.8342301452824046  1.0000
  C   C18       1.0  0.5523905169256338  0.5504247101862276  0.914422095859159  1.0000
  C   C19       1.0  0.45435208973522373  0.5523747524668893  0.1648535665728801  1.0000
  C   C20       1.0  0.45401783500368253  0.5537519332247527  0.08435498068024573  1.0000
  C   C21       1.0  0.5493520654654205  0.449537248216032  0.16332599093538397  1.0000
  C   C22       1.0  0.5486068614893326  0.4511988329027404  0.0830660613770178  1.0000
  C   C23       1.0  0.449611894115492  0.45413983885416104  0.8357348415581712  1.0000
  C   C24       1.0  0.45001492081460276  0.4552896882915576  0.9161711853686043  1.0000
  C   C25       1.0  0.7092024978008739  0.49974352048837295  0.4993740225560899  1.0000
  C   C26       1.0  0.7955514049663394  0.49974711221743456  0.5004663533141525  1.0000
  C   C27       1.0  0.9579671445875135  0.5011886932753384  0.5035087976626187  1.0000
  C   C28       1.0  0.29163221234129827  0.4992092842625766  0.4986912110807893  1.0000
  C   C29       1.0  0.20548795578009302  0.5004410056247935  0.5000705058132837  1.0000
  C   C30       1.0  0.043717277263120004  0.5024118449729116  0.5031923505368426  1.0000
  C   C31       1.0  0.5004858355861117  0.7087073241608193  0.4992798360199728  1.0000
  C   C32       1.0  0.4994481966866007  0.7948285903715727  0.5001365584569158  1.0000
  C   C33       1.0  0.4975832295268958  0.9566208000849415  0.5023089235883234  1.0000
  C   C34       1.0  0.5011434175589714  0.2911422151254683  0.5008500087082197  1.0000
  C   C35       1.0  0.5005807798156567  0.20480152383554892  0.5011586636122018  1.0000
  C   C36       1.0  0.4985847247690813  0.0423708528723168  0.5027309319525486  1.0000
  C   C37       1.0  0.5003658668930272  0.500279894916993  0.7087870951678142  1.0000
  C   C38       1.0  0.5007884439916735  0.5013436913669552  0.7948251485715903  1.0000
  C   C39       1.0  0.5015881376153644  0.5036328439851162  0.9564157083837942  1.0000
  C   C40       1.0  0.5013938887158602  0.4996910403762555  0.2906502226636007  1.0000
  C   C41       1.0  0.5018677090864401  0.5004203193232257  0.20438805151275832  1.0000
  C   C42       1.0  0.5016142060857404  0.5029141667125997  0.0421172170895119  1.0000
  O   O1        1.0  0.5006135941392601  0.49935028693395367  0.4992505976188042  1.0000
  O   O2        1.0  0.6764254413005872  0.4536047014993798  0.4522251676930936  1.0000
  O   O3        1.0  0.956045890982537  0.5962329724160255  0.6021789942581179  1.0000
  O   O4        1.0  0.3250970589362439  0.5449975098060521  0.451457835361694  1.0000
  O   O5        1.0  0.0490358430227928  0.41311553809404  0.6110200333607096  1.0000
  O   O6        1.0  0.325234481826989  0.4525635637059509  0.5448711919183894  1.0000
  O   O7        1.0  0.6755201004460716  0.545862449425158  0.5457912944282484  1.0000
  O   O8        1.0  0.4552393931131107  0.6750768480782909  0.4517161441793079  1.0000
  O   O9        1.0  0.5887264570672811  0.9518363880792012  0.6085335553231985  1.0000
  O   O10       1.0  0.45584703617867467  0.3247684237948647  0.5481084760854245  1.0000
  O   O11       1.0  0.5469112773996229  0.32394082210203823  0.4533113992333426  1.0000
  O   O12       1.0  0.40739989154191397  0.0437093608395571  0.6050323786993133  1.0000
  O   O13       1.0  0.5465046632931491  0.6752364460027421  0.5461948964982  1.0000
  O   O14       1.0  0.45290977805469623  0.4544332228088451  0.6757887281810611  1.0000
  O   O15       1.0  0.5470802110452767  0.4523101384330488  0.3237275247582048  1.0000
  O   O16       1.0  0.4085521527556182  0.6035254357199024  0.0431015164790409  1.0000
  O   O17       1.0  0.45532286937399397  0.5464531835141173  0.3239515136010027  1.0000
  O   O18       1.0  0.5477346859563781  0.5454316405957371  0.6746985131391057  1.0000
  O   O19       1.0  0.39932097366595803  0.40797404654880154  0.9541113956039594  1.0000
