data_image0
_chemical_formula_structural       Zn4H80C120N4O16
_chemical_formula_sum              "Zn4 H80 C120 N4 O16"
_cell_length_a       15.15564517242467
_cell_length_b       15.750343529321992
_cell_length_c       15.935371715782152
_cell_angle_alpha    87.49080589337927
_cell_angle_beta     84.77381597611483
_cell_angle_gamma    61.24625363334786

_space_group_name_H-M_alt    "P 1"
_space_group_IT_number       1

loop_
  _space_group_symop_operation_xyz
  'x, y, z'

loop_
  _atom_site_type_symbol
  _atom_site_label
  _atom_site_symmetry_multiplicity
  _atom_site_fract_x
  _atom_site_fract_y
  _atom_site_fract_z
  _atom_site_occupancy
  Zn  Zn1       1.0  0.4438407280313187  0.9914307210367993  0.43539916840754944  1.0000
  Zn  Zn2       1.0  0.564775832912588  0.9915495296455886  0.06458936249494937  1.0000
  Zn  Zn3       1.0  0.5561590461699595  0.0085697669349685  0.5646008960083719  1.0000
  Zn  Zn4       1.0  0.4352233949790901  0.0084480613299789  0.9354077409670508  1.0000
  H   H1        1.0  0.3336568883538433  0.2813225662341026  0.6773052694613992  1.0000
  H   H2        1.0  0.1883343924403605  0.43667865565799246  0.7263816793004381  1.0000
  H   H3        1.0  0.01538323157690513  0.417442093908285  0.534351444753085  1.0000
  H   H4        1.0  0.16328519234274808  0.26059208355519553  0.48625157166777194  1.0000
  H   H5        1.0  0.9338948054960952  0.5491633079201391  0.6307272456146862  1.0000
  H   H6        1.0  0.07160746254312769  0.5720887800231225  0.7480694240616258  1.0000
  H   H7        1.0  0.9950094172944123  0.6801684021090323  0.8580125107461709  1.0000
  H   H8        1.0  0.8440764922195286  0.8138483283408745  0.9338716783906945  1.0000
  H   H9        1.0  0.6632385032268006  0.8316261415100142  0.7343081399919241  1.0000
  H   H10       1.0  0.8118350045380686  0.6988702089486477  0.6582982105935924  1.0000
  H   H11       1.0  0.2297661127623982  0.062352696943918304  0.4395750710053363  1.0000
  H   H12       1.0  0.1020270079700296  0.066845906998644  0.34853168898156633  1.0000
  H   H13       1.0  0.34887922120599063  0.8976260871830135  0.16556105235067517  1.0000
  H   H14       1.0  0.4653152836121209  0.9005797191742956  0.2635021408823022  1.0000
  H   H15       1.0  0.06357175842967419  0.012430577203978999  0.22632626082138774  1.0000
  H   H16       1.0  0.22611806248799138  0.9597343607822068  0.07869052542638849  1.0000
  H   H17       1.0  0.9925377124555582  0.8469301308579703  0.8481986479176981  1.0000
  H   H18       1.0  0.15938498249448696  0.7024873728872264  0.8451812441844168  1.0000
  H   H19       1.0  0.2861552517725842  0.6887756687939015  0.9419919692370298  1.0000
  H   H20       1.0  0.24350749838446017  0.8197385105888274  0.04273760498449519  1.0000
  H   H21       1.0  0.3848848672296087  0.28141023145411026  0.8225447202449485  1.0000
  H   H22       1.0  0.3750663097362264  0.43668289012953915  0.7734555447814344  1.0000
  H   H23       1.0  0.5671805469566777  0.4173019614171452  0.96559759891619  1.0000
  H   H24       1.0  0.575899780013366  0.2605860920642442  0.013698875733353984  1.0000
  H   H25       1.0  0.5170628913314987  0.5490993745082803  0.8692927516634865  1.0000
  H   H26       1.0  0.3563430822687154  0.5720818446679345  0.75201765386835  1.0000
  H   H27       1.0  0.32468868894302005  0.6802425855039261  0.6421101430749161  1.0000
  H   H28       1.0  0.34204686463832723  0.8138484784868325  0.5661693677808727  1.0000
  H   H29       1.0  0.5051953075853322  0.8316218725673749  0.765687171741483  1.0000
  H   H30       1.0  0.48936710093499874  0.6988438378032383  0.8416985419634884  1.0000
  H   H31       1.0  0.7079927790001221  0.06250452472806238  0.0604647392745008  1.0000
  H   H32       1.0  0.8312726143323487  0.0669226528350393  0.15152683940348774  1.0000
  H   H33       1.0  0.7536414732166464  0.8975845626353519  0.3343675729840925  1.0000
  H   H34       1.0  0.6342315899791161  0.9006041706967451  0.2364192091207755  1.0000
  H   H35       1.0  0.9241826387166583  0.0123922593986308  0.2736943950596853  1.0000
  H   H36       1.0  0.8141947191402963  0.9597092412676531  0.4212364475952625  1.0000
  H   H37       1.0  0.16056672383614068  0.8468633813581548  0.6517446361310204  1.0000
  H   H38       1.0  0.13816145169206362  0.7024280474243907  0.6547243665543476  1.0000
  H   H39       1.0  0.025032211011605923  0.6887365716819716  0.5579629474274839  1.0000
  H   H40       1.0  0.9366649534644722  0.8197782793140148  0.4572807471446651  1.0000
  H   H41       1.0  0.6663435511797643  0.7186779218029358  0.32269599105814  1.0000
  H   H42       1.0  0.8116660470932403  0.5633218323790459  0.2736195812191084  1.0000
  H   H43       1.0  0.9846169033125921  0.5825576698407742  0.465647992236498  1.0000
  H   H44       1.0  0.8367153073956645  0.7394069560254265  0.5137491201328429  1.0000
  H   H45       1.0  0.0661049659313948  0.4508371800154548  0.3692715639763263  1.0000
  H   H46       1.0  0.9283920139485249  0.42791098375110453  0.25193195388663264  1.0000
  H   H47       1.0  0.004990718981986261  0.3198313616581173  0.1419875536558735  1.0000
  H   H48       1.0  0.15592231616601285  0.1861514353319009  0.066127248629023  1.0000
  H   H49       1.0  0.3367628938011649  0.16837507071748092  0.26569049344908535  1.0000
  H   H50       1.0  0.18816470945840535  0.301131727479536  0.34170242254126026  1.0000
  H   H51       1.0  0.7702346888463228  0.9376470668885019  0.560426189500326  1.0000
  H   H52       1.0  0.8979734959290719  0.9331531326362422  0.6514708850564261  1.0000
  H   H53       1.0  0.6511204311987768  0.10237729768349621  0.8344395220906476  1.0000
  H   H54       1.0  0.534683342772098  0.09942438984965207  0.7364978648817342  1.0000
  H   H55       1.0  0.9364280185453995  0.9875699108039625  0.7736750584194495  1.0000
  H   H56       1.0  0.7738850874845511  0.04026467891480219  0.9213099314890485  1.0000
  H   H57       1.0  0.007462126111214224  0.15306890871163858  0.1518027300166764  1.0000
  H   H58       1.0  0.8406148560722855  0.29751166668238227  0.15482013374995773  1.0000
  H   H59       1.0  0.7138462712125816  0.3112226465931159  0.05800803641595559  1.0000
  H   H60       1.0  0.7564943866758256  0.18025908059356507  0.9572624006546062  1.0000
  H   H61       1.0  0.6151135790808128  0.7185902564232831  0.17745420678865287  1.0000
  H   H62       1.0  0.6249317786597646  0.5633183220067365  0.22654526450342158  1.0000
  H   H63       1.0  0.4328182655895532  0.5826978023099014  0.03440321034090491  1.0000
  H   H64       1.0  0.4240986676839499  0.7394143958312397  0.986300678712702  1.0000
  H   H65       1.0  0.48293724494489976  0.4509003892588693  0.13070731273855776  1.0000
  H   H66       1.0  0.6436560279871345  0.4279186432566461  0.24798184185641498  1.0000
  H   H67       1.0  0.6753127080849453  0.3197586267235693  0.3578884903660863  1.0000
  H   H68       1.0  0.6579541730883137  0.18615345798145458  0.4338305204989296  1.0000
  H   H69       1.0  0.4948051935399819  0.16837716703133054  0.2343141474715935  1.0000
  H   H70       1.0  0.5106336978999335  0.30115592599300817  0.1583014637172582  1.0000
  H   H71       1.0  0.29200554690068986  0.9374988600621706  0.9395353251969567  1.0000
  H   H72       1.0  0.16872577316016202  0.933079283516868  0.8484732837614997  1.0000
  H   H73       1.0  0.24635865889906225  0.10241520107752677  0.6656306091805815  1.0000
  H   H74       1.0  0.3657672184064253  0.09939559297603039  0.763579717898949  1.0000
  H   H75       1.0  0.07581689797980584  0.9876060559191798  0.7263064141696416  1.0000
  H   H76       1.0  0.18580511526578652  0.040289798247691494  0.5787630481017416  1.0000
  H   H77       1.0  0.8394344972787168  0.15313420977705758  0.34825480081692456  1.0000
  H   H78       1.0  0.8618377215423864  0.29757099207994747  0.34527581527640183  1.0000
  H   H79       1.0  0.9749669636097381  0.3112624678404573  0.4420378618157201  1.0000
  H   H80       1.0  0.0633342211568788  0.1802207602084067  0.542720062098546  1.0000
  C   C1        1.0  0.34577496612323705  0.16661223239127312  0.5507416810161486  1.0000
  C   C2        1.0  0.25756969899624954  0.2614957045829057  0.5786472002337317  1.0000
  C   C3        1.0  0.263671069500198  0.312356376836334  0.6461171536548916  1.0000
  C   C4        1.0  0.18220446251258696  0.3998313360942589  0.6726058150570893  1.0000
  C   C5        1.0  0.0911243080433408  0.44027662079733426  0.6326503151121798  1.0000
  C   C6        1.0  0.08555772614407431  0.3880319937948045  0.5654440209892754  1.0000
  C   C7        1.0  0.1675116617548157  0.30041582399606165  0.538607165884919  1.0000
  C   C8        1.0  0.0035144737421007304  0.5312970990077233  0.6597033591801915  1.0000
  C   C9        1.0  0.0017369385409012773  0.5914547191610777  0.7187885275976666  1.0000
  C   C10       1.0  0.914130695694645  0.677395854323251  0.7539871458322194  1.0000
  C   C11       1.0  0.9222654515137522  0.7138405298833206  0.8305358453661069  1.0000
  C   C12       1.0  0.8385033093382933  0.7880756331706776  0.8732824911871333  1.0000
  C   C13       1.0  0.7440648431670387  0.8291481309466704  0.8400573307365561  1.0000
  C   C14       1.0  0.7360688796438238  0.7975578559458045  0.7613434946779805  1.0000
  C   C15       1.0  0.8198878390514681  0.7228990953084137  0.718929365769  1.0000
  C   C16       1.0  0.6524569929688938  0.9013263227090603  0.891224390745549  1.0000
  C   C17       1.0  0.25219895600029923  0.0259533465344788  0.3787478956432863  1.0000
  C   C18       1.0  0.1819634485188573  0.02821760545643309  0.32780040752831496  1.0000
  C   C19       1.0  0.21403305503123007  0.9836814324224219  0.24830075241971633  1.0000
  C   C20       1.0  0.3184282814002944  0.9353894725777889  0.22549468779919116  1.0000
  C   C21       1.0  0.384189965747133  0.9361132495034281  0.2801339343559377  1.0000
  C   C22       1.0  0.1379364233276733  0.9918506316046916  0.1942538614028706  1.0000
  C   C23       1.0  0.1514095706919107  0.9796370165823729  0.1100430397270955  1.0000
  C   C24       1.0  0.073151865537689  0.9911418752100685  0.05585355979409457  1.0000
  C   C25       1.0  0.09523696869777613  0.915175274644234  0.9992811264482525  1.0000
  C   C26       1.0  0.022054618926560552  0.9236001865035632  0.9426967124714309  1.0000
  C   C27       1.0  0.048188517910794926  0.8434618497333799  0.8886753787430237  1.0000
  C   C28       1.0  0.14117902471002008  0.7620890016531447  0.8877499155677595  1.0000
  C   C29       1.0  0.21305004191072632  0.7540898319748026  0.9429732974573639  1.0000
  C   C30       1.0  0.18952531065704664  0.8278602451969731  0.9981900556937756  1.0000
  C   C31       1.0  0.4874399103065556  0.1666288114965084  0.9491679550225809  1.0000
  C   C32       1.0  0.4807548091525646  0.2615217099474378  0.9212524651277789  1.0000
  C   C33       1.0  0.4238897550474691  0.3123893391428183  0.8537363613822888  1.0000
  C   C34       1.0  0.4179882337084634  0.39983080087952055  0.827257457040389  1.0000
  C   C35       1.0  0.4686457842487358  0.44023572121302107  0.8672710325975714  1.0000
  C   C36       1.0  0.5263440188901571  0.3879906535572175  0.9345088545064825  1.0000
  C   C37       1.0  0.5318824238693479  0.30042606739932864  0.9613391617890484  1.0000
  C   C38       1.0  0.4652953872308105  0.5312636314025383  0.840282306384118  1.0000
  C   C39       1.0  0.4068471369035508  0.591476784633258  0.7812649247518451  1.0000
  C   C40       1.0  0.4084259642578232  0.6774510709468302  0.7460714951306784  1.0000
  C   C41       1.0  0.36377691578232446  0.713912072366952  0.6695650241459814  1.0000
  C   C42       1.0  0.373357695819813  0.7881142930018683  0.6267838973249766  1.0000
  C   C43       1.0  0.4267839831891181  0.8291542878850251  0.6599643269739629  1.0000
  C   C44       1.0  0.4664019917938092  0.7975765410061229  0.7386683509033176  1.0000
  C   C45       1.0  0.4572328544062785  0.7229311055590983  0.7810868532313647  1.0000
  C   C46       1.0  0.4462201103231892  0.9012970384981641  0.6087538180535219  1.0000
  C   C47       1.0  0.7219613666161137  0.026050337114199393  0.12125863440149233  1.0000
  C   C48       1.0  0.789951489793296  0.0282732501829841  0.1722157958791541  1.0000
  C   C49       1.0  0.8024562863234908  0.9836567247474333  0.25167280106701634  1.0000
  C   C50       1.0  0.7463325844876397  0.9353651343455808  0.2744515036312619  1.0000
  C   C51       1.0  0.6798439382651581  0.9361245290070882  0.21980722916129738  1.0000
  C   C52       1.0  0.8703736881916625  0.9918074758621316  0.3057261584374302  1.0000
  C   C53       1.0  0.8690190853797051  0.9796124943881562  0.38993148031601516  1.0000
  C   C54       1.0  0.9357283495514465  0.9911387903191268  0.4441526300662844  1.0000
  C   C55       1.0  0.9895577033542579  0.9151807787107841  0.5007443143930388  1.0000
  C   C56       1.0  0.05432723161491287  0.9235971327742902  0.5573006394889362  1.0000
  C   C57       1.0  0.10833022964914837  0.8434429156657755  0.6112972348345451  1.0000
  C   C58       1.0  0.09671534213184445  0.76206019050214  0.6122047954300668  1.0000
  C   C59       1.0  0.032787075316704925  0.7540826809971931  0.5570145887265667  1.0000
  C   C60       1.0  0.9825397623812439  0.8278755891535636  0.5018243080087146  1.0000
  C   C61       1.0  0.6542261345820041  0.8333882556567714  0.4492588933696382  1.0000
  C   C62       1.0  0.7424310970648877  0.7385040591771669  0.42135155062209856  1.0000
  C   C63       1.0  0.7363296705168166  0.6876448354344191  0.35388404815723357  1.0000
  C   C64       1.0  0.8177979633097153  0.6001691520119863  0.3273946418861157  1.0000
  C   C65       1.0  0.9088767898881117  0.5597238672145366  0.36734900444869817  1.0000
  C   C66       1.0  0.9144443950341316  0.6119677700234546  0.43455461242396604  1.0000
  C   C67       1.0  0.8324905182413006  0.6995824913476908  0.4613902713969368  1.0000
  C   C68       1.0  0.9964866255762388  0.4687033890222381  0.34029658779314076  1.0000
  C   C69       1.0  0.9982624763590526  0.4085464930514817  0.2812127916570545  1.0000
  C   C70       1.0  0.08586769595855513  0.3226060820829133  0.24601485957013838  1.0000
  C   C71       1.0  0.07773263410844321  0.28616068221678154  0.1694637090938329  1.0000
  C   C72       1.0  0.16149477767080359  0.21192557894750763  0.12671769068526825  1.0000
  C   C73       1.0  0.2559359584416825  0.1708516328857499  0.1599439297691063  1.0000
  C   C74       1.0  0.2639315585028826  0.2024426320731436  0.23865713842910444  1.0000
  C   C75       1.0  0.18011091190305717  0.2771021168569661  0.2810713847945578  1.0000
  C   C76       1.0  0.3475419399869466  0.09867054410514702  0.1087752810736902  1.0000
  C   C77       1.0  0.7478028688551747  0.9740456931043371  0.6212526787147394  1.0000
  C   C78       1.0  0.8180380772400966  0.971780709966758  0.6722008529495795  1.0000
  C   C79       1.0  0.785967385889272  0.0163190556326995  0.7517011355122845  1.0000
  C   C80       1.0  0.6815714955747723  0.0646110154301525  0.7745066314416531  1.0000
  C   C81       1.0  0.6158104121947686  0.06388868697194282  0.7198672674700788  1.0000
  C   C82       1.0  0.8620640175928216  0.008149856450437198  0.8057480265291302  1.0000
  C   C83       1.0  0.8485925588076668  0.0203627473444215  0.8899593581608939  1.0000
  C   C84       1.0  0.9268499565439967  0.008857164392573199  0.9441457597390154  1.0000
  C   C85       1.0  0.9047614174078333  0.08482666168958268  0.0007183693042733953  1.0000
  C   C86       1.0  0.9779458136725624  0.0764003014430372  0.057301410985822074  1.0000
  C   C87       1.0  0.9518112535166949  0.156538638202214  0.1113234308479889  1.0000
  C   C88       1.0  0.8588177344082197  0.2379122103706734  0.1122491289223149  1.0000
  C   C89       1.0  0.7869497938822577  0.24590920755863266  0.057026825652087575  1.0000
  C   C90       1.0  0.8104737995988104  0.1721402427276075  0.0018094400309820033  1.0000
  C   C91       1.0  0.5125575688012348  0.8333709520638095  0.0508292072023551  1.0000
  C   C92       1.0  0.5192466466933184  0.738478053805551  0.0787449721818376  1.0000
  C   C93       1.0  0.5761113414970893  0.6876111488509623  0.14626233076612746  1.0000
  C   C94       1.0  0.5820108765473863  0.6001696870450601  0.172742038684369  1.0000
  C   C95       1.0  0.5313533875988201  0.5597633182732266  0.1327285218207237  1.0000
  C   C96       1.0  0.47365611599934715  0.6120091101918417  0.0654905824831005  1.0000
  C   C97       1.0  0.46811837219178903  0.6995736963607442  0.03865958906678198  1.0000
  C   C98       1.0  0.5347030604665052  0.4687368564929456  0.1597172480619449  1.0000
  C   C99       1.0  0.5931519733522991  0.4085237032913227  0.21873457097291996  1.0000
  C   C100      1.0  0.5915727209443062  0.3225515896026111  0.25392731450197903  1.0000
  C   C101      1.0  0.6362211767743559  0.28608913982358786  0.33043766737624475  1.0000
  C   C102      1.0  0.6266423816386748  0.21188691923978814  0.37321736320844673  1.0000
  C   C103      1.0  0.5732164521838002  0.17084620009774903  0.34003505130820594  1.0000
  C   C104      1.0  0.5335994737603401  0.20242322287348455  0.2613334782935084  1.0000
  C   C105      1.0  0.5427654756552158  0.2770722792853988  0.2189150934774631  1.0000
  C   C106      1.0  0.55377924021127  0.09870562211654739  0.39124618768275343  1.0000
  C   C107      1.0  0.2780373213598112  0.9739523234714157  0.878741430056081  1.0000
  C   C108      1.0  0.21004653839789011  0.971729410409715  0.8277855821246263  1.0000
  C   C109      1.0  0.1975431887812675  0.016343039008709998  0.7483279494687806  1.0000
  C   C110      1.0  0.2536675504018575  0.06463462940347849  0.7255479333583208  1.0000
  C   C111      1.0  0.32015656147324734  0.0638745105735268  0.7801934626393174  1.0000
  C   C112      1.0  0.12962554247380353  0.008190115149609798  0.694272199849479  1.0000
  C   C113      1.0  0.13098352521770806  0.020383648403097296  0.6100691527077797  1.0000
  C   C114      1.0  0.06427329245643419  0.008856628136960898  0.5558456107363909  1.0000
  C   C115      1.0  0.010444545168041917  0.08481608828508058  0.4992563186446404  1.0000
  C   C116      1.0  0.9456733871462147  0.0763990098754022  0.4426982874613756  1.0000
  C   C117      1.0  0.8916699654451606  0.15655539962686757  0.3887016334361135  1.0000
  C   C118      1.0  0.9032844936611327  0.23793884903129472  0.3877953276793845  1.0000
  C   C119      1.0  0.967211735842625  0.24591708271175605  0.4429855931180668  1.0000
  C   C120      1.0  0.0174600734117405  0.17212345037987123  0.49817581510074405  1.0000
  N   N1        1.0  0.3518739859358533  0.9810822709698285  0.3555105034058172  1.0000
  N   N2        1.0  0.6671775965454287  0.9811495195095078  0.1444502092651518  1.0000
  N   N3        1.0  0.6481267540811615  0.0189189413009245  0.644490698406308  1.0000
  N   N4        1.0  0.3328218183545247  0.0188516927030449  0.8555511099895696  1.0000
  O   O1        1.0  0.3352786739517484  0.12465871806384139  0.4889333810503871  1.0000
  O   O2        1.0  0.4241331165164794  0.1350764827798159  0.5917350572519737  1.0000
  O   O3        1.0  0.6667063841424011  0.9266716863155507  0.9615672663174522  1.0000
  O   O4        1.0  0.5671029950284068  0.9300825234234081  0.8619980652788113  1.0000
  O   O5        1.0  0.5398810430402818  0.12476819759232428  0.010999031235208194  1.0000
  O   O6        1.0  0.44070895782849123  0.1349849522146371  0.908174863756045  1.0000
  O   O7        1.0  0.4067574531901813  0.9264917433189906  0.5383518250905154  1.0000
  O   O8        1.0  0.5026992555013479  0.9301889720990673  0.6380110427452763  1.0000
  O   O9        1.0  0.6647206738089156  0.8753439425146965  0.5110653698609724  1.0000
  O   O10       1.0  0.5758687069521002  0.8649225568409095  0.40826488969359787  1.0000
  O   O11       1.0  0.3332956227143881  0.07332300797209261  0.038432229296255095  1.0000
  O   O12       1.0  0.4328948641841492  0.06991651616744579  0.1380072532941909  1.0000
  O   O13       1.0  0.46012071606280364  0.87523229043056  0.9889996021919173  1.0000
  O   O14       1.0  0.5592926239745925  0.8650119146978665  0.09182394576555446  1.0000
  O   O15       1.0  0.593242982182737  0.0735087446637834  0.4616475531916535  1.0000
  O   O16       1.0  0.49730002789382155  0.0698151368816227  0.36198639464762994  1.0000
