data_image0
_chemical_formula_structural       Er4H32C32O32
_chemical_formula_sum              "Er4 H32 C32 O32"
_cell_length_a       8.708437228770725
_cell_length_b       10.591056884069122
_cell_length_c       12.074689089031368
_cell_angle_alpha    89.99993734118445
_cell_angle_beta     90.00026113030066
_cell_angle_gamma    102.45327003516364

_space_group_name_H-M_alt    "P 1"
_space_group_IT_number       1

loop_
  _space_group_symop_operation_xyz
  'x, y, z'

loop_
  _atom_site_type_symbol
  _atom_site_label
  _atom_site_symmetry_multiplicity
  _atom_site_fract_x
  _atom_site_fract_y
  _atom_site_fract_z
  _atom_site_occupancy
  Er  Er1       1.0  0.6201163140137427  0.3207046664350699  0.401892794674481  1.0000
  Er  Er2       1.0  0.3798865773474063  0.679296774568975  0.9018918595731478  1.0000
  Er  Er3       1.0  0.9491978983643535  0.12095190894711293  0.5013535448305646  1.0000
  Er  Er4       1.0  0.0508028717650006  0.879046709759244  0.0013487851658809  1.0000
  H   H1        1.0  0.5668768521833485  0.45396175250404974  0.1981797405649957  1.0000
  H   H2        1.0  0.4331104757461334  0.5460377919969304  0.698176617679529  1.0000
  H   H3        1.0  0.5658619528650563  0.3187834736730437  0.1438769531439021  1.0000
  H   H4        1.0  0.43414658386281973  0.6812238204653482  0.643881163774779  1.0000
  H   H5        1.0  0.31369181326628853  0.13199578702929676  0.37128951866619525  1.0000
  H   H6        1.0  0.6863110213134931  0.8680017923926256  0.8712861061370916  1.0000
  H   H7        1.0  0.28591957260327666  0.25536796349584984  0.3173915485537151  1.0000
  H   H8        1.0  0.7140798675065696  0.7446267252283576  0.8173883400233564  1.0000
  H   H9        1.0  0.02439362066109401  0.052548393781073316  0.7445591458520369  1.0000
  H   H10       1.0  0.9756061231928186  0.9474492100135091  0.24456233387935813  1.0000
  H   H11       1.0  0.8453417882881029  0.0293053307877145  0.7152562320506277  1.0000
  H   H12       1.0  0.15465495193919307  0.970699046519499  0.2152542147274019  1.0000
  H   H13       1.0  0.2575411314049276  0.3173487667364369  0.5480094198972836  1.0000
  H   H14       1.0  0.7424558442690455  0.6826517759143301  0.048001316767816604  1.0000
  H   H15       1.0  0.1599293877783978  0.28943153959536966  0.6607061697696537  1.0000
  H   H16       1.0  0.840068159015658  0.7105728485843271  0.1606975339466246  1.0000
  H   H17       1.0  0.5321274250968456  0.7563247732853708  0.3498190605834282  1.0000
  H   H18       1.0  0.46786585127694036  0.2436631396797679  0.84981549995603  1.0000
  H   H19       1.0  0.38729846956947256  0.9348298778378776  0.36857036248153463  1.0000
  H   H20       1.0  0.6127007844930291  0.06516286699270069  0.8685657847865259  1.0000
  H   H21       1.0  0.010506046699795496  0.6763748172997025  0.5363497504002552  1.0000
  H   H22       1.0  0.98949200428018  0.3236257278358322  0.0363394748037251  1.0000
  H   H23       1.0  0.15755433663928642  0.49898590754067834  0.5215579738823308  1.0000
  H   H24       1.0  0.8424340630200431  0.5010088373986434  0.021550365426612903  1.0000
  H   H25       1.0  0.1747560780508906  0.38404516846707537  0.1913772963241342  1.0000
  H   H26       1.0  0.8252484327439759  0.6159543804313612  0.6913762272264065  1.0000
  H   H27       1.0  0.022652945285713613  0.6153058154114035  0.2393144068251942  1.0000
  H   H28       1.0  0.9773531491663547  0.3846898567511587  0.7393065955084949  1.0000
  H   H29       1.0  0.5174583265585184  0.9080428841134986  0.6916016805566728  1.0000
  H   H30       1.0  0.4825340603413865  0.09195859637672038  0.19160651306513898  1.0000
  H   H31       1.0  0.29205793622709564  0.0928692909531179  0.654523294793961  1.0000
  H   H32       1.0  0.7079475938150781  0.9071438019431781  0.1545198422204024  1.0000
  C   C1        1.0  0.354402292934502  0.6175510280457459  0.43552290183298237  1.0000
  C   C2        1.0  0.6455920271026727  0.3824388020456979  0.9355181425301993  1.0000
  C   C3        1.0  0.41813456622301004  0.7401040986074603  0.3908791510492123  1.0000
  C   C4        1.0  0.5818602341587537  0.25988864104241566  0.8908767786364676  1.0000
  C   C5        1.0  0.3368746575211929  0.8389394493674587  0.4010167074588793  1.0000
  C   C6        1.0  0.6631216080868756  0.16105425544746052  0.9010130361709514  1.0000
  C   C7        1.0  0.19090809677765458  0.8160521212834053  0.45494912953009253  1.0000
  C   C8        1.0  0.8090887600891534  0.18394253992776302  0.9549459173308534  1.0000
  C   C9        1.0  0.12519149878414745  0.6927976968177916  0.4964880355223116  1.0000
  C   C10       1.0  0.8748063783808251  0.3071998570991425  0.9964824423174861  1.0000
  C   C11       1.0  0.20710731005616623  0.5943356852470812  0.4876979267233565  1.0000
  C   C12       1.0  0.7928911537060089  0.40565993670745104  0.9876936305816599  1.0000
  C   C13       1.0  0.44405068869780007  0.5132638678122277  0.4261771005175845  1.0000
  C   C14       1.0  0.5559422894470814  0.4867298314692903  0.9261711229883218  1.0000
  C   C15       1.0  0.10662399967316818  0.9224142315362228  0.47292207596602515  1.0000
  C   C16       1.0  0.8933793366982458  0.0775871955784666  0.972915925358798  1.0000
  C   C17       1.0  0.9976188413091904  0.3710351091014629  0.3242234836013864  1.0000
  C   C18       1.0  0.002384458427364709  0.6289653803529304  0.8242188685661418  1.0000
  C   C19       1.0  0.09731292241546904  0.4378295631933043  0.23271982384384424  1.0000
  C   C20       1.0  0.9026938907785222  0.5621690110869862  0.7327157458192275  1.0000
  C   C21       1.0  0.09655888527114341  0.5581057079489398  0.1987884592221363  1.0000
  C   C22       1.0  0.9034440168768755  0.4418919054105785  0.6987820089851198  1.0000
  C   C23       1.0  0.1910852838562676  0.6146029139641483  0.10214593482321992  1.0000
  C   C24       1.0  0.8089111360006175  0.3853985848381213  0.6021417098721429  1.0000
  C   C25       1.0  0.5692003083880766  0.06145386590245748  0.5661388803546643  1.0000
  C   C26       1.0  0.4307975409466565  0.9385495740308228  0.0661386286284369  1.0000
  C   C27       1.0  0.4706531156433231  0.9855642802445032  0.6538126034786914  1.0000
  C   C28       1.0  0.5293452830056966  0.0144391425439565  0.153813519816957  1.0000
  C   C29       1.0  0.3369038378159389  0.013641938459322493  0.6910021907670725  1.0000
  C   C30       1.0  0.6631011607323813  0.9863682464749813  0.1909985183646512  1.0000
  C   C31       1.0  0.2520803505331841  0.9428677510872419  0.7861270576503543  1.0000
  C   C32       1.0  0.7479285707308138  0.057137581348854376  0.2861253410422506  1.0000
  O   O1        1.0  0.5648802182694795  0.5293474956396551  0.36390239643915834  1.0000
  O   O2        1.0  0.43510740451468183  0.4706404135490275  0.8638985207974416  1.0000
  O   O3        1.0  0.40094086210122276  0.40700959603123005  0.4802505201488643  1.0000
  O   O4        1.0  0.599058449990075  0.5929850606421211  0.9802379619174105  1.0000
  O   O5        1.0  0.1641248020075921  0.0363932403704581  0.4339683630008366  1.0000
  O   O6        1.0  0.8358777836146063  0.963606260475686  0.9339653549862704  1.0000
  O   O7        1.0  0.9792797258116867  0.9027385517294347  0.5275460442077176  1.0000
  O   O8        1.0  0.02073076705269731  0.0972658649442053  0.0275336178673768  1.0000
  O   O9        1.0  0.8753867644019665  0.41079441318358073  0.3507175284364834  1.0000
  O   O10       1.0  0.12461796808854328  0.5892109058037036  0.8507166643727047  1.0000
  O   O11       1.0  0.04563061362046741  0.2762459351990003  0.36824545542420845  1.0000
  O   O12       1.0  0.9543697701657055  0.7237555119767904  0.8682347743318459  1.0000
  O   O13       1.0  0.1617908845342697  0.7166025111248188  0.05758817105457581  1.0000
  O   O14       1.0  0.8382020643813136  0.2833999627208428  0.5575766819777996  1.0000
  O   O15       1.0  0.2950166639765754  0.5601396392947038  0.06216746144128389  1.0000
  O   O16       1.0  0.7049783570509973  0.4398618671203847  0.5621686422320238  1.0000
  O   O17       1.0  0.5221348076368243  0.1543556585763568  0.520511084674709  1.0000
  O   O18       1.0  0.4778656942274041  0.8456458570070353  0.0205135571069945  1.0000
  O   O19       1.0  0.6977390114436518  0.02622656701827709  0.5457004862843249  1.0000
  O   O20       1.0  0.3022598581847122  0.9737768771167908  0.0456948106317654  1.0000
  O   O21       1.0  0.1379044437744312  0.9850621697648235  0.8286927499690009  1.0000
  O   O22       1.0  0.8620953205049773  0.014933483691834197  0.3286939318752999  1.0000
  O   O23       1.0  0.29636825773779657  0.8455796163119301  0.825636266722185  1.0000
  O   O24       1.0  0.7036544215133772  0.15443344598578784  0.3256343156435548  1.0000
  O   O25       1.0  0.6053863143539147  0.37449348381935005  0.206136152693567  1.0000
  O   O26       1.0  0.3946177656341377  0.6255128303835988  0.7061377996917741  1.0000
  O   O27       1.0  0.36839812451230375  0.20557581456776566  0.32374797822530615  1.0000
  O   O28       1.0  0.631603517187159  0.7944227408892459  0.8237452811798534  1.0000
  O   O29       1.0  0.9460542000068842  0.08699388157147328  0.6989967393875816  1.0000
  O   O30       1.0  0.053942945045974994  0.9130124328010183  0.1989944435726869  1.0000
  O   O31       1.0  0.17322207700169662  0.2537128442448449  0.5881279416523171  1.0000
  O   O32       1.0  0.8267742550128504  0.7462886572990968  0.08811922949493578  1.0000
