data_image0
_chemical_formula_structural       Zn4H44C58N4O16
_chemical_formula_sum              "Zn4 H44 C58 N4 O16"
_cell_length_a       9.485356528503308
_cell_length_b       9.818767653335891
_cell_length_c       15.167230781001455
_cell_angle_alpha    81.36278430976839
_cell_angle_beta     73.32453327070702
_cell_angle_gamma    75.45796988514005

_space_group_name_H-M_alt    "P 1"
_space_group_IT_number       1

loop_
  _space_group_symop_operation_xyz
  'x, y, z'

loop_
  _atom_site_type_symbol
  _atom_site_label
  _atom_site_symmetry_multiplicity
  _atom_site_fract_x
  _atom_site_fract_y
  _atom_site_fract_z
  _atom_site_occupancy
  Zn  Zn1       1.0  0.25119176571773477  0.9084640790240284  0.30374684216422315  1.0000
  Zn  Zn2       1.0  0.7488092013832599  0.09153510272233936  0.6962533909872946  1.0000
  Zn  Zn3       1.0  0.3132945836966243  0.12740521493999774  0.10191857399898653  1.0000
  Zn  Zn4       1.0  0.6867041823681813  0.8725939566718495  0.8980807379069874  1.0000
  H   H1        1.0  0.7853315948231625  0.08248066719935566  0.10938378683003694  1.0000
  H   H2        1.0  0.21466863209123227  0.9175216822535287  0.8906162598578151  1.0000
  H   H3        1.0  0.1452647198644001  0.051629700734871185  0.4840881962484006  1.0000
  H   H4        1.0  0.8547337992215633  0.9483705328260322  0.515911712264952  1.0000
  H   H5        1.0  0.22486240060690935  0.46663675000235094  0.27583938054647933  1.0000
  H   H6        1.0  0.7751380732863286  0.5333645375014837  0.7241600695339941  1.0000
  H   H7        1.0  0.5668081888706169  0.19528747272489258  0.9502147338057726  1.0000
  H   H8        1.0  0.4331938794984041  0.8047116959480999  0.049783983682708276  1.0000
  H   H9        1.0  0.554617224451775  0.6565839022179033  0.8167253154687374  1.0000
  H   H10       1.0  0.4453837433991409  0.34341526138783246  0.18327294139697872  1.0000
  H   H11       1.0  0.37839387074051706  0.7557149995775133  0.8727364242040496  1.0000
  H   H12       1.0  0.6216048953242818  0.2442841720343409  0.12726288770192443  1.0000
  H   H13       1.0  0.26106201961304987  0.7090666017662313  0.7566647459543463  1.0000
  H   H14       1.0  0.7389376004909564  0.29093362476817214  0.24333430565791064  1.0000
  H   H15       1.0  0.4302827730443894  0.5917616042664874  0.7046459909604225  1.0000
  H   H16       1.0  0.5697168473095857  0.4082386162210411  0.2953524018898933  1.0000
  H   H17       1.0  0.21200448606514752  0.0189434540988671  0.6325040051456627  1.0000
  H   H18       1.0  0.7879951335389137  0.9810567845292932  0.367496363990469  1.0000
  H   H19       1.0  0.6991108035497717  0.6666921310343736  0.19983624788420692  1.0000
  H   H20       1.0  0.3008861205604633  0.3333102334511223  0.800165710745006  1.0000
  H   H21       1.0  0.12236610455953921  0.40063221461520715  0.055831512854155115  1.0000
  H   H22       1.0  0.8776354696018204  0.5993690840027595  0.9441690566110168  1.0000
  H   H23       1.0  0.14863965138077617  0.7374097077735227  0.14558170416847827  1.0000
  H   H24       1.0  0.8513593619128416  0.2625883958423998  0.8544163523681834  1.0000
  H   H25       1.0  0.6210099628666584  0.40319050517513927  0.8421988265509202  1.0000
  H   H26       1.0  0.37899100573417843  0.5968086402899642  0.15779745402898734  1.0000
  H   H27       1.0  0.973838278046493  0.5718441269570748  0.18599672387308178  1.0000
  H   H28       1.0  0.026159387250238787  0.4281550456343978  0.8140027861720542  1.0000
  H   H29       1.0  0.16243328184043548  0.6244685176179274  0.9567791477161409  1.0000
  H   H30       1.0  0.8375685395497356  0.37553171300411486  0.04322016637971867  1.0000
  H   H31       1.0  0.8260817135668647  0.681295248059861  0.4613070002898924  1.0000
  H   H32       1.0  0.17391900630531865  0.3187050016824314  0.538694488230938  1.0000
  H   H33       1.0  0.4993352596916338  0.7253697410552318  0.37668271746866844  1.0000
  H   H34       1.0  0.5006648533701608  0.27462838576857956  0.6233177759765667  1.0000
  H   H35       1.0  0.399971795069682  0.9072005287484044  0.7200897758775326  1.0000
  H   H36       1.0  0.6000289253024533  0.09279970890013085  0.2799103951194297  1.0000
  H   H37       1.0  0.5680676184412264  0.7888161920143445  0.6688018964356817  1.0000
  H   H38       1.0  0.4319333489097445  0.21118298368514124  0.33119767795389526  1.0000
  H   H39       1.0  0.5784897646130533  0.674587013911683  0.5242859900559014  1.0000
  H   H40       1.0  0.4215101017198748  0.32541216881430285  0.4757144412347786  1.0000
  H   H41       1.0  0.871028108992249  0.24740853498249044  0.4124947679625209  1.0000
  H   H42       1.0  0.12897285760880103  0.7525906588576275  0.5875067827128719  1.0000
  H   H43       1.0  0.7198092751857317  0.46253765025030436  0.4909378606972014  1.0000
  H   H44       1.0  0.2801914451863965  0.5374625873982309  0.5090623102997612  1.0000
  C   C1        1.0  0.5608999145333228  0.9374011821815954  0.16135061322244584  1.0000
  C   C2        1.0  0.4390983573238215  0.062600119375233  0.8386505506602263  1.0000
  C   C3        1.0  0.39743433753368157  0.5333050334838771  0.8923605698576155  1.0000
  C   C4        1.0  0.6025668772960773  0.46669306817280876  0.10763709040071491  1.0000
  C   C5        1.0  0.1434563198022261  0.21900591230951955  0.2860250371928856  1.0000
  C   C6        1.0  0.8565455010879999  0.7809943304062796  0.7139755944268488  1.0000
  C   C7        1.0  0.05598421678054424  0.3441335881134007  0.3384151578681838  1.0000
  C   C8        1.0  0.9440162563627724  0.6558677175310663  0.6615862684980983  1.0000
  C   C9        1.0  0.7246600235425333  0.8802137350835221  0.15501226512965624  1.0000
  C   C10       1.0  0.2753380013357755  0.11978862842235567  0.8449894953603947  1.0000
  C   C11       1.0  0.824517560185832  0.9709333851154297  0.1283049909394053  1.0000
  C   C12       1.0  0.1754818114394965  0.029067939649287694  0.8716986098518407  1.0000
  C   C13       1.0  0.9760183318294794  0.9210175175746754  0.12812558484512945  1.0000
  C   C14       1.0  0.023980187006507905  0.07898272203310339  0.871874982430157  1.0000
  C   C15       1.0  0.0744524930046708  0.024872522354634392  0.11189757747732901  1.0000
  C   C16       1.0  0.9255462725601831  0.9751266613509697  0.8881030519525197  1.0000
  C   C17       1.0  0.24209749442818657  0.9702763530804788  0.4947522422210256  1.0000
  C   C18       1.0  0.7579021254258436  0.029723879500799893  0.5052474681531649  1.0000
  C   C19       1.0  0.11466144023535213  0.4654349053985951  0.32339311986125113  1.0000
  C   C20       1.0  0.8853395271156188  0.5345642703008904  0.676606454528333  1.0000
  C   C21       1.0  0.03222661687108543  0.5857908435335729  0.3684737203654365  1.0000
  C   C22       1.0  0.9677752040191409  0.4142093991822193  0.6315269112542978  1.0000
  C   C23       1.0  0.4797239785533236  0.2915998891052992  0.9489176479833432  1.0000
  C   C24       1.0  0.5202758890294703  0.7083992633862974  0.0510794894976598  1.0000
  C   C25       1.0  0.43267668056583375  0.6631011408481198  0.8330419525021924  1.0000
  C   C26       1.0  0.5673240405562154  0.33689907865979046  0.16695624220896826  1.0000
  C   C27       1.0  0.3848577916969944  0.6876498035998392  0.7423112075244094  1.0000
  C   C28       1.0  0.6151415816781451  0.31235147883673864  0.257687781933285  1.0000
  C   C29       1.0  0.2805595708140985  0.9505447933608122  0.5784092190668632  1.0000
  C   C30       1.0  0.7194391950007315  0.049454384297916876  0.4215907516010517  1.0000
  C   C31       1.0  0.7781612838331852  0.7365036998043306  0.1780873755702146  1.0000
  C   C32       1.0  0.2218347859878734  0.263497615805491  0.8219155021146491  1.0000
  C   C33       1.0  0.23134491711727634  0.4083680472298069  0.008335429856224224  1.0000
  C   C34       1.0  0.7686580050409688  0.591632182412617  0.9916636861004733  1.0000
  C   C35       1.0  0.03011951996818851  0.7761066319318174  0.14701002339024435  1.0000
  C   C36       1.0  0.9698786385363081  0.22389043490218086  0.852990269725943  1.0000
  C   C37       1.0  0.4023683090198772  0.8424112611544101  0.591759524950085  1.0000
  C   C38       1.0  0.5976324113522509  0.15758897649413228  0.4082406460468775  1.0000
  C   C39       1.0  0.5096991444523268  0.40929801969653556  0.8901224908702049  1.0000
  C   C40       1.0  0.49030292416665594  0.5907011429295748  0.10987556785634212  1.0000
  C   C41       1.0  0.9315520416183958  0.6842335667277836  0.17061133174026824  1.0000
  C   C42       1.0  0.06844427543148165  0.31576668088610654  0.8293902905752832  1.0000
  C   C43       1.0  0.2545092096937083  0.5309239190326237  0.9527579580131873  1.0000
  C   C44       1.0  0.7454915114283409  0.46907630047528653  0.047240236697966495  1.0000
  C   C45       1.0  0.8886173307382709  0.5853462023235634  0.4277940062040743  1.0000
  C   C46       1.0  0.11138473663085338  0.4146529905369362  0.5722073463321494  1.0000
  C   C47       1.0  0.43871292421877683  0.78626646432442  0.4359681706670744  1.0000
  C   C48       1.0  0.5612860880749437  0.2137316634790096  0.56403252091733  1.0000
  C   C49       1.0  0.4444215259487123  0.812452705369935  0.6818409146922663  1.0000
  C   C50       1.0  0.555578093905318  0.18754752721134335  0.3181587956819243  1.0000
  C   C51       1.0  0.4820545916691615  0.7596004245403377  0.5178804779318542  1.0000
  C   C52       1.0  0.5179441741456686  0.24039875311839137  0.4821194927360539  1.0000
  C   C53       1.0  0.9143508951220556  0.3430473325329827  0.4000796900605578  1.0000
  C   C54       1.0  0.08565007172897054  0.65695185526026  0.5999212018528937  1.0000
  C   C55       1.0  0.8303896144075935  0.46436485188994664  0.44356255592292393  1.0000
  C   C56       1.0  0.1696122064826326  0.5356353908258527  0.5564380756968108  1.0000
  C   C57       1.0  0.09293753897060951  0.7164219505380841  0.3526499993063226  1.0000
  C   C58       1.0  0.9070634273804714  0.28357724934891587  0.6473522101309969  1.0000
  N   N1        1.0  0.3425851508147773  0.2911283118056218  0.007379586626051107  1.0000
  N   N2        1.0  0.65741556980732  0.7088719197960457  0.9926199256089706  1.0000
  N   N3        1.0  0.31967709138415074  0.8896783372150587  0.4245203544319623  1.0000
  N   N4        1.0  0.6803225284698796  0.11032189536621927  0.5754793559422282  1.0000
  O   O1        1.0  0.527517628111447  0.0366398084177391  0.10089459618939858  1.0000
  O   O2        1.0  0.47248284503186977  0.9633614972267278  0.8991068301768764  1.0000
  O   O3        1.0  0.4678685687571971  0.8833135441875225  0.22636546272767083  1.0000
  O   O4        1.0  0.5321286028318185  0.11668774625517386  0.7736345817702955  1.0000
  O   O5        1.0  0.11467474966250528  0.09862127957071458  0.3187697034630759  1.0000
  O   O6        1.0  0.8853281722457634  0.9013789561185844  0.6812300712555627  1.0000
  O   O7        1.0  0.24148965552785037  0.24277238163578113  0.21146972595172295  1.0000
  O   O8        1.0  0.7585124128411638  0.7572267870372114  0.7885289915367651  1.0000
  O   O9        1.0  0.2264294415238766  0.713256129359024  0.2968928730393402  1.0000
  O   O10       1.0  0.7735715253271493  0.28674305843421877  0.7031080188741116  1.0000
  O   O11       1.0  0.015803037736994072  0.8248397395586264  0.39199578520365463  1.0000
  O   O12       1.0  0.9841996371924394  0.17516155807972206  0.6080045861223555  1.0000
  O   O13       1.0  0.21349233102374401  0.9708596854316979  0.11668999531344332  1.0000
  O   O14       1.0  0.786506435541  0.029139474086399296  0.8833079990686558  1.0000
  O   O15       1.0  0.024417869443780715  0.15448211773863815  0.09781960394610682  1.0000
  O   O16       1.0  0.9755808963710491  0.8455170599200911  0.9021803667218081  1.0000
