data_image0
_chemical_formula_structural       CuSiH24C28N4F6
_chemical_formula_sum              "Cu1 Si1 H24 C28 N4 F6"
_cell_length_a       8.016094995855353
_cell_length_b       13.723610877591817
_cell_length_c       13.723324336009071
_cell_angle_alpha    90.01349060993253
_cell_angle_beta     89.86125088908318
_cell_angle_gamma    89.86180361806504

_space_group_name_H-M_alt    "P 1"
_space_group_IT_number       1

loop_
  _space_group_symop_operation_xyz
  'x, y, z'

loop_
  _atom_site_type_symbol
  _atom_site_label
  _atom_site_symmetry_multiplicity
  _atom_site_fract_x
  _atom_site_fract_y
  _atom_site_fract_z
  _atom_site_occupancy
  Cu  Cu1       1.0  0.5000146311943255  0.5000062237469011  0.4999926734666217  1.0000
  Si  Si1       1.0  1.8584800159300357e-05  0.49999871680396524  0.500002603444976  1.0000
  H   H1        1.0  0.24147001758982617  0.6580602542958687  0.4999429361742997  1.0000
  H   H2        1.0  0.237500209865992  0.8397937717041446  0.5000233620767958  1.0000
  H   H3        1.0  0.760108678009651  0.6532105205075  0.4999484926306365  1.0000
  H   H4        1.0  0.23989597988672534  0.3467858957139925  0.49988748884654644  1.0000
  H   H5        1.0  0.7585366055453376  0.3419354620070367  0.5001473555901227  1.0000
  H   H6        1.0  0.7625075207289314  0.16020340893715712  0.500132510910312  1.0000
  H   H7        1.0  0.24148243078789025  0.49994263607545975  0.6580652965642313  1.0000
  H   H8        1.0  0.2375113013984702  0.4999436235957262  0.8397960541306588  1.0000
  H   H9        1.0  0.7601132855021009  0.5001245392596944  0.6532125699529985  1.0000
  H   H10       1.0  0.23991563712213093  0.500035830650326  0.3467880971697497  1.0000
  H   H11       1.0  0.7585557564884555  0.4999597778154197  0.341937519555529  1.0000
  H   H12       1.0  0.7625319744281641  0.4999128802443025  0.16020529560432809  1.0000
  H   H13       1.0  0.8997657164889787  0.8223217304777963  0.5642747683389189  1.0000
  H   H14       1.0  0.8194785915544645  0.9253257076813525  0.4997969641642043  1.0000
  H   H15       1.0  0.9002817102589377  0.8219614947697165  0.4358556741710657  1.0000
  H   H16       1.0  0.10004229094969472  0.1776237766851381  0.5643968433856655  1.0000
  H   H17       1.0  0.18053304818722887  0.0746684756897409  0.49968487028442604  1.0000
  H   H18       1.0  0.09992659974899001  0.1780851951803513  0.4359739178311628  1.0000
  H   H19       1.0  0.899956399704486  0.435591427281949  0.8223610727117432  1.0000
  H   H20       1.0  0.819487784407649  0.5002916061097835  0.9253274783017814  1.0000
  H   H21       1.0  0.9001117883827592  0.5640116454966561  0.8219185625658625  1.0000
  H   H22       1.0  0.10024695757172712  0.4357367446336085  0.1776628292364322  1.0000
  H   H23       1.0  0.180557869337008  0.5002265293287635  0.074668118653932  1.0000
  H   H24       1.0  0.09976564624640362  0.5641575058158496  0.1780463683937512  1.0000
  C   C1        1.0  0.3567710140233801  0.6998491316021359  0.4999806303191647  1.0000
  C   C2        1.0  0.3558949777160053  0.8007008305197731  0.5000026663648995  1.0000
  C   C3        1.0  0.5076891108423994  0.8525577572942282  0.5000436282071234  1.0000
  C   C4        1.0  0.6588343571590157  0.7990375380007821  0.500025925196418  1.0000
  C   C5        1.0  0.6470824810595347  0.6974142544874908  0.4999601960400354  1.0000
  C   C6        1.0  0.5046752641982979  0.9556071688646242  0.5000783554951838  1.0000
  C   C7        1.0  0.49533373214133297  0.04438782409952321  0.5000709581616434  1.0000
  C   C8        1.0  0.4923112596280533  0.1474423357561747  0.5000495832125367  1.0000
  C   C9        1.0  0.3411649971812595  0.2009603568824758  0.4999587123187793  1.0000
  C   C10       1.0  0.35293072206837195  0.3025821663773199  0.49996540793591737  1.0000
  C   C11       1.0  0.6432469293582131  0.3001378284950533  0.5000739468008817  1.0000
  C   C12       1.0  0.6441116165022366  0.19929561602894103  0.5001007418716483  1.0000
  C   C13       1.0  0.3567718321011598  0.4999901349938085  0.6998561886407301  1.0000
  C   C14       1.0  0.3559063268467284  0.4999567802377101  0.8006997808192793  1.0000
  C   C15       1.0  0.5077100589056512  0.4999770301364279  0.8525558966354865  1.0000
  C   C16       1.0  0.6588580693979936  0.5000486485372093  0.7990283130394928  1.0000
  C   C17       1.0  0.6470881545060438  0.5000557684804577  0.6974095196145385  1.0000
  C   C18       1.0  0.5046767882866378  0.4999410808097552  0.95561111765533  1.0000
  C   C19       1.0  0.495365223395794  0.499927082230549  0.0443865909134757  1.0000
  C   C20       1.0  0.4923368351062366  0.49994286518475667  0.14744181463520784  1.0000
  C   C21       1.0  0.34118489261486934  0.4999645192585192  0.20096722598053415  1.0000
  C   C22       1.0  0.3529384627052039  0.5000193477557531  0.30258530953045687  1.0000
  C   C23       1.0  0.6432575241319399  0.49995746297912547  0.30014882509168217  1.0000
  C   C24       1.0  0.6441393408246655  0.4999441715112027  0.19930667331144034  1.0000
  C   C25       1.0  0.8282343045806045  0.8455854338580909  0.49999924869646856  1.0000
  C   C26       1.0  0.17179003160390494  0.1544080702332096  0.4999744404588994  1.0000
  C   C27       1.0  0.8282439186501593  0.5000100728436793  0.8455847280835725  1.0000
  C   C28       1.0  0.17179402909619063  0.5000118428642112  0.15441373024030008  1.0000
  N   N1        1.0  0.5013475059093511  0.6490623807908734  0.4999685905666169  1.0000
  N   N2        1.0  0.4986668305567293  0.35093550292672393  0.500010206935336  1.0000
  N   N3        1.0  0.5013461560125378  0.500029510463044  0.6490614193998496  1.0000
  N   N4        1.0  0.498686816907629  0.4999843934201422  0.35093777015371325  1.0000
  F   F1        1.0  0.2156004160331619  0.502035719866619  0.5020375848312213  1.0000
  F   F2        1.0  0.7844275926444126  0.49796142855504394  0.49796597834353656  1.0000
  F   F3        1.0  1.5556399958400547e-05  0.5882821447531016  0.41172462382370867  1.0000
  F   F4        1.0  1.1627176256500859e-05  0.4117189391092069  0.5882798618211069  1.0000
  F   F5        1.0  0.9949332745775693  0.5882888352469423  0.5882910360824524  1.0000
  F   F6        1.0  0.005088496651872303  0.4117119604629026  0.4117088884677854  1.0000
