data_image0
_chemical_formula_structural       Al3H9C81O18F36
_chemical_formula_sum              "Al3 H9 C81 O18 F36"
_cell_length_a       4.074117152328426
_cell_length_b       27.87248620117419
_cell_length_c       27.908375396149655
_cell_angle_alpha    59.99594297865954
_cell_angle_beta     89.81120052271909
_cell_angle_gamma    89.57715243131477

_space_group_name_H-M_alt    "P 1"
_space_group_IT_number       1

loop_
  _space_group_symop_operation_xyz
  'x, y, z'

loop_
  _atom_site_type_symbol
  _atom_site_label
  _atom_site_symmetry_multiplicity
  _atom_site_fract_x
  _atom_site_fract_y
  _atom_site_fract_z
  _atom_site_occupancy
  Al  Al1       1.0  0.9988918634577075  0.499920197329658  0.49989724325478585  1.0000
  Al  Al2       1.0  0.966119307043904  0.8331203440939347  0.8331491818384505  1.0000
  Al  Al3       1.0  0.04327190617011921  0.16655365249970797  0.16640873589145846  1.0000
  H   H1        1.0  0.5101150144339145  0.07722907598171949  0.9225385041379609  1.0000
  H   H2        1.0  0.4636350661930281  0.25517275451807103  0.8333055726251146  1.0000
  H   H3        1.0  0.5565482221940813  0.16620677945474674  0.7449041818171551  1.0000
  H   H4        1.0  0.51052541479973  0.49993767793277033  0.07756697832152064  1.0000
  H   H5        1.0  0.5586332984065975  0.5887380293621618  0.16647494774367969  1.0000
  H   H6        1.0  0.46084665675945763  0.41152572480675087  0.255217154070607  1.0000
  H   H7        1.0  0.4906960871889367  0.9228974377034405  0.4996988403121491  1.0000
  H   H8        1.0  0.4367188061046646  0.8338373784250379  0.41113354499958615  1.0000
  H   H9        1.0  0.5324997500123559  0.7448810625804325  0.5882471670340832  1.0000
  C   C1        1.0  0.4943064448623532  0.5732110159243644  0.4998047327589957  1.0000
  C   C2        1.0  0.5013125944339051  0.4267013473586728  0.5730699503802299  1.0000
  C   C3        1.0  0.5010109392711115  0.4999939958125664  0.4266931439568039  1.0000
  C   C4        1.0  0.46413816084852033  0.9062966764881749  0.832956560725627  1.0000
  C   C5        1.0  0.46968371541776577  0.7602325034296626  0.9063844714488952  1.0000
  C   C6        1.0  0.468649343382161  0.8326751422186477  0.7603835596439836  1.0000
  C   C7        1.0  0.5438937618271495  0.1670880705211886  0.09318107264289202  1.0000
  C   C8        1.0  0.5383080227974162  0.2393105079343556  0.16713454843633707  1.0000
  C   C9        1.0  0.5429635687546507  0.09336382223130363  0.23927788582165016  1.0000
  C   C10       1.0  0.5009017044762913  0.16625869307297572  0.8839960783839019  1.0000
  C   C11       1.0  0.5101917419550187  0.11612798897532892  0.8836562339013695  1.0000
  C   C12       1.0  0.519426698471065  0.11566415098467081  0.8336634412323463  1.0000
  C   C13       1.0  0.5305685809020417  0.1661232451526543  0.7836757075284524  1.0000
  C   C14       1.0  0.510098254784637  0.21655445234130605  0.7832408173954377  1.0000
  C   C15       1.0  0.48988508254834073  0.21627212891744554  0.8335215491102872  1.0000
  C   C16       1.0  0.6425814085549323  0.9638527534696449  0.8750447556818485  1.0000
  C   C17       1.0  0.6631836088411233  0.0140121707582138  0.8744214794218266  1.0000
  C   C18       1.0  0.5094272945319032  0.06263831144242006  0.8335518117636838  1.0000
  C   C19       1.0  0.33506832521914726  0.057337310335249324  0.793007929925011  1.0000
  C   C20       1.0  0.31940266629896297  0.007485568657372472  0.7929306605992111  1.0000
  C   C21       1.0  0.47302996322499513  0.9598233497615638  0.8339478515413176  1.0000
  C   C22       1.0  0.3532361013552503  0.1256801411981598  0.98517421377651  1.0000
  C   C23       1.0  0.36986547568010764  0.12521600049079498  0.03523903234570717  1.0000
  C   C24       1.0  0.5364516758094454  0.1663397428034941  0.03957374384807369  1.0000
  C   C25       1.0  0.6906915708210803  0.20730699905981695  0.992278044626886  1.0000
  C   C26       1.0  0.6790043368319871  0.2070711662607109  0.9425286466429839  1.0000
  C   C27       1.0  0.5080048585416393  0.16646190381146642  0.9369307948653044  1.0000
  C   C28       1.0  0.6720655185835156  0.3167524303822587  0.7232964946258846  1.0000
  C   C29       1.0  0.6710368345765332  0.3667997151407933  0.6734905228601774  1.0000
  C   C30       1.0  0.503819494421009  0.3731132334277729  0.6266584615186943  1.0000
  C   C31       1.0  0.3393594418088952  0.32605015478854676  0.633176502043689  1.0000
  C   C32       1.0  0.342947888526922  0.27622331271823686  0.6831974281096719  1.0000
  C   C33       1.0  0.5086655721152341  0.26953917411773887  0.7302051813763626  1.0000
  C   C34       1.0  0.5214301341196403  0.5504692597667784  0.11595930359663939  1.0000
  C   C35       1.0  0.5103807128720917  0.4999709654362618  0.11642063605280127  1.0000
  C   C36       1.0  0.4989670770941713  0.4495375111283408  0.16647208964421614  1.0000
  C   C37       1.0  0.4882529650893945  0.450120922936712  0.21639002349561298  1.0000
  C   C38       1.0  0.5099250506327734  0.5001330372467976  0.2166753382055545  1.0000
  C   C39       1.0  0.5318664623144258  0.5500683160260138  0.16635521831068448  1.0000
  C   C40       1.0  0.361318146186548  0.33942753196996023  0.12558464433283933  1.0000
  C   C41       1.0  0.34669401728512383  0.38915805292140954  0.12598381105264878  1.0000
  C   C42       1.0  0.5038798985670923  0.3962903044289163  0.16674151742842708  1.0000
  C   C43       1.0  0.6749302214704257  0.3496591730878151  0.20742192337085893  1.0000
  C   C44       1.0  0.6849128969431248  0.29958492075692783  0.20767835971781773  1.0000
  C   C45       1.0  0.5288358593648469  0.2935923395115978  0.16667954963054396  1.0000
  C   C46       1.0  0.6703172729031834  0.6108313659287319  0.014863321250778808  1.0000
  C   C47       1.0  0.6515132738640829  0.6603694005203309  0.9646697959445233  1.0000
  C   C48       1.0  0.48040112809054847  0.7059243617009369  0.9601061314415418  1.0000
  C   C49       1.0  0.3246937525732747  0.6998262102926135  0.007301570026832674  1.0000
  C   C50       1.0  0.3389026188611765  0.649929780930627  0.05719119748560782  1.0000
  C   C51       1.0  0.5138472097449736  0.6036169082385852  0.06296320705610715  1.0000
  C   C52       1.0  0.3405630943295108  0.5406334722085404  0.27625512275439934  1.0000
  C   C53       1.0  0.33694670563092904  0.5407943506019564  0.3260605247146912  1.0000
  C   C54       1.0  0.5037110941388646  0.5000900759654741  0.37309315950466265  1.0000
  C   C55       1.0  0.6735189926195062  0.4594971208855013  0.36677027480963165  1.0000
  C   C56       1.0  0.6744690468284845  0.45976047780153806  0.31675432430401423  1.0000
  C   C57       1.0  0.5084776929424208  0.5001872031634207  0.2696177379222816  1.0000
  C   C58       1.0  0.4774684952010445  0.8843763134356593  0.4493160902403091  1.0000
  C   C59       1.0  0.4886654998481462  0.883960247393027  0.49973023069006217  1.0000
  C   C60       1.0  0.4980599744256723  0.8338333869110031  0.5501475989804875  1.0000
  C   C61       1.0  0.5063086896838698  0.7837920452707008  0.5496398392854047  1.0000
  C   C62       1.0  0.48393113946563204  0.7835063934839184  0.49969769311906714  1.0000
  C   C63       1.0  0.463884353409547  0.8339174417311525  0.4497758269859912  1.0000
  C   C64       1.0  0.6405653195332518  0.8744478841997817  0.6603278780167016  1.0000
  C   C65       1.0  0.6527004448449388  0.8741887624278206  0.6105799378388779  1.0000
  C   C66       1.0  0.4949210191289239  0.8335684179714774  0.6033309086769801  1.0000
  C   C67       1.0  0.32573318008382307  0.7929021326347864  0.6498794968784479  1.0000
  C   C68       1.0  0.31888583203073745  0.7924435856542259  0.6999976065764384  1.0000
  C   C69       1.0  0.4754838208934869  0.8333077162624672  0.7060886511114147  1.0000
  C   C70       1.0  0.33602288297056765  0.9860748535591101  0.3883609692358616  1.0000
  C   C71       1.0  0.3588666699726843  0.036161641308723284  0.3388175311921344  1.0000
  C   C72       1.0  0.5306283272870616  0.039940306539193664  0.2938191045817788  1.0000
  C   C73       1.0  0.6834893286931703  0.9921162375442165  0.3005422709993508  1.0000
  C   C74       1.0  0.6653163838203326  0.9423398424766063  0.35045438029209897  1.0000
  C   C75       1.0  0.48909374816777523  0.9373133034209931  0.3961772154756673  1.0000
  C   C76       1.0  0.6512858118988661  0.7237530663866211  0.4592915249892967  1.0000
  C   C77       1.0  0.655426457055249  0.6738953995084316  0.4591078433023909  1.0000
  C   C78       1.0  0.4900772285094348  0.626891620271948  0.49968044086793373  1.0000
  C   C79       1.0  0.3211681661043784  0.6333151993939906  0.5401660835905914  1.0000
  C   C80       1.0  0.3197827536960673  0.683401444336475  0.5399202219652394  1.0000
  C   C81       1.0  0.4843236451501198  0.7305204360245128  0.499614765881411  1.0000
  O   O1        1.0  0.7371337584726873  0.47528674337822  0.45989523945532074  1.0000
  O   O2        1.0  0.7319490481140322  0.5647606934176537  0.4752637099762467  1.0000
  O   O3        1.0  0.735726745391645  0.4599046257126459  0.5645270295035799  1.0000
  O   O4        1.0  0.2628746877700507  0.5245721080383063  0.4351280951934696  1.0000
  O   O5        1.0  0.26533557831629656  0.43510517415963085  0.5400263702346065  1.0000
  O   O6        1.0  0.2598713743173491  0.5399573164072181  0.5245075528237207  1.0000
  O   O7        1.0  0.7038009108514486  0.8078691216675367  0.7934560386275605  1.0000
  O   O8        1.0  0.698426653404546  0.8979340722414193  0.8079588107094081  1.0000
  O   O9        1.0  0.702160529391243  0.7935443109514182  0.897910944954539  1.0000
  O   O10       1.0  0.2283936356874818  0.8569194587290097  0.7683820747038155  1.0000
  O   O11       1.0  0.23047488487510043  0.7680950557065598  0.8743584215587887  1.0000
  O   O12       1.0  0.22513308079727776  0.8743202731619276  0.8569735381447784  1.0000
  O   O13       1.0  0.7823884981958855  0.12515796002003296  0.2314583907667682  1.0000
  O   O14       1.0  0.7838279504154854  0.1428883236878633  0.12523849781677396  1.0000
  O   O15       1.0  0.7782011341544078  0.23140487616240077  0.14287371311166197  1.0000
  O   O16       1.0  0.31077763353088966  0.10182970190189876  0.20575007471442316  1.0000
  O   O17       1.0  0.3049186572088657  0.2061227981815321  0.19182795456668336  1.0000
  O   O18       1.0  0.30838402106090257  0.19196612540004304  0.10154900309517957  1.0000
  F   F1        1.0  0.14945147161895994  0.005494315942975348  0.752440921008933  1.0000
  F   F2        1.0  0.7941079531961179  0.9186611783623702  0.9159173202547918  1.0000
  F   F3        1.0  0.16520639201742426  0.10092240177386476  0.7529518496810111  1.0000
  F   F4        1.0  0.8461456303417093  0.014741973671547736  0.9145822508018995  1.0000
  F   F5        1.0  0.21747082691312866  0.08443049200798211  0.08004473533309658  1.0000
  F   F6        1.0  0.1728478799366684  0.08548536428384766  0.9841532925964246  1.0000
  F   F7        1.0  0.8573532345347131  0.2478994929622188  0.9945243703469798  1.0000
  F   F8        1.0  0.8493029435058972  0.24709179694180236  0.8993498401479272  1.0000
  F   F9        1.0  0.8481384580812659  0.3144194049397271  0.7656001117610317  1.0000
  F   F10       1.0  0.8355154423958382  0.4090867440932867  0.6723379276151177  1.0000
  F   F11       1.0  0.16890130233987583  0.23372379911864255  0.6857011677447247  1.0000
  F   F12       1.0  0.17299868065169483  0.32700523584075103  0.5910955674319139  1.0000
  F   F13       1.0  0.8522089195159311  0.2563513743303928  0.2482483563667017  1.0000
  F   F14       1.0  0.20669990058516421  0.3357049988980448  0.08482697572103591  1.0000
  F   F15       1.0  0.8470452116611468  0.3525049737775063  0.24742933557272542  1.0000
  F   F16       1.0  0.1661774844333053  0.43086697121177053  0.08576263546920865  1.0000
  F   F17       1.0  0.8053687320947347  0.6641757559593556  0.9199544375363189  1.0000
  F   F18       1.0  0.8537816440378876  0.5693710737380542  0.016181898037828418  1.0000
  F   F19       1.0  0.15335028974897827  0.7427516472821695  0.004778300659239551  1.0000
  F   F20       1.0  0.16678688665486874  0.6468869258147265  0.10028922386837973  1.0000
  F   F21       1.0  0.1644605242796828  0.5807307901017963  0.23371637431458217  1.0000
  F   F22       1.0  0.1682873860307055  0.5820198368000291  0.32703447589114626  1.0000
  F   F23       1.0  0.852609580681701  0.4196952522371759  0.3143631802069036  1.0000
  F   F24       1.0  0.8405927307478294  0.4182681219441092  0.409021215943568  1.0000
  F   F25       1.0  0.153645352570571  0.7518485643272185  0.7431452530232717  1.0000
  F   F26       1.0  0.7953051297880833  0.9151416944041627  0.664100276948936  1.0000
  F   F27       1.0  0.15265011841260898  0.7530537770011706  0.6469795077079112  1.0000
  F   F28       1.0  0.83154123390149  0.9144176636911396  0.5689747188969532  1.0000
  F   F29       1.0  0.20806410352634688  0.08151882344524351  0.3344164976601931  1.0000
  F   F30       1.0  0.1518518481106241  0.9855377089462605  0.4292079315697063  1.0000
  F   F31       1.0  0.8555863016421126  0.9939150560486141  0.25817593116224175  1.0000
  F   F32       1.0  0.8348093842757365  0.8985764704321966  0.35411836382976924  1.0000
  F   F33       1.0  0.8265246795164528  0.7661843246259109  0.41933743966696096  1.0000
  F   F34       1.0  0.823390088233566  0.6728324531164843  0.4180148511395103  1.0000
  F   F35       1.0  0.14283379845063135  0.6858619932107787  0.5799094004146708  1.0000
  F   F36       1.0  0.1556739451791174  0.591084988419084  0.581302145133236  1.0000
