data_image0
_chemical_formula_structural       Zn2H24C20S4N16
_chemical_formula_sum              "Zn2 H24 C20 S4 N16"
_cell_length_a       5.758912749688034
_cell_length_b       8.38218635879548
_cell_length_c       18.035079250160095
_cell_angle_alpha    98.99640129797255
_cell_angle_beta     90.02597643130837
_cell_angle_gamma    110.0563045120349

_space_group_name_H-M_alt    "P 1"
_space_group_IT_number       1

loop_
  _space_group_symop_operation_xyz
  'x, y, z'

loop_
  _atom_site_type_symbol
  _atom_site_label
  _atom_site_symmetry_multiplicity
  _atom_site_fract_x
  _atom_site_fract_y
  _atom_site_fract_z
  _atom_site_occupancy
  Zn  Zn1       1.0  0.2941396145115647  0.0003482523535964985  0.24962093518531966  1.0000
  Zn  Zn2       1.0  0.7058989392479519  0.9996512575114949  0.7503750266683583  1.0000
  H   H1        1.0  0.21619809586809421  0.3700497137155666  0.2216147149299631  1.0000
  H   H2        1.0  0.8486674020293351  0.6304145946575944  0.27813014319119844  1.0000
  H   H3        1.0  0.7838208399132185  0.6299626854647684  0.7783817014900762  1.0000
  H   H4        1.0  0.15135930913527323  0.3695786012311403  0.7218608903707846  1.0000
  H   H5        1.0  0.009330981926517315  0.07678658431113662  0.3965056858615412  1.0000
  H   H6        1.0  0.9300953169721068  0.9231823903278454  0.10317872643199882  1.0000
  H   H7        1.0  0.9907091640607459  0.9232091742815741  0.6034861011017654  1.0000
  H   H8        1.0  0.06987072098369401  0.07683880370799301  0.8968255912341903  1.0000
  H   H9        1.0  0.5918083536856217  0.3165651474876655  0.39870573761867695  1.0000
  H   H10       1.0  0.27336284830138885  0.6813778464972559  0.10167626734770613  1.0000
  H   H11       1.0  0.4081991452890535  0.6834173107602981  0.6012994308706326  1.0000
  H   H12       1.0  0.7265905188084147  0.3186352986979487  0.89833851305243  1.0000
  H   H13       1.0  0.720519091795296  0.2153637618495168  0.4584138180811196  1.0000
  H   H14       1.0  0.5018111262057446  0.7837694759862688  0.04191541064852093  1.0000
  H   H15       1.0  0.2794945321683572  0.7845997002104073  0.5415787751681835  1.0000
  H   H16       1.0  0.4981316000836671  0.2162502014565675  0.9580965541150377  1.0000
  H   H17       1.0  0.9241760784086139  0.5988729782985799  0.4447565423983164  1.0000
  H   H18       1.0  0.32609728567966567  0.4001273693920596  0.05512030982384183  1.0000
  H   H19       1.0  0.07586898771204179  0.401097738907822  0.5552532500962357  1.0000
  H   H20       1.0  0.6738636668701687  0.5998975272318319  0.9448898428338168  1.0000
  H   H21       1.0  0.7423946565053184  0.5093142168567157  0.5173399306005706  1.0000
  H   H22       1.0  0.23244921246615757  0.4896741436849582  0.9827412318106213  1.0000
  H   H23       1.0  0.2576191022075776  0.4906425030554971  0.4826626716734382  1.0000
  H   H24       1.0  0.7674728185783477  0.5103492806357084  0.017274909424443825  1.0000
  C   C1        1.0  0.13129578734265834  0.32189562365086744  0.2711820588026442  1.0000
  C   C2        1.0  0.8108105621085925  0.6784571753521574  0.22864075911218865  1.0000
  C   C3        1.0  0.8687251458741584  0.6781103370549602  0.7288138543454467  1.0000
  C   C4        1.0  0.1891971904490291  0.32153976781391697  0.7713544507775654  1.0000
  C   C5        1.0  0.033235349214301414  0.172092204597206  0.3598774767233621  1.0000
  C   C6        1.0  0.8597382850015548  0.8279540742811093  0.13989251544888504  1.0000
  C   C7        1.0  0.9667796438632195  0.8278983811017471  0.6401144631071816  1.0000
  C   C8        1.0  0.1402401901196555  0.17206073156258134  0.8601096382692789  1.0000
  C   C9        1.0  0.7645164156235539  0.3228409427765655  0.42680865221893083  1.0000
  C   C10       1.0  0.4399306435853846  0.6760985991702314  0.07342739313206442  1.0000
  C   C11       1.0  0.23549817946084067  0.6771314063323859  0.5731890714645405  1.0000
  C   C12       1.0  0.5600220376167114  0.3239236242157943  0.9265858785914959  1.0000
  C   C13       1.0  0.8834652537250776  0.4947314761211672  0.47833768849987024  1.0000
  C   C14       1.0  0.3884986725138475  0.5046177333517363  0.021697321129039413  1.0000
  C   C15       1.0  0.1165562583477069  0.5052303328808776  0.5216675287003413  1.0000
  C   C16       1.0  0.6114414403809008  0.495407158478095  0.9783128332534972  1.0000
  C   C17       1.0  0.6497195311246601  0.1322870102882518  0.12582951989679  1.0000
  C   C18       1.0  0.5182491266651469  0.868100581119542  0.37336162927795163  1.0000
  C   C19       1.0  0.3502819713556705  0.8677461650331894  0.8741624219301799  1.0000
  C   C20       1.0  0.4817756539857002  0.1318782731075459  0.6266343835864703  1.0000
  S   S1        1.0  0.8521376871409031  0.19308023596904186  0.0651294481491078  1.0000
  S   S2        1.0  0.658677451629103  0.8068510937451663  0.4342842967021384  1.0000
  S   S3        1.0  0.14788207625674232  0.8069721167130199  0.9348689809222325  1.0000
  S   S4        1.0  0.3413320785864542  0.19308678719971084  0.5657001984822402  1.0000
  N   N1        1.0  0.1639332435336058  0.18642412698823563  0.29822104831878704  1.0000
  N   N2        1.0  0.977558750094481  0.8140495704980709  0.20140037506322273  1.0000
  N   N3        1.0  0.8360940269098693  0.8135806271898789  0.7017719973301624  1.0000
  N   N4        1.0  0.022444180881571216  0.18595511423988145  0.7985948856829168  1.0000
  N   N5        1.0  0.9881302311986744  0.3899193311414138  0.3127810382861682  1.0000
  N   N6        1.0  0.5991168370246314  0.6099094709601474  0.1873001613467622  1.0000
  N   N7        1.0  0.011880325602653783  0.6100762610419679  0.6872162838327898  1.0000
  N   N8        1.0  0.4008797102858993  0.3900963085730994  0.812701839796965  1.0000
  N   N9        1.0  0.9269338195591742  0.2922792738781937  0.36842911519612903  1.0000
  N   N10       1.0  0.6337875470862857  0.7073827719731015  0.13163063686736365  1.0000
  N   N11       1.0  0.07307163708166795  0.7077061105989984  0.6315640827504085  1.0000
  N   N12       1.0  0.3661869566736017  0.2926344968088587  0.8683755913167702  1.0000
  N   N13       1.0  0.502832243508017  0.08386696148709664  0.17088352545513175  1.0000
  N   N14       1.0  0.420512333956701  0.9168733329411581  0.32819957092068114  1.0000
  N   N15       1.0  0.49715895553217865  0.9161560208914069  0.8291037393594324  1.0000
  N   N16       1.0  0.5795311158460166  0.08313248930226541  0.6718013197996484  1.0000
