data_image0
_chemical_formula_structural       H20Pb2C28N4O22
_chemical_formula_sum              "H20 Pb2 C28 N4 O22"
_cell_length_a       4.934865816580592
_cell_length_b       12.05932422286718
_cell_length_c       14.663106776682312
_cell_angle_alpha    67.90862740265791
_cell_angle_beta     86.44178802068845
_cell_angle_gamma    78.71210964724987

_space_group_name_H-M_alt    "P 1"
_space_group_IT_number       1

loop_
  _space_group_symop_operation_xyz
  'x, y, z'

loop_
  _atom_site_type_symbol
  _atom_site_label
  _atom_site_symmetry_multiplicity
  _atom_site_fract_x
  _atom_site_fract_y
  _atom_site_fract_z
  _atom_site_occupancy
  H   H1        1.0  0.9804508750569239  0.8906400954603338  0.493307520598407  1.0000
  H   H2        1.0  0.0195517706982429  0.10935939252402697  0.5066927868251911  1.0000
  H   H3        1.0  0.37473988071388226  0.9295587937387491  0.27658439373232113  1.0000
  H   H4        1.0  0.6252555102374301  0.0704434224175898  0.7234152262918344  1.0000
  H   H5        1.0  0.3032130376810044  0.6003866783886309  0.4869716390846791  1.0000
  H   H6        1.0  0.6967818794287909  0.39961190156926574  0.5130270601193915  1.0000
  H   H7        1.0  0.5893015714277821  0.7259898301611755  0.2765312028359476  1.0000
  H   H8        1.0  0.4106828063269884  0.274009638339642  0.7234708508638122  1.0000
  H   H9        1.0  0.08656527258582258  0.3049299365711774  0.8636090875610238  1.0000
  H   H10       1.0  0.9134401809954226  0.6950677370553393  0.13639035458869142  1.0000
  H   H11       1.0  0.29981113406959264  0.4145220927552132  0.04061335115984125  1.0000
  H   H12       1.0  0.7001890938982172  0.5854783075845446  0.9593860442237204  1.0000
  H   H13       1.0  0.6009724078993698  0.0810559203681649  0.08471423426001931  1.0000
  H   H14       1.0  0.39902984973946315  0.9189444814776022  0.9152851188499441  1.0000
  H   H15       1.0  0.7238115117804327  0.16952385861752356  0.20387142243679085  1.0000
  H   H16       1.0  0.27619355320388184  0.8304747259056597  0.7961277483061836  1.0000
  H   H17       1.0  0.6990370840976895  0.5586911548185256  0.24801919706523293  1.0000
  H   H18       1.0  0.30095908404747723  0.4413092395444805  0.7519809657724114  1.0000
  H   H19       1.0  0.5837884092964956  0.5621485787056457  0.14739611732761665  1.0000
  H   H20       1.0  0.4162114295937938  0.43785272956604615  0.852603689556091  1.0000
  Pb  Pb1       1.0  0.389495185346405  0.3688123828569373  0.32093361462094094  1.0000
  Pb  Pb2       1.0  0.6104952819020325  0.6311870931266411  0.6790676293511384  1.0000
  C   C1        1.0  0.9071506909863342  0.6931470499073595  0.3825366284751794  1.0000
  C   C2        1.0  0.09283735799414929  0.3068533354668758  0.6174643863637501  1.0000
  C   C3        1.0  0.015127264383075082  0.7384230373969272  0.4466594040366163  1.0000
  C   C4        1.0  0.9848635919428828  0.26157553065472433  0.5533414284353171  1.0000
  C   C5        1.0  0.8939406840162504  0.853227890231011  0.4473247604653567  1.0000
  C   C6        1.0  0.10605954299036571  0.1467725041792676  0.5526760007319851  1.0000
  C   C7        1.0  0.6696855515938934  0.9195792584853562  0.38455490698539313  1.0000
  C   C8        1.0  0.33031100370641997  0.08042021608676458  0.6154475759796726  1.0000
  C   C9        1.0  0.5514491669833175  0.8756044092598074  0.3239408306204298  1.0000
  C   C10       1.0  0.4485429398974219  0.12439597023222147  0.6760621483919708  1.0000
  C   C11       1.0  0.6732371325498434  0.7616194213061644  0.3244286787716393  1.0000
  C   C12       1.0  0.32674927439535395  0.2383800457359158  0.6755740155614166  1.0000
  C   C13       1.0  0.05600092445232004  0.5785386559049854  0.37283904567600973  1.0000
  C   C14       1.0  0.9439932145024271  0.42146173991675784  0.6271604765283457  1.0000
  C   C15       1.0  0.9728035118060773  0.28517297432564  0.10186677925280214  1.0000
  C   C16       1.0  0.027203581407476907  0.7148256028093342  0.8981343979372413  1.0000
  C   C17       1.0  0.08371475513072106  0.3226936109360494  0.005777409363560143  1.0000
  C   C18       1.0  0.916294368234446  0.677304970669674  0.9942230426459918  1.0000
  C   C19       1.0  0.011607347137953576  0.2760417718709718  0.9385612161524438  1.0000
  C   C20       1.0  0.9884038058982368  0.723956811240754  0.06143919358351719  1.0000
  C   C21       1.0  0.837966159741434  0.191415172110652  0.9691389353683422  1.0000
  C   C22       1.0  0.1620392933592142  0.8085824985511253  0.03086118968826668  1.0000
  C   C23       1.0  0.731719781164074  0.14937228515944403  0.06403660862963532  1.0000
  C   C24       1.0  0.2682905946782552  0.8506281197456147  0.9359632582928232  1.0000
  C   C25       1.0  0.8017661771568709  0.19809111045862687  0.12929835618691504  1.0000
  C   C26       1.0  0.19823685863701687  0.8019074755232936  0.8707001739227639  1.0000
  C   C27       1.0  0.04434806747936899  0.333860056414629  0.17465572836807305  1.0000
  C   C28       1.0  0.955656608427418  0.6661394360404814  0.8253438538750404  1.0000
  N   N1        1.0  0.5603250917241168  0.0435396042727945  0.3788001360090193  1.0000
  N   N2        1.0  0.4396771644729326  0.9564607886787542  0.6212012658216113  1.0000
  N   N3        1.0  0.7621888975829305  0.14436962073549608  0.8971851871229364  1.0000
  N   N4        1.0  0.23781664268469171  0.8556326088803627  0.10281285571944218  1.0000
  O   O1        1.0  0.9714420356822442  0.5388532447059758  0.31229814897507424  1.0000
  O   O2        1.0  0.028549685485145988  0.46114806347117093  0.6877004611892377  1.0000
  O   O3        1.0  0.2769165420330281  0.5224354658422427  0.4241893285548388  1.0000
  O   O4        1.0  0.7230764320921208  0.47756766859897937  0.5758080136154933  1.0000
  O   O5        1.0  0.3608573515407443  0.10391859913113421  0.32231924328949196  1.0000
  O   O6        1.0  0.639155919775227  0.8960845533349017  0.6776769932379738  1.0000
  O   O7        1.0  0.6738010711936439  0.086048889170776  0.4285453585120963  1.0000
  O   O8        1.0  0.32619751329709595  0.9139505839426146  0.5714577650862653  1.0000
  O   O9        1.0  0.2366574003652033  0.6749522006759959  0.5053480450378702  1.0000
  O   O10       1.0  0.7633399345319488  0.3250454669264968  0.4946515662062368  1.0000
  O   O11       1.0  0.25081283577016916  0.39172388125394525  0.15311484664359648  1.0000
  O   O12       1.0  0.7491870036007099  0.608277429982479  0.8468842773332173  1.0000
  O   O13       1.0  0.9179700192657235  0.3161685667660379  0.25501809283498034  1.0000
  O   O14       1.0  0.08203862737435234  0.6838263608527838  0.7449855357958344  1.0000
  O   O15       1.0  0.5530445586054711  0.09734336111610992  0.9135480291664921  1.0000
  O   O16       1.0  0.4469657305504812  0.9026524877996066  0.08645323706331008  1.0000
  O   O17       1.0  0.9095874251849737  0.15462033312898876  0.8237474719874244  1.0000
  O   O18       1.0  0.09040727670064529  0.8453882697042516  0.17624815719522507  1.0000
  O   O19       1.0  0.25848219249703414  0.40333498569734866  0.9775047712070661  1.0000
  O   O20       1.0  0.7415269318293197  0.5966636018378466  0.0224943149887125  1.0000
  O   O21       1.0  0.527564613050188  0.559891907297768  0.2137803152357166  1.0000
  O   O22       1.0  0.47243358524660534  0.4401084915359873  0.7862191224214429  1.0000
