data_image0
_chemical_formula_structural       Al6H70C87I4O28
_chemical_formula_sum              "Al6 H70 C87 I4 O28"
_cell_length_a       12.778305559064036
_cell_length_b       12.927382678134602
_cell_length_c       28.328499135764496
_cell_angle_alpha    89.86435279121386
_cell_angle_beta     90.46787366029164
_cell_angle_gamma    117.29295800978923

_space_group_name_H-M_alt    "P 1"
_space_group_IT_number       1

loop_
  _space_group_symop_operation_xyz
  'x, y, z'

loop_
  _atom_site_type_symbol
  _atom_site_label
  _atom_site_symmetry_multiplicity
  _atom_site_fract_x
  _atom_site_fract_y
  _atom_site_fract_z
  _atom_site_occupancy
  Al  Al1       1.0  0.4075421994532675  0.5878483238719454  0.5028718563900654  1.0000
  Al  Al2       1.0  0.651326555432938  0.5728074089455434  0.5011292574691666  1.0000
  Al  Al3       1.0  0.4258419737075414  0.34890768063234384  0.5003864910884913  1.0000
  Al  Al4       1.0  0.9272021834200929  0.07774795653177342  0.00035094419088470014  1.0000
  Al  Al5       1.0  0.9136221732642157  0.31994823037697984  0.9994582803296268  1.0000
  Al  Al6       1.0  0.6859960361308878  0.09845181087994351  0.9994449103887674  1.0000
  H   H1        1.0  0.8861592194184029  0.4034652003747184  0.7707422747201348  1.0000
  H   H2        1.0  0.07340865802081711  0.4517647463257646  0.7813763700380107  1.0000
  H   H3        1.0  0.49167046618449467  0.806786623517894  0.7887307681052957  1.0000
  H   H4        1.0  0.7603102695619484  0.2106780844577685  0.7095765706577949  1.0000
  H   H5        1.0  0.4749089163254397  0.7553432083473625  0.711839943911883  1.0000
  H   H6        1.0  0.7680234536734647  0.0003865116175560899  0.6957421169760634  1.0000
  H   H7        1.0  0.6158570684561724  0.9555983764519735  0.7022923479449403  1.0000
  H   H8        1.0  0.657255316825193  0.007120941715484697  0.7825639270229203  1.0000
  H   H9        1.0  0.8016325004077557  0.024322325271974407  0.7772543125017248  1.0000
  H   H10       1.0  0.7554119834851962  0.7094853177425551  0.7164871319666729  1.0000
  H   H11       1.0  0.8459570944382835  0.8609530779757363  0.7151599948951953  1.0000
  H   H12       1.0  0.0256358211936103  0.12521407859362196  0.7022248350579048  1.0000
  H   H13       1.0  0.7193247887900895  0.7090715170487625  0.7977337068077829  1.0000
  H   H14       1.0  0.7922818779652587  0.5320324108899755  0.7205223767878903  1.0000
  H   H15       1.0  0.4908443858507213  0.21649535032733527  0.20431185351154818  1.0000
  H   H16       1.0  0.47121215137849504  0.24457681529529654  0.28481216112609786  1.0000
  H   H17       1.0  0.7666828071378262  0.2544191061346623  0.3044456868141978  1.0000
  H   H18       1.0  0.6141126647379308  0.1606962048883531  0.2991845539194458  1.0000
  H   H19       1.0  0.6372469665086768  0.1437386574053079  0.21813242210684794  1.0000
  H   H20       1.0  0.7890161496544649  0.241198036225839  0.22314355796864757  1.0000
  H   H21       1.0  0.7432626120812602  0.5302291403799586  0.2835628652959912  1.0000
  H   H22       1.0  0.8435334613161274  0.47379997260105006  0.2938714647165809  1.0000
  H   H23       1.0  0.9811965102149641  0.12876590301952012  0.7818011376057754  1.0000
  H   H24       1.0  0.7573390020846774  0.5116401616277032  0.2021804737133053  1.0000
  H   H25       1.0  0.5983269199129495  0.4481273429337379  0.7838251818495152  1.0000
  H   H26       1.0  0.5266119876952403  0.3961228832861892  0.27559967744979724  1.0000
  H   H27       1.0  0.535639605613305  0.3663901187571099  0.19525509992266876  1.0000
  H   H28       1.0  0.8601129733706259  0.45786519751509064  0.21207073034310037  1.0000
  H   H29       1.0  0.19963749250323562  0.5105593387202702  0.2087832862870513  1.0000
  H   H30       1.0  0.25163512036495217  0.5294696962504163  0.2892532576382223  1.0000
  H   H31       1.0  0.0015864352158985273  0.22763238761563537  0.3038796542504371  1.0000
  H   H32       1.0  0.03684283437259243  0.3764038234353748  0.2991640257707999  1.0000
  H   H33       1.0  0.9955146560528547  0.34788968300212986  0.21795875062054648  1.0000
  H   H34       1.0  0.9294435136596135  0.23243558156236335  0.7709463851051905  1.0000
  H   H35       1.0  0.9728652639157006  0.20258929338464077  0.2221749781201865  1.0000
  H   H36       1.0  0.3055225619903297  0.26494681402490267  0.2851780651514488  1.0000
  H   H37       1.0  0.4728583494078292  0.2559696696732345  0.7226887341066756  1.0000
  H   H38       1.0  0.1553100058765295  0.1639437846752401  0.2892670027203224  1.0000
  H   H39       1.0  0.29293151402435313  0.2803268430308136  0.2033693792935694  1.0000
  H   H40       1.0  0.3595653037048337  0.4831220802633922  0.2785396519633352  1.0000
  H   H41       1.0  0.32014023210819437  0.482754552013688  0.19801476397616105  1.0000
  H   H42       1.0  0.782270864201351  0.7810165046425085  0.20132293006864896  1.0000
  H   H43       1.0  0.7760188266447303  0.7428152853308205  0.281818898635656  1.0000
  H   H44       1.0  0.7222526921235614  0.9999559617969068  0.3073300043177269  1.0000
  H   H45       1.0  0.22351333923470665  0.4996457700740465  0.7017890417055168  1.0000
  H   H46       1.0  0.8331049776925282  0.9545251111391408  0.304421820393884  1.0000
  H   H47       1.0  0.8493455469923745  0.9840849749355558  0.22274555445245167  1.0000
  H   H48       1.0  0.5667557427583746  0.12731775061872952  0.7728525826489729  1.0000
  H   H49       1.0  0.7496976303045672  0.04312542203673789  0.2265245053131579  1.0000
  H   H50       1.0  0.46931120534733156  0.707018155904642  0.2831583861231479  1.0000
  H   H51       1.0  0.5055988750369806  0.850862565545185  0.299879556785001  1.0000
  H   H52       1.0  0.4769225565381563  0.7631738352119587  0.2041960168110393  1.0000
  H   H53       1.0  0.6254871048617261  0.6416479457233424  0.2766058717243922  1.0000
  H   H54       1.0  0.5302069665225204  0.9104828559228081  0.2204584566198236  1.0000
  H   H55       1.0  0.19770205745395236  0.1945544285428014  0.7922620916763776  1.0000
  H   H56       1.0  0.06881664542201807  0.42811509925971347  0.6988262595745098  1.0000
  H   H57       1.0  0.2443688604286791  0.21390132350857272  0.7117486215405576  1.0000
  H   H58       1.0  0.9561764580123012  0.21353584717635238  0.6901198061937279  1.0000
  H   H59       1.0  0.6077348410783613  0.5461372747463145  0.6449742996634809  1.0000
  H   H60       1.0  0.48288283486998296  0.47167780458811137  0.6080461352816826  1.0000
  H   H61       1.0  0.48887922560511754  0.41367390360709066  0.663908855187273  1.0000
  H   H62       1.0  0.35788869271161167  0.507041035816748  0.6672739458307644  1.0000
  H   H63       1.0  0.465872731053615  0.6365194931247871  0.6445861794995055  1.0000
  H   H64       1.0  0.569458255188529  0.5801470979350682  0.7265060163823519  1.0000
  H   H65       1.0  0.4278724745339133  0.5528371424950365  0.7426634284466971  1.0000
  H   H66       1.0  0.22517147603545595  0.49303828936319133  0.7844262860896831  1.0000
  H   H67       1.0  0.3288731220191893  0.36594223555125893  0.7179115774900708  1.0000
  H   H68       1.0  0.29702253986390303  0.34412920917734624  0.7989902508904905  1.0000
  H   H69       1.0  0.31951804084911123  0.6958589074506136  0.5348060707908715  1.0000
  H   H70       1.0  0.03790227801982147  0.9899537522272085  0.0305574456913789  1.0000
  C   C1        1.0  0.6234029367381949  0.7145002124433475  0.5680192186835455  1.0000
  C   C2        1.0  0.6626792694914343  0.3415879881390467  0.6487081968354788  1.0000
  C   C3        1.0  0.2429866954596847  0.2925205110812712  0.7256754112555155  1.0000
  C   C4        1.0  0.6167673892985802  0.38356706345931724  0.5624169910071117  1.0000
  C   C5        1.0  0.025526959088225006  0.207734765231173  0.7114917838592447  1.0000
  C   C6        1.0  0.003351188711022198  0.2128003052815259  0.7649365075363405  1.0000
  C   C7        1.0  0.07837160127439802  0.29501373985001317  0.8827028552787937  1.0000
  C   C8        1.0  0.1458542692339364  0.3100466601522811  0.6985875910794661  1.0000
  C   C9        1.0  0.21918879526234045  0.28210294911212236  0.7792222421057957  1.0000
  C   C10       1.0  0.11446639046043569  0.30736493799934544  0.7899306207352694  1.0000
  C   C11       1.0  0.14105530769340652  0.42778530511195356  0.7695263810391991  1.0000
  C   C12       1.0  0.650009662642951  0.3519113432181342  0.6065059904658766  1.0000
  C   C13       1.0  0.14535781531490952  0.42432285209466153  0.7151781204112309  1.0000
  C   C14       1.0  0.09537831453071993  0.30262458901214023  0.8404103682313815  1.0000
  C   C15       1.0  0.17272088061789503  0.3172254606762124  0.6485442343669374  1.0000
  C   C16       1.0  0.27892350860767584  0.3743738582425706  0.5660715702923014  1.0000
  C   C17       1.0  0.20999564308007018  0.33440183478968066  0.6083820961548128  1.0000
  C   C18       1.0  0.5398284395670174  0.7319106642813651  0.7280615585433237  1.0000
  C   C19       1.0  0.6895080192711589  0.9417216711297343  0.7155872814091779  1.0000
  C   C20       1.0  0.7091441432605591  0.9657572029035177  0.7689654706298654  1.0000
  C   C21       1.0  0.6924915499195947  0.9088589640273383  0.8878152744675347  1.0000
  C   C22       1.0  0.6623021778634808  0.8142314866577749  0.7052923440035455  1.0000
  C   C23       1.0  0.6169906984672197  0.21708348036749922  0.7607022885795018  1.0000
  C   C24       1.0  0.5478021969774433  0.7653590123211557  0.781394794595016  1.0000
  C   C25       1.0  0.6752599814979304  0.8512541915408605  0.796900439713049  1.0000
  C   C26       1.0  0.7552591572759795  0.7963351725671544  0.7822049803024242  1.0000
  C   C27       1.0  0.7616553169261381  0.7930246565985756  0.7281874028772319  1.0000
  C   C28       1.0  0.6085091035211221  0.7074671192839331  0.4349918881278042  1.0000
  C   C29       1.0  0.6823241518277996  0.8781021923051925  0.8468627757998916  1.0000
  C   C30       1.0  0.660861486515863  0.7960708548461927  0.6546008487603884  1.0000
  C   C31       1.0  0.6585886146330394  0.7758449210303765  0.6125401360182748  1.0000
  C   C32       1.0  0.5440654261839128  0.3215416112500479  0.2692291768923667  1.0000
  C   C33       1.0  0.6863868201003598  0.24055507144707625  0.2850990604716941  1.0000
  C   C34       1.0  0.6871896550843245  0.3238074586805196  0.7950185677642309  1.0000
  C   C35       1.0  0.7005947087165296  0.22998690557782445  0.2313213461113151  1.0000
  C   C36       1.0  0.7036016601363855  0.30244835324368324  0.11183863848452799  1.0000
  C   C37       1.0  0.6600361034962603  0.3441010992887997  0.2952310863048524  1.0000
  C   C38       1.0  0.5541202475335966  0.3044756265651857  0.2158027368598709  1.0000
  C   C39       1.0  0.6799673991653634  0.3235247618530863  0.20422442644409947  1.0000
  C   C40       1.0  0.608655375085455  0.39280429733983624  0.43389583464825415  1.0000
  C   C41       1.0  0.7718655083680872  0.4455325719542246  0.2215049688708461  1.0000
  C   C42       1.0  0.7613757535893909  0.45701591389433804  0.27534403111975786  1.0000
  C   C43       1.0  0.6917958007862878  0.3118483101925166  0.1539140192883437  1.0000
  C   C44       1.0  0.6469203841116523  0.3557036243618866  0.34549437180105247  1.0000
  C   C45       1.0  0.5646943517002896  0.2885991218740003  0.7338080368884262  1.0000
  C   C46       1.0  0.6341324621923404  0.3677973035960703  0.38727664533819706  1.0000
  C   C47       1.0  0.2667329117791725  0.4613872527457232  0.27213543826328385  1.0000
  C   C48       1.0  0.057211605239381035  0.3086547103407824  0.2850272185279152  1.0000
  C   C49       1.0  0.0342765618066494  0.2930866160614798  0.23120222542942767  1.0000
  C   C50       1.0  0.10520151788834649  0.3147016713497449  0.1121676745527296  1.0000
  C   C51       1.0  0.1880648439828577  0.3429379157739306  0.2958647792323105  1.0000
  C   C52       1.0  0.2868773682685912  0.3898695459312833  0.4346605204920094  1.0000
  C   C53       1.0  0.2393883652026432  0.4541340846277535  0.21876442339071636  1.0000
  C   C54       1.0  0.1509026303011183  0.327472723791054  0.2044009298376466  1.0000
  C   C55       1.0  0.20697544381015123  0.2492882248693178  0.22029562199401195  1.0000
  C   C56       1.0  0.672134216588539  0.33525773130460834  0.6982795075441786  1.0000
  C   C57       1.0  0.2165586435949933  0.24852329026471412  0.2744334093327083  1.0000
  C   C58       1.0  0.12850457340634594  0.3210802285168485  0.1540420953742796  1.0000
  C   C59       1.0  0.21104474039173485  0.35202661116098005  0.34623423094499367  1.0000
  C   C60       1.0  0.23619180390476657  0.36372802148708416  0.3879892493017252  1.0000
  C   C61       1.0  0.6899066095808808  0.7318827086636049  0.2692196649085474  1.0000
  C   C62       1.0  0.748927412043358  0.9413806119727895  0.28875469568119166  1.0000
  C   C63       1.0  0.7615127750384901  0.9664346792317957  0.23522736274080808  1.0000
  C   C64       1.0  0.7245856970230377  0.2633518095222697  0.7266477007039283  1.0000
  C   C65       1.0  0.6949535638377  0.9211657852904269  0.11590145048080562  1.0000
  C   C66       1.0  0.6549609741346815  0.8142377049139353  0.297248509380708  1.0000
  C   C67       1.0  0.6345000543647147  0.39582960982566817  0.7667154313984879  1.0000
  C   C68       1.0  0.6957985464844044  0.7595132437124477  0.21610456818712012  1.0000
  C   C69       1.0  0.6671185757978435  0.861471117800896  0.20674064614674137  1.0000
  C   C70       1.0  0.5438793893414059  0.8332990629114935  0.2256655853657819  1.0000
  C   C71       1.0  0.5343834498294981  0.798413557801993  0.27823724838419384  1.0000
  C   C72       1.0  0.6791704695524957  0.8918420570071816  0.15704443348002425  1.0000
  C   C73       1.0  0.6464159655540128  0.7849011845844129  0.3470097662218521  1.0000
  C   C74       1.0  0.6351304894748822  0.7571053759476171  0.3883787909849516  1.0000
  C   C75       1.0  0.038577453618309186  0.27132597376487405  0.9306667070270292  1.0000
  C   C76       1.0  0.7943955906302947  0.3706551493938833  0.7595204841159884  1.0000
  C   C77       1.0  0.7310429044977057  0.284087721265351  0.9341218272710704  1.0000
  C   C78       1.0  0.7421138649875233  0.4421722726920053  0.7325990849933459  1.0000
  C   C79       1.0  0.7184807304170635  0.9587175685243282  0.934395511582039  1.0000
  C   C80       1.0  0.054309499243586905  0.28759429693453603  0.0655107449399353  1.0000
  C   C81       1.0  0.7278580758285925  0.2785057155451796  0.0648850762266662  1.0000
  C   C82       1.0  0.7257494979687992  0.9683947800022497  0.0690395816567388  1.0000
  C   C83       1.0  0.7064134801891201  0.30865597662043603  0.8870837163314531  1.0000
  C   C84       1.0  0.49823331310191327  0.6025969224369447  0.7175894690301661  1.0000
  C   C85       1.0  0.45333275864996386  0.5626944198814671  0.6669863621116363  1.0000
  C   C86       1.0  0.5113368436291879  0.49512047528051534  0.6447686847774676  1.0000
  C   C87       1.0  0.6962603365849277  0.31727478604125275  0.8446017581588947  1.0000
  I   I1        1.0  0.47443183520182697  0.6197622957827775  0.8321477049501738  1.0000
  I   I2        1.0  0.9300945909654885  0.8827747162435455  0.8139002740221243  1.0000
  I   I3        1.0  0.11311115200979321  0.07202707718693088  0.1923156226524441  1.0000
  I   I4        1.0  0.5813775914752028  0.6070135598740835  0.17361352604653038  1.0000
  O   O1        1.0  0.3084387175932336  0.4777511061394152  0.5531732786590879  1.0000
  O   O2        1.0  0.6566704258714113  0.18854315480346878  0.9526891503824189  1.0000
  O   O3        1.0  0.6424797066141184  0.9872531441671059  0.9521105375516399  1.0000
  O   O4        1.0  0.520447464563553  0.6882496185290635  0.5535045255085648  1.0000
  O   O5        1.0  0.8280525072096767  0.9929009106545835  0.0551334652837312  1.0000
  O   O6        1.0  0.03413592099271774  0.1902011045908339  0.0483741147389978  1.0000
  O   O7        1.0  0.028330582331960827  0.3636112881462523  0.0462517449700997  1.0000
  O   O8        1.0  0.8251738343332279  0.3505969598176151  0.046476586051411986  1.0000
  O   O9        1.0  0.652489817546929  0.18312345738254274  0.045961792906012995  1.0000
  O   O10       1.0  0.647292417412885  0.9850465169732063  0.0459778147784178  1.0000
  O   O11       1.0  0.8412492458667203  0.16641633145855653  0.9999551684951696  1.0000
  O   O12       1.0  0.6819224888104785  0.4893481536534809  0.45254441712913257  1.0000
  O   O13       1.0  0.6968627575767671  0.6853143847756229  0.5484935583015442  1.0000
  O   O14       1.0  0.6870903543376342  0.4829648472933529  0.5452737048621401  1.0000
  O   O15       1.0  0.5158911501044585  0.3137101349613332  0.5451852420153286  1.0000
  O   O16       1.0  0.31023151384111713  0.3029919665873706  0.5462618445416396  1.0000
  O   O17       1.0  0.30747128059731926  0.486866779765613  0.4523542623810996  1.0000
  O   O18       1.0  0.5087311725897977  0.6840865130129643  0.4514405553211063  1.0000
  O   O19       1.0  0.6880195987724351  0.6871174701421411  0.45531429575919447  1.0000
  O   O20       1.0  0.5118730774156078  0.31942335821137396  0.45241230336824867  1.0000
  O   O21       1.0  0.311623401242386  0.3127102838937788  0.4535442717055815  1.0000
  O   O22       1.0  0.49586985223557184  0.50258126377652  0.5022841107519653  1.0000
  O   O23       1.0  0.8144835999387041  0.974564112403634  0.9530825322877943  1.0000
  O   O24       1.0  0.015884439920981205  0.17230144787350102  0.9468683572255185  1.0000
  O   O25       1.0  0.025022018425687503  0.3518766192890084  0.952526888402609  1.0000
  O   O26       1.0  0.8288607712976342  0.3564648905996889  0.9529170407480407  1.0000
  O   O27       1.0  0.3284831391149439  0.6679311573190957  0.5042574017757602  1.0000
  O   O28       1.0  0.0036526443128650755  0.9950224790800988  0.0006404031800074003  1.0000
