data_image0
_chemical_formula_structural       Cd4H36C60N12O16
_chemical_formula_sum              "Cd4 H36 C60 N12 O16"
_cell_length_a       8.46317675229967
_cell_length_b       11.369511698000903
_cell_length_c       15.116199992584596
_cell_angle_alpha    89.99996234537947
_cell_angle_beta     90.43307532731319
_cell_angle_gamma    89.99997457058274

_space_group_name_H-M_alt    "P 1"
_space_group_IT_number       1

loop_
  _space_group_symop_operation_xyz
  'x, y, z'

loop_
  _atom_site_type_symbol
  _atom_site_label
  _atom_site_symmetry_multiplicity
  _atom_site_fract_x
  _atom_site_fract_y
  _atom_site_fract_z
  _atom_site_occupancy
  Cd  Cd1       1.0  0.9056070541466706  0.8510010071451007  0.48222388071104666  1.0000
  Cd  Cd2       1.0  0.5943927537129313  0.35100177556063267  0.0177759157005184  1.0000
  Cd  Cd3       1.0  0.09439211833452528  0.14899912162086787  0.5177751851548109  1.0000
  Cd  Cd4       1.0  0.40560760931803935  0.6489983532045615  0.9822244757767393  1.0000
  H   H1        1.0  0.18430618097863768  0.5845691960072799  0.6741001843651944  1.0000
  H   H2        1.0  0.31569358991038843  0.08456874298942549  0.8259001702060191  1.0000
  H   H3        1.0  0.8156929959700888  0.4154309327583973  0.32589954305675667  1.0000
  H   H4        1.0  0.6843055915058683  0.9154313857759675  0.1741002187720397  1.0000
  H   H5        1.0  0.7288712560082685  0.6960848496608135  0.7641737436242195  1.0000
  H   H6        1.0  0.7711288739027182  0.19608448992351407  0.7358260013462186  1.0000
  H   H7        1.0  0.2711302841698924  0.30391527910447286  0.23582598879612965  1.0000
  H   H8        1.0  0.22887148466098486  0.8039147592967171  0.2641737285751589  1.0000
  H   H9        1.0  0.9951580656602773  0.44357961176437744  0.916497808181461  1.0000
  H   H10       1.0  0.5048395520980051  0.9435784440895674  0.5835018085478156  1.0000
  H   H11       1.0  0.004841111287923599  0.5564222760918014  0.08350191924005661  1.0000
  H   H12       1.0  0.4951596248509843  0.0564208051308626  0.4164979188743558  1.0000
  H   H13       1.0  0.3565443282918038  0.47995774896566695  0.8247725361304248  1.0000
  H   H14       1.0  0.14345520914972812  0.9799582145243587  0.6752282831082184  1.0000
  H   H15       1.0  0.6434548575919833  0.5200423797994346  0.1752285144037273  1.0000
  H   H16       1.0  0.8565439722665289  0.0200419142410269  0.3247721058698332  1.0000
  H   H17       1.0  0.23648864116010054  0.360665912087178  0.8572202134589447  1.0000
  H   H18       1.0  0.26350978198020414  0.8606654866433913  0.6427800011274201  1.0000
  H   H19       1.0  0.763510535788896  0.6393333371332516  0.14277951396323374  1.0000
  H   H20       1.0  0.7364894039038461  0.139333762576463  0.3572210494069594  1.0000
  H   H21       1.0  0.5826412128690563  0.506661623793036  0.7354371825891947  1.0000
  H   H22       1.0  0.9173578449399286  0.006662070137686298  0.764561992651295  1.0000
  H   H23       1.0  0.41736032730936756  0.4933376254270029  0.2645625498313748  1.0000
  H   H24       1.0  0.082641332008798  0.9933380586279982  0.235437734770656  1.0000
  H   H25       1.0  0.7767652343656408  0.4874435813220542  0.6130289916260525  1.0000
  H   H26       1.0  0.723233534145663  0.9874429563255875  0.8869699442035996  1.0000
  H   H27       1.0  0.22323511973000615  0.5125574269889627  0.3869700767387841  1.0000
  H   H28       1.0  0.2767668199502537  0.012557172440189402  0.1130291241614572  1.0000
  H   H29       1.0  0.7235090175739671  0.3626608033906606  0.48260690733318523  1.0000
  H   H30       1.0  0.776491969351703  0.8626622420525795  0.017393547327373  1.0000
  H   H31       1.0  0.27649252707198707  0.6373384458290872  0.5173934866434848  1.0000
  H   H32       1.0  0.22350957529371834  0.13733876625767039  0.9826068466488636  1.0000
  H   H33       1.0  0.46758207652917594  0.2530000305648699  0.4666886405141639  1.0000
  H   H34       1.0  0.03241618256139839  0.7530015361526666  0.033311756268979295  1.0000
  H   H35       1.0  0.5324182865023204  0.7469983391098297  0.5333117509635343  1.0000
  H   H36       1.0  0.9675841849365765  0.24700035170273785  0.9666892967639384  1.0000
  C   C1        1.0  0.10675342626254998  0.5050441921109011  0.7967873721676285  1.0000
  C   C2        1.0  0.39324638801128486  0.0050429408327091  0.703212360448113  1.0000
  C   C3        1.0  0.8932457506859136  0.49495681620003035  0.20321235525410944  1.0000
  C   C4        1.0  0.6067516073232537  0.9949554288426655  0.2967873644750796  1.0000
  C   C5        1.0  0.09176089372883207  0.5797897407929257  0.7237652167328151  1.0000
  C   C6        1.0  0.40823888450336904  0.0797901799801437  0.7762358017742699  1.0000
  C   C7        1.0  0.908238292155218  0.4202095084269216  0.2762358338015645  1.0000
  C   C8        1.0  0.5917614785276085  0.9202099487850504  0.2237645897029878  1.0000
  C   C9        1.0  0.9565018282510774  0.6487257208116688  0.711925311379531  1.0000
  C   C10       1.0  0.5434983301570212  0.1487253908834631  0.7880744571739485  1.0000
  C   C11       1.0  0.0434985347801558  0.351273528408278  0.288075080097947  1.0000
  C   C12       1.0  0.4565008467917053  0.8512747378822212  0.2119252702480097  1.0000
  C   C13       1.0  0.8346946311700023  0.6430632017248782  0.7737167884334397  1.0000
  C   C14       1.0  0.6653067167276132  0.14306288534072556  0.7262836469950502  1.0000
  C   C15       1.0  0.1653057363287687  0.3569360474947771  0.22628426460013176  1.0000
  C   C16       1.0  0.3346936418358338  0.85693724342476  0.27371608292610733  1.0000
  C   C17       1.0  0.8492228247402309  0.5690283255266593  0.8470932121331458  1.0000
  C   C18       1.0  0.6507762000092184  0.06902719837758299  0.6529065936075967  1.0000
  C   C19       1.0  0.15077871543766716  0.4309726827838746  0.15290652028699014  1.0000
  C   C20       1.0  0.34922297694003385  0.9309711712975998  0.3470931338147949  1.0000
  C   C21       1.0  0.9856860822249086  0.500715777378325  0.8588907856863842  1.0000
  C   C22       1.0  0.5143129880970818  0.0007155852370175  0.6411097156272801  1.0000
  C   C23       1.0  0.014314280806061702  0.4992843513868691  0.1411096057908736  1.0000
  C   C24       1.0  0.4856861933197009  0.9992827844378736  0.358890673351219  1.0000
  C   C25       1.0  0.25161191751684  0.4282607432705063  0.8063071374643658  1.0000
  C   C26       1.0  0.24838764656476528  0.9282602784469846  0.6936930459615526  1.0000
  C   C27       1.0  0.748387263899417  0.5717393854948867  0.193693251513686  1.0000
  C   C28       1.0  0.7516115348517545  0.07173897077316128  0.3063073430167266  1.0000
  C   C29       1.0  0.3867050388084792  0.315136341811467  0.594739859296503  1.0000
  C   C30       1.0  0.11329458887503559  0.815136616812019  0.9052597189047804  1.0000
  C   C31       1.0  0.6132965013694189  0.6848646664990738  0.4052598731236401  1.0000
  C   C32       1.0  0.8867057741559348  0.184863511953175  0.09474067257247751  1.0000
  C   C33       1.0  0.4186803601121696  0.38650260554145893  0.6692963014165016  1.0000
  C   C34       1.0  0.08131922462852971  0.8865029561265131  0.830703241247079  1.0000
  C   C35       1.0  0.5813211845335146  0.6134975232235362  0.3307040925599551  1.0000
  C   C36       1.0  0.9186811339351734  0.1134962930937249  0.16929648867429856  1.0000
  C   C37       1.0  0.558507119913294  0.45171646116018144  0.6778752543878994  1.0000
  C   C38       1.0  0.9414928561778594  0.9517166999850633  0.8221243632875854  1.0000
  C   C39       1.0  0.4414944202648669  0.5482836676051052  0.32212447803245686  1.0000
  C   C40       1.0  0.05850750238558078  0.048283428780422404  0.17787536663357173  1.0000
  C   C41       1.0  0.6647742260487488  0.440386171713385  0.608951194500996  1.0000
  C   C42       1.0  0.8352245707784005  0.9403846265407693  0.8910477647616873  1.0000
  C   C43       1.0  0.33522612804637214  0.5596165956881336  0.3910478738633998  1.0000
  C   C44       1.0  0.16477460170332844  0.059613743134704585  0.10895130110461082  1.0000
  C   C45       1.0  0.6337361081132044  0.3692969648741736  0.5337239416204228  1.0000
  C   C46       1.0  0.8662639131042339  0.869297102932812  0.9662750555407627  1.0000
  C   C47       1.0  0.3662654320649565  0.6307031638911126  0.4662757907999336  1.0000
  C   C48       1.0  0.13373644099220874  0.13070126674245588  0.0337240128247345  1.0000
  C   C49       1.0  0.4941844939938846  0.3063681679306498  0.5247704730833789  1.0000
  C   C50       1.0  0.005813957350945  0.8063684175139586  0.9752291069849264  1.0000
  C   C51       1.0  0.5058170461842764  0.6936319608346367  0.4752292593369774  1.0000
  C   C52       1.0  0.9941852195977813  0.19363171125172574  0.024770620437031706  1.0000
  C   C53       1.0  0.9390415301948348  0.7249190043949767  0.6319920505999761  1.0000
  C   C54       1.0  0.5609585778984394  0.22491859900043204  0.8680070184560692  1.0000
  C   C55       1.0  0.060958828368875104  0.2750802448252542  0.3680076793214013  1.0000
  C   C56       1.0  0.4390405945830266  0.7750806502202889  0.1319920474100087  1.0000
  C   C57       1.0  0.7146427473627739  0.5583524002399045  0.9097878094713465  1.0000
  C   C58       1.0  0.785355102195652  0.05835216273955981  0.5902119990861792  1.0000
  C   C59       1.0  0.28535761120040354  0.4416486080708282  0.09021192044959041  1.0000
  C   C60       1.0  0.21464289760615426  0.9416470864807778  0.4097883873928937  1.0000
  N   N1        1.0  0.28965947068565606  0.37086077099091597  0.7225081405373004  1.0000
  N   N2        1.0  0.2103401279346357  0.870861125252276  0.7774920714714144  1.0000
  N   N3        1.0  0.710342073960028  0.629139357774079  0.27749225343915646  1.0000
  N   N4        1.0  0.7896590534818843  0.12913812396786992  0.2225083175068647  1.0000
  N   N5        1.0  0.1851161010602738  0.29673536951842994  0.6853634775186068  1.0000
  N   N6        1.0  0.3148823605480898  0.7967365363320764  0.8146367689023394  1.0000
  N   N7        1.0  0.8148842575034364  0.703263879701808  0.3146362524027709  1.0000
  N   N8        1.0  0.6851168164006367  0.2032635924336006  0.18536295851961884  1.0000
  N   N9        1.0  0.24237508496672427  0.2628280444726485  0.6088893984709642  1.0000
  N   N10       1.0  0.2576245786592181  0.7628291635717942  0.8911108673337438  1.0000
  N   N11       1.0  0.7576264552114367  0.7371720842926379  0.39111033394939204  1.0000
  N   N12       1.0  0.7423746027570387  0.2371709651935916  0.1088895216443149  1.0000
  O   O1        1.0  0.05322396428575619  0.7298279172165749  0.5765762039791937  1.0000
  O   O2        1.0  0.44677571026234375  0.229828215326485  0.9234227551463265  1.0000
  O   O3        1.0  0.9467752171307705  0.27017133200356375  0.4234241849990853  1.0000
  O   O4        1.0  0.553222285071669  0.7701719134393913  0.07657696977643272  1.0000
  O   O5        1.0  0.8109169401366996  0.7817886674623085  0.620213439857281  1.0000
  O   O6        1.0  0.6890831426718123  0.28178820938151017  0.8797869239920431  1.0000
  O   O7        1.0  0.1890834273620641  0.21821058175734717  0.37978761317629056  1.0000
  O   O8        1.0  0.31091722035889546  0.7182127989289312  0.12021346748498733  1.0000
  O   O9        1.0  0.5798578013012731  0.5943724515028633  0.8814319732887625  1.0000
  O   O10       1.0  0.9201400176479878  0.09437214466032631  0.6185664942199696  1.0000
  O   O11       1.0  0.42014255279437407  0.4056285568081537  0.11856709507607383  1.0000
  O   O12       1.0  0.07985915483347128  0.9056271045603949  0.38143257164610844  1.0000
  O   O13       1.0  0.7386773896049661  0.5135676780235628  0.9860382449734858  1.0000
  O   O14       1.0  0.7613193052872944  0.013565755865364798  0.5139615833863473  1.0000
  O   O15       1.0  0.26132177840870696  0.4864324507426899  0.013960159336271304  1.0000
  O   O16       1.0  0.23867869451530765  0.9864308547192236  0.4860388030933863  1.0000
