data_image0
_chemical_formula_structural       Zn3H32C30S2N6O16
_chemical_formula_sum              "Zn3 H32 C30 S2 N6 O16"
_cell_length_a       7.625200489464251
_cell_length_b       8.074889291101096
_cell_length_c       16.46152470803427
_cell_angle_alpha    92.92224246266616
_cell_angle_beta     101.69596919071108
_cell_angle_gamma    114.40965602810918

_space_group_name_H-M_alt    "P 1"
_space_group_IT_number       1

loop_
  _space_group_symop_operation_xyz
  'x, y, z'

loop_
  _atom_site_type_symbol
  _atom_site_label
  _atom_site_symmetry_multiplicity
  _atom_site_fract_x
  _atom_site_fract_y
  _atom_site_fract_z
  _atom_site_occupancy
  Zn  Zn1       1.0  0.5000000480701701  6.951135987004432e-07  0.49999964314422135  1.0000
  Zn  Zn2       1.0  0.28348879649237085  0.21717662815844818  0.3927216312744974  1.0000
  Zn  Zn3       1.0  0.7165135393270742  0.782825139462588  0.6072772997427194  1.0000
  H   H1        1.0  0.21582572709456826  0.246669487454227  0.7885919288230383  1.0000
  H   H2        1.0  0.7841727014370007  0.7533295357588443  0.21141022079639524  1.0000
  H   H3        1.0  0.24788923191027823  0.3348445194834112  0.941142726147703  1.0000
  H   H4        1.0  0.7521085550302614  0.6651531279628456  0.05885932963824558  1.0000
  H   H5        1.0  0.2872495432130577  0.8666442455460767  0.8943218253114154  1.0000
  H   H6        1.0  0.7127509053223022  0.13335340223408557  0.10567925776955892  1.0000
  H   H7        1.0  0.25806204757655843  0.7821018926132551  0.7426554971785676  1.0000
  H   H8        1.0  0.7419357299917235  0.21789575296811137  0.25734595021631884  1.0000
  H   H9        1.0  0.3936683503792293  0.6317754458074986  0.16209747894554738  1.0000
  H   H10       1.0  0.6063386280416693  0.3682304606372212  0.837904411213529  1.0000
  H   H11       1.0  0.4268798550469127  0.7152823159139531  0.3133683518894017  1.0000
  H   H12       1.0  0.5731270663863839  0.28472634003255587  0.6866336038980805  1.0000
  H   H13       1.0  0.1901818124010787  0.05998572697771461  0.0241750778109662  1.0000
  H   H14       1.0  0.8098159752935317  0.9400091597774177  0.9758232620002188  1.0000
  H   H15       1.0  0.1375087438653679  0.3278104688317001  0.0803829243005012  1.0000
  H   H16       1.0  0.8624936301971642  0.6721885455577733  0.919614724306193  1.0000
  H   H17       1.0  0.17464124044816026  0.391007850012457  0.2355158764787504  1.0000
  H   H18       1.0  0.8253570467455233  0.6089939059183819  0.7644808632495669  1.0000
  H   H19       1.0  0.9162582207564682  0.9427125751663822  0.3745639508886072  1.0000
  H   H20       1.0  0.08374547397715296  0.057289198216281485  0.6254363189493048  1.0000
  H   H21       1.0  0.9102666461922054  0.11886008244605509  0.4202291690119608  1.0000
  H   H22       1.0  0.08973506678071166  0.8811403131379477  0.5797708849538807  1.0000
  H   H23       1.0  0.7352087644168246  0.26538457829715156  0.4352727390592079  1.0000
  H   H24       1.0  0.2647902588445135  0.7346158113582747  0.5647264624384293  1.0000
  H   H25       1.0  0.865730008967901  0.2634871191702358  0.5237701392049914  1.0000
  H   H26       1.0  0.13427036383534838  0.7365132743819273  0.4762297927222789  1.0000
  H   H27       1.0  0.3980456058341132  0.5866485146734632  0.443685840204914  1.0000
  H   H28       1.0  0.6019547575968857  0.41335187701380954  0.5563134833312944  1.0000
  H   H29       1.0  0.16548698306060305  0.4883964259064298  0.3954809561252617  1.0000
  H   H30       1.0  0.8345120878160728  0.5116012123823309  0.6045175713529076  1.0000
  H   H31       1.0  0.34747446153733813  0.21465444225461988  0.549138340840912  1.0000
  H   H32       1.0  0.6525232215543325  0.7853459453689665  0.4508607386181467  1.0000
  C   C1        1.0  0.23489658719498852  0.5092085818974181  0.7574175867687031  1.0000
  C   C2        1.0  0.7651018889519248  0.49078768994898053  0.24258388883126966  1.0000
  C   C3        1.0  0.23053623805853354  0.38148835967801625  0.8121546817957109  1.0000
  C   C4        1.0  0.76946353064271  0.6185106655668944  0.1878475898623009  1.0000
  C   C5        1.0  0.2475346728769523  0.4301323560886204  0.8966384989495991  1.0000
  C   C6        1.0  0.7524630953190722  0.5698652876278557  0.10336234005423249  1.0000
  C   C7        1.0  0.26532305806286155  0.6040910415871679  0.9265383348731433  1.0000
  C   C8        1.0  0.7346787212699083  0.39590660635994357  0.0734622618553544  1.0000
  C   C9        1.0  0.26923400820781035  0.7310253577274678  0.8703149211860931  1.0000
  C   C10       1.0  0.7307658081087707  0.26897091615077057  0.1296866764524509  1.0000
  C   C11       1.0  0.2540856477185827  0.6839408421409273  0.7861739242550527  1.0000
  C   C12       1.0  0.7459108560398845  0.31605405377170825  0.21382794386391174  1.0000
  C   C13       1.0  0.2935598491250601  0.83173866566257  0.1206685731417352  1.0000
  C   C14       1.0  0.706439891459418  0.1682603539876695  0.879331873343105  1.0000
  C   C15       1.0  0.35776979895342  0.741862016658956  0.18266800177170947  1.0000
  C   C16       1.0  0.6422351977067748  0.2581425119871099  0.8173336725153035  1.0000
  C   C17       1.0  0.3775405705052747  0.7890160889538149  0.2674556996279804  1.0000
  C   C18       1.0  0.6224637275762959  0.21098981342721856  0.7325459464539393  1.0000
  C   C19       1.0  0.3333049890399307  0.931734054859994  0.2956315713026783  1.0000
  C   C20       1.0  0.666692646436395  0.06826908413027159  0.7043681821758483  1.0000
  C   C21       1.0  0.2748585021069799  0.03173501671457049  0.2331344525548644  1.0000
  C   C22       1.0  0.7251364912730976  0.9682653649804462  0.76686377443599  1.0000
  C   C23       1.0  0.2554157295097496  0.9835848316908054  0.14646048442656215  1.0000
  C   C24       1.0  0.7445826709050605  0.016414185927594395  0.8535398400196996  1.0000
  C   C25       1.0  0.20321052523539146  0.09285764324796728  0.0907680178058996  1.0000
  C   C26       1.0  0.7967858746742065  0.9071399928419976  0.909230873986175  1.0000
  C   C27       1.0  0.17361274243219063  0.23900424606881632  0.12162146953122739  1.0000
  C   C28       1.0  0.8263856298658537  0.760994765954912  0.8783770297418556  1.0000
  C   C29       1.0  0.19559350679497095  0.276293355705583  0.2085991004731866  1.0000
  C   C30       1.0  0.804403440229045  0.7237083981934163  0.7913975172165523  1.0000
  S   S1        1.0  0.2069039111433213  0.45023866912024596  0.6492124383135831  1.0000
  S   S2        1.0  0.7930952065946214  0.5497589784929673  0.35078913111988186  1.0000
  N   N1        1.0  0.24444515903066832  0.17586648633164256  0.2621146271460901  1.0000
  N   N2        1.0  0.7555517879933544  0.8241352675673569  0.7378819905436558  1.0000
  N   N3        1.0  0.267433254439048  0.7866638635492007  0.03555090680921319  1.0000
  N   N4        1.0  0.7325664955176804  0.21333515796593613  0.9644501480666818  1.0000
  N   N5        1.0  0.2828333447977441  0.639939180727012  0.01294485155854369  1.0000
  N   N6        1.0  0.7171657729402054  0.360058466886201  0.9870567178749213  1.0000
  O   O1        1.0  0.34301608095914554  0.9802886325041056  0.3735808094288942  1.0000
  O   O2        1.0  0.6569816021325251  0.019711755119487893  0.6264182700301717  1.0000
  O   O3        1.0  0.43223103810565516  0.22258519200676824  0.5106718985288622  1.0000
  O   O4        1.0  0.567767985155683  0.7774151976486577  0.4893273029687748  1.0000
  O   O5        1.0  0.2427252584312143  0.2859828062395451  0.6386732833499592  1.0000
  O   O6        1.0  0.7572724910203021  0.7140148337471501  0.36132633887175564  1.0000
  O   O7        1.0  0.3502321687963742  0.6106706120130098  0.6218002866113608  1.0000
  O   O8        1.0  0.6497635700236158  0.3893284052714846  0.3782010105398684  1.0000
  O   O9        1.0  0.9997781788930522  0.4132181563470139  0.6083243575875414  1.0000
  O   O10       1.0  0.00022092947263985225  0.5867794894013086  0.3916766034548615  1.0000
  O   O11       1.0  0.9818759869144029  0.07877783268304475  0.3846200432041726  1.0000
  O   O12       1.0  0.018126358277299814  0.9212239368028817  0.615379496204106  1.0000
  O   O13       1.0  0.7755095125839659  0.18271303004939193  0.4701113233145549  1.0000
  O   O14       1.0  0.22449020925599672  0.8172859858710736  0.5298879063881685  1.0000
  O   O15       1.0  0.2874236106740895  0.4699134305148006  0.40625642773216  1.0000
  O   O16       1.0  0.7125767527569095  0.5300869611724721  0.5937428958040485  1.0000
