data_image0
_chemical_formula_structural       Al4H64C80O28
_chemical_formula_sum              "Al4 H64 C80 O28"
_cell_length_a       6.623715081545923
_cell_length_b       20.423497332625903
_cell_length_c       24.10869533148988
_cell_angle_alpha    90.14332062551591
_cell_angle_beta     87.13011633395598
_cell_angle_gamma    92.48294419675082

_space_group_name_H-M_alt    "P 1"
_space_group_IT_number       1

loop_
  _space_group_symop_operation_xyz
  'x, y, z'

loop_
  _atom_site_type_symbol
  _atom_site_label
  _atom_site_symmetry_multiplicity
  _atom_site_fract_x
  _atom_site_fract_y
  _atom_site_fract_z
  _atom_site_occupancy
  Al  Al1       1.0  0.868786289565655  0.5043391765907046  0.498015075339829  1.0000
  Al  Al2       1.0  0.367585733009328  0.5028971300674386  0.5014237564157042  1.0000
  Al  Al3       1.0  0.2866655556534781  0.9993505940272628  0.0008071992473333007  1.0000
  Al  Al4       1.0  0.786500456455414  0.9988862562538048  0.0015067767809072014  1.0000
  H   H1        1.0  0.38956745211458355  0.7040714870862815  0.4676671382529491  1.0000
  H   H2        1.0  0.4249345700664832  0.8670876358818234  0.3254258464874625  1.0000
  H   H3        1.0  0.9253403977898386  0.6769278383339525  0.0724798953854844  1.0000
  H   H4        1.0  0.9094926657606948  0.7827241830099113  0.0216213836877586  1.0000
  H   H5        1.0  0.27871238230704876  0.8773326340250732  0.23421748099555373  1.0000
  H   H6        1.0  0.32979473037570983  0.1646468081050543  0.23345811189277302  1.0000
  H   H7        1.0  0.3636894538966117  0.24138788976456024  0.3133125339669505  1.0000
  H   H8        1.0  0.8042665377725767  0.26378760230800674  0.18471939981696292  1.0000
  H   H9        1.0  0.31602982030446464  0.6578961274389454  0.7404074270660742  1.0000
  H   H10       1.0  0.2880222210624197  0.732470727451428  0.822382194736619  1.0000
  H   H11       1.0  0.5201522611334469  0.11864773690738421  0.6544569243799145  1.0000
  H   H12       1.0  0.5252400393694715  0.11377701138195559  0.8348799474526629  1.0000
  H   H13       1.0  0.49760257959138704  0.11644618928391992  0.7555982879186517  1.0000
  H   H14       1.0  0.02901614812628848  0.6167869084608881  0.1501440466400084  1.0000
  H   H15       1.0  0.4612243263363709  0.8059009943935321  0.4111329120493679  1.0000
  H   H16       1.0  0.8386696979531933  0.3406077425818737  0.2642881036927704  1.0000
  H   H17       1.0  0.8511516388562442  0.8321679515930923  0.7686256372736936  1.0000
  H   H18       1.0  0.8791936420885589  0.7576567690633241  0.6867054184858787  1.0000
  H   H19       1.0  0.5663640377125105  0.46721195705186597  0.8086129687846011  1.0000
  H   H20       1.0  0.829956103424081  0.4524444763415403  0.8019394211178651  1.0000
  H   H21       1.0  0.8706194533432879  0.49315556706570607  0.8999498536697743  1.0000
  H   H22       1.0  0.7692541898441475  0.5542763917183179  0.8580169327306139  1.0000
  H   H23       1.0  0.6075871375567344  0.5082759715221172  0.9062204221559186  1.0000
  H   H24       1.0  0.7420491072177455  0.693757567892156  0.3376220659482101  1.0000
  H   H25       1.0  0.7170169694979265  0.6433085344366772  0.3986692351914414  1.0000
  H   H26       1.0  0.4522053886218201  0.6111759562308521  0.3309619251465534  1.0000
  H   H27       1.0  0.6453627908173374  0.5964933293385074  0.27921399445657613  1.0000
  H   H28       1.0  0.6189528051555584  0.546577397569564  0.3402201242637375  1.0000
  H   H29       1.0  0.286798039873858  0.3850692030333319  0.7222778235420222  1.0000
  H   H30       1.0  0.2336844409338141  0.4009454474103008  0.6517518398804825  1.0000
  H   H31       1.0  0.1582658578068319  0.49725855735024277  0.7145187920756441  1.0000
  H   H32       1.0  0.3474970817407551  0.5183000102886197  0.6617826188452014  1.0000
  H   H33       1.0  0.41781953920452247  0.5036742635622744  0.7309778471592311  1.0000
  H   H34       1.0  0.9016101524742551  0.241489761568161  0.5034235119988324  1.0000
  H   H35       1.0  0.8975074210404798  0.318702219371822  0.4696040368944169  1.0000
  H   H36       1.0  0.6989940975061373  0.2666927293667952  0.39361612399533646  1.0000
  H   H37       1.0  0.9320046283895919  0.22794008904970303  0.3998871851985228  1.0000
  H   H38       1.0  0.7018039104523907  0.1892065255658153  0.4277766003078156  1.0000
  H   H39       1.0  0.6398368916182305  0.3226509365557463  0.9372857839560425  1.0000
  H   H40       1.0  0.3268212574011145  0.2170165498384264  0.025580060501901904  1.0000
  H   H41       1.0  0.4699158325596215  0.29324644510737125  0.027874726166778895  1.0000
  H   H42       1.0  0.6802173281666839  0.24537111535281753  0.10150853534558732  1.0000
  H   H43       1.0  0.4184005325774364  0.2464544784249725  0.1236904331579254  1.0000
  H   H44       1.0  0.5253924038210585  0.17180487309300216  0.1006035260951919  1.0000
  H   H45       1.0  0.6386363701514384  0.3869407198492141  0.7475268623798996  1.0000
  H   H46       1.0  0.8120328985154758  0.1200779156237246  0.6066318544115532  1.0000
  H   H47       1.0  0.9036324915616163  0.15393523704900502  0.5418264042386056  1.0000
  H   H48       1.0  0.6923643545437628  0.06925885915596548  0.491624010761825  1.0000
  H   H49       1.0  0.8664079711533574  0.031998650885029206  0.5344787951328556  1.0000
  H   H50       1.0  0.6056640365707792  0.0341001739992848  0.5564779693515831  1.0000
  H   H51       1.0  0.8825611137950204  0.8860706115080246  0.23673461474765387  1.0000
  H   H52       1.0  0.7893229465599773  0.9234978505389437  0.176751590607708  1.0000
  H   H53       1.0  0.007340837631389295  0.025250779739565108  0.1941466338887494  1.0000
  H   H54       1.0  0.8382555197443226  0.0065864170797809  0.2521085571026802  1.0000
  H   H55       1.0  0.09777718250549576  0.9878765575614565  0.254429331141786  1.0000
  H   H56       1.0  0.2285107387017717  0.5436959150512806  0.1833879876038651  1.0000
  H   H57       1.0  0.9744541303171204  0.5350256495239877  0.211994492470069  1.0000
  H   H58       1.0  0.09734155127313929  0.48490684903040904  0.2980924144402692  1.0000
  H   H59       1.0  0.17860929046398866  0.4396019712463044  0.2383851832441124  1.0000
  H   H60       1.0  0.35199914605778565  0.494322360661748  0.271298172333168  1.0000
  H   H61       1.0  0.6215916803080006  0.4859507859055654  0.42964455909835664  1.0000
  H   H62       1.0  0.0911909894968588  0.4592066281541207  0.5606902945375296  1.0000
  H   H63       1.0  0.515418283769513  0.9676540339741421  0.0686229727260965  1.0000
  H   H64       1.0  0.0527523973136894  0.03258666370764729  0.9346257025508109  1.0000
  C   C1        1.0  0.6237501876237062  0.5794113107296397  0.5758813289281548  1.0000
  C   C2        1.0  0.5921903504709148  0.4034991000812126  0.5553601969385937  1.0000
  C   C3        1.0  0.12159207646162427  0.42732502778198983  0.4210407786129267  1.0000
  C   C4        1.0  0.14866266302139047  0.6018995955977644  0.4451341051547715  1.0000
  C   C5        1.0  0.008338934354711053  0.8408699183264046  0.0909973602175995  1.0000
  C   C6        1.0  0.1850006652486869  0.6611080893720215  0.4094926542348745  1.0000
  C   C7        1.0  0.9650099859345858  0.723317158567987  0.0925857002748032  1.0000
  C   C8        1.0  0.9560161109277557  0.7815426649570937  0.0643329304082769  1.0000
  C   C9        1.0  0.06438446135095424  0.8412957964975899  0.1459307373543339  1.0000
  C   C10       1.0  0.08222890485403409  0.7818929956330579  0.17583460378142493  1.0000
  C   C11       1.0  0.028227798918862772  0.7221483895917088  0.1478162830801395  1.0000
  C   C12       1.0  0.15108694792162677  0.7778647998688938  0.2319212166299067  1.0000
  C   C13       1.0  0.1359907558033413  0.7171202156995947  0.2609518997355664  1.0000
  C   C14       1.0  0.10760217875244389  0.6580683075645267  0.2285742459396118  1.0000
  C   C15       1.0  0.04968093649407019  0.6612067807092288  0.1746127930856574  1.0000
  C   C16       1.0  0.25387489954046316  0.8321763025848198  0.2577255202341249  1.0000
  C   C17       1.0  0.33341382390826624  0.826648608848892  0.3086845784928798  1.0000
  C   C18       1.0  0.2941691394724586  0.7694899120101368  0.34173561867030605  1.0000
  C   C19       1.0  0.17710875832685252  0.716000778291189  0.3194431359138648  1.0000
  C   C20       1.0  0.36712463582261984  0.76529566432734  0.39574590261774023  1.0000
  C   C21       1.0  0.3239565310313565  0.7101836316252701  0.42754146356104883  1.0000
  C   C22       1.0  0.10275245527616757  0.6656861448263102  0.3573255701698415  1.0000
  C   C23       1.0  0.2421111882236104  0.246127105602163  0.2849120375381347  1.0000
  C   C24       1.0  0.10398018886603208  0.2962721588163433  0.2938403900361521  1.0000
  C   C25       1.0  0.945588523176518  0.30198573310944704  0.2572426740301168  1.0000
  C   C26       1.0  0.9263367256007485  0.2591451701274678  0.2129376149708122  1.0000
  C   C27       1.0  0.0650008892009666  0.2091475982715069  0.2037530952567508  1.0000
  C   C28       1.0  0.2229268545928278  0.2032769119222095  0.2405338863175501  1.0000
  C   C29       1.0  0.12047165010727665  0.34062507942283554  0.33864486855793535  1.0000
  C   C30       1.0  0.04844887215108431  0.16555862004325664  0.1583128759026238  1.0000
  C   C31       1.0  0.0405990580863218  0.12757979925560653  0.1193620200647203  1.0000
  C   C32       1.0  0.1257355255680963  0.3799859290295942  0.3766466469882345  1.0000
  C   C33       1.0  0.41697567957181997  0.7375181903493129  0.7925782841486892  1.0000
  C   C34       1.0  0.5676535798069152  0.7871853188865502  0.8006791819831774  1.0000
  C   C35       1.0  0.7351333731142163  0.7938121943819142  0.7621551604381409  1.0000
  C   C36       1.0  0.7507391519674584  0.7523803673457509  0.7166517439484323  1.0000
  C   C37       1.0  0.5991440769235652  0.7030994935356603  0.7083010968875385  1.0000
  C   C38       1.0  0.43240178820793307  0.6961169175832254  0.7470383987245199  1.0000
  C   C39       1.0  0.5511543313470425  0.8307497453553621  0.8461810716068642  1.0000
  C   C40       1.0  0.6125200812875631  0.6612334531914142  0.6616366571500265  1.0000
  C   C41       1.0  0.6207367331945264  0.6247125180791144  0.6216690288356688  1.0000
  C   C42       1.0  0.5400211904951674  0.8695844684526077  0.8845169057394742  1.0000
  C   C43       1.0  0.5734447820733166  0.15888318387800376  0.9128909219726182  1.0000
  C   C44       1.0  0.5872193920168057  0.3409115026004343  0.5880520307333654  1.0000
  C   C45       1.0  0.6141005473576225  0.27700668479314317  0.9148250508954092  1.0000
  C   C46       1.0  0.6044580639856605  0.21785289193695692  0.9427359639154035  1.0000
  C   C47       1.0  0.5512126663937522  0.16021943494111923  0.8561846224053725  1.0000
  C   C48       1.0  0.5649570616521442  0.219661457653423  0.8259826046015136  1.0000
  C   C49       1.0  0.5979740469837367  0.2786808940618144  0.8566743766579066  1.0000
  C   C50       1.0  0.5528604020565524  0.22170198170196903  0.7661844790994721  1.0000
  C   C51       1.0  0.5745253101690223  0.2828998952943352  0.7381504147885919  1.0000
  C   C52       1.0  0.6124348050033106  0.3410641577286313  0.7698215631502876  1.0000
  C   C53       1.0  0.6230413649859371  0.3392547953563819  0.8265562909007969  1.0000
  C   C54       1.0  0.5257220277793095  0.16329367890671884  0.7345512637612045  1.0000
  C   C55       1.0  0.5387917038935583  0.16404263796417237  0.6777948704044762  1.0000
  C   C56       1.0  0.5706514032367949  0.22397271643630748  0.6478399019739811  1.0000
  C   C57       1.0  0.5696788749502774  0.28477967344127114  0.677968813669871  1.0000
  C   C58       1.0  0.5958278404388296  0.2229092613593977  0.5889065050332576  1.0000
  C   C59       1.0  0.6069441855966531  0.28135881934704093  0.5590633986746312  1.0000
  C   C60       1.0  0.5657600004134267  0.3430467086284921  0.6455641126359026  1.0000
  C   C61       1.0  0.5659130987545353  0.09568569182738432  0.94415017248447  1.0000
  C   C62       1.0  0.5318051282526142  0.9182660967787514  0.9279252014943467  1.0000
  C   C63       1.0  0.008846097122166385  0.9034247729914571  0.0591857024883637  1.0000
  C   C64       1.0  0.04222884446348729  0.07978754785206381  0.0750013257347177  1.0000
  C   C65       1.0  0.6990916194077813  0.4552718285600292  0.8319604116724122  1.0000
  C   C66       1.0  0.738971171118081  0.505640713216458  0.8767646600724177  1.0000
  C   C67       1.0  0.7504255990253127  0.643332124490179  0.3534383095526863  1.0000
  C   C68       1.0  0.6086882577210704  0.5965450050561998  0.3241718950985657  1.0000
  C   C69       1.0  0.3304449009152178  0.4160606807214576  0.6858227627440813  1.0000
  C   C70       1.0  0.31338347975015074  0.4881361326217331  0.6989362348298157  1.0000
  C   C71       1.0  0.815305163792999  0.2710458505510617  0.4756465924724438  1.0000
  C   C72       1.0  0.7846301737292906  0.2364983915488494  0.4209818014781916  1.0000
  C   C73       1.0  0.4749090829524647  0.24001398211336777  0.0351235840479731  1.0000
  C   C74       1.0  0.5278414092660738  0.22500621094720694  0.09392915268831098  1.0000
  C   C75       1.0  0.7746200931457352  0.12666453482399478  0.5630275107637388  1.0000
  C   C76       1.0  0.7319098389900063  0.06165456847255509  0.534771758942  1.0000
  C   C77       1.0  0.9193473320591038  0.9224890623610945  0.2035961721866286  1.0000
  C   C78       1.0  0.9695331743754136  0.9894809429561844  0.2273389216385837  1.0000
  C   C79       1.0  0.13443129896833028  0.541539580928479  0.22256924210725512  1.0000
  C   C80       1.0  0.19428881948410745  0.486933905979555  0.2598549958919421  1.0000
  O   O1        1.0  0.42389879530823993  0.4239475044221307  0.5410477389274959  1.0000
  O   O2        1.0  0.795413937637626  0.5677546042468719  0.5529961057596964  1.0000
  O   O3        1.0  0.9727769635068385  0.5749080387390465  0.4518925592364483  1.0000
  O   O4        1.0  0.7659473870028959  0.4308686773824703  0.5447535372403607  1.0000
  O   O5        1.0  0.9459945806806687  0.44221566701406084  0.43983325217585195  1.0000
  O   O6        1.0  0.45298408018821595  0.5543422138770211  0.5630970070486968  1.0000
  O   O7        1.0  0.6225731546697021  0.5073031662439433  0.4656320148762347  1.0000
  O   O8        1.0  0.29119089738972553  0.44988649800862385  0.436958748587756  1.0000
  O   O9        1.0  0.3075558952410161  0.5817209947775338  0.4661478225446131  1.0000
  O   O10       1.0  0.1082720344687118  0.4936803603190399  0.5329977135439066  1.0000
  O   O11       1.0  0.7008509246625676  0.9455887330683265  0.9396982153079634  1.0000
  O   O12       1.0  0.3948465088859193  0.06481940384641399  0.9496902084421777  1.0000
  O   O13       1.0  0.21554562826972304  0.06917235119388469  0.05250391909990531  1.0000
  O   O14       1.0  0.3575971050143849  0.9300378263681564  0.9492825813091486  1.0000
  O   O15       1.0  0.1781303662461369  0.9347930880064582  0.051993071127554906  1.0000
  O   O16       1.0  0.7303338337523826  0.07721834055151788  0.9625321251970292  1.0000
  O   O17       1.0  0.5294265995708827  0.9944451751609195  0.0353852322613477  1.0000
  O   O18       1.0  0.8426820152244902  0.9201295386395859  0.04014013368847461  1.0000
  O   O19       1.0  0.8729682148111094  0.0522709622017672  0.0639522936621617  1.0000
  O   O20       1.0  0.042986573789384905  0.0046377944938598  0.9671901640612077  1.0000
  O   O21       1.0  0.661937340010958  0.3930481481239169  0.8588531069187509  1.0000
  O   O22       1.0  0.9544788544084922  0.6215054863189522  0.3422294883537518  1.0000
  O   O23       1.0  0.5395214208697041  0.40494422458431967  0.6683281409851388  1.0000
  O   O24       1.0  0.6186332668082811  0.28296244429786543  0.5020935096318057  1.0000
  O   O25       1.0  0.6299196497711108  0.21275361555780853  0.9988000443548232  1.0000
  O   O26       1.0  0.5949628192075095  0.1642745539126409  0.5603432635811032  1.0000
  O   O27       1.0  0.09433179368232907  0.9022928902012666  0.1702214467813405  1.0000
  O   O28       1.0  0.16212324239379683  0.6018072869842895  0.2523151528770384  1.0000
