data_image0
_chemical_formula_structural       Nd2Cu2H22C30N4O24
_chemical_formula_sum              "Nd2 Cu2 H22 C30 N4 O24"
_cell_length_a       8.158865120494976
_cell_length_b       9.65785839087517
_cell_length_c       14.353372428432474
_cell_angle_alpha    79.72399604663357
_cell_angle_beta     71.76421538152695
_cell_angle_gamma    65.26181098790912

_space_group_name_H-M_alt    "P 1"
_space_group_IT_number       1

loop_
  _space_group_symop_operation_xyz
  'x, y, z'

loop_
  _atom_site_type_symbol
  _atom_site_label
  _atom_site_symmetry_multiplicity
  _atom_site_fract_x
  _atom_site_fract_y
  _atom_site_fract_z
  _atom_site_occupancy
  Nd  Nd1       1.0  0.8908598922692476  0.8185991146201489  0.3757184170906528  1.0000
  Nd  Nd2       1.0  0.10913992015812815  0.18140281357849367  0.624278904492165  1.0000
  Cu  Cu1       1.0  0.5677349219489684  0.6190852496436603  0.056104074760291694  1.0000
  Cu  Cu2       1.0  0.432260542522627  0.38091773825418324  0.9438973950920726  1.0000
  H   H1        1.0  0.6000902381466983  0.7113544312543213  0.47107870403687013  1.0000
  H   H2        1.0  0.39990424651737294  0.28864505970953047  0.5289260958670354  1.0000
  H   H3        1.0  0.44255958377774335  0.8812991273434179  0.4677768103360052  1.0000
  H   H4        1.0  0.5574358704672945  0.11869822202145035  0.5322245573515261  1.0000
  H   H5        1.0  0.30682482460638005  0.6841398958489509  0.843917541081325  1.0000
  H   H6        1.0  0.6931627267781122  0.31586343623060037  0.15607972799298148  1.0000
  H   H7        1.0  0.021020743664116874  0.931372291530316  0.8816475757921937  1.0000
  H   H8        1.0  0.9789634807218731  0.06861854066722368  0.11835369158284696  1.0000
  H   H9        1.0  0.49225815065609885  0.0937794790584121  0.07367815447896929  1.0000
  H   H10       1.0  0.5077417230711275  0.9062194397188388  0.926309715853151  1.0000
  H   H11       1.0  0.9140804126150427  0.485681855366508  0.2535128185774838  1.0000
  H   H12       1.0  0.08593697869497427  0.514312697625172  0.746489810691017  1.0000
  H   H13       1.0  0.3220008915722445  0.023827357023627396  0.24350138764508242  1.0000
  H   H14       1.0  0.6780087115012989  0.9761757232445734  0.7564898858706569  1.0000
  H   H15       1.0  0.030025402576313774  0.23138301999516392  0.3339782860445055  1.0000
  H   H16       1.0  0.9699958262108405  0.7686172530879176  0.6660202699388551  1.0000
  H   H17       1.0  0.7844246028812872  0.9429599677364352  0.0418194436715424  1.0000
  H   H18       1.0  0.21556432416529958  0.057037536924667585  0.9581816775063531  1.0000
  H   H19       1.0  0.5792553412439146  0.06418497373292809  0.29351082920769045  1.0000
  H   H20       1.0  0.4207400185271552  0.935823878163916  0.7064851642859508  1.0000
  H   H21       1.0  0.5526511693703496  0.1338778807442296  0.3911767291765785  1.0000
  H   H22       1.0  0.4473523186731113  0.8661329742499645  0.6088210891636835  1.0000
  C   C1        1.0  0.04677100975038681  0.5301172877209196  0.5270676733142352  1.0000
  C   C2        1.0  0.9532448605937844  0.4698636325284369  0.4729380544957351  1.0000
  C   C3        1.0  0.08988631932360387  0.5759704885029393  0.06262749714633027  1.0000
  C   C4        1.0  0.9101033969376785  0.4240337761628227  0.9373734693917157  1.0000
  C   C5        1.0  0.14072543307197793  0.4278841220881233  0.11968889637689982  1.0000
  C   C6        1.0  0.8592772411643279  0.5721143625516875  0.8803082771229357  1.0000
  C   C7        1.0  0.2845213326581301  0.6269476845803225  0.21752459237743693  1.0000
  C   C8        1.0  0.7154865444908507  0.3730450541994728  0.7824722577760213  1.0000
  C   C9        1.0  0.22585771356320808  0.7887889793451207  0.16700310968922585  1.0000
  C   C10       1.0  0.7741565799964576  0.21119816288822343  0.832989003600936  1.0000
  C   C11       1.0  0.19638674793445426  0.6977714745310734  0.9123503503728543  1.0000
  C   C12       1.0  0.8036075972100818  0.3022226315490783  0.08764807152722649  1.0000
  C   C13       1.0  0.04027568514619152  0.8331528858967943  0.9342913706352292  1.0000
  C   C14       1.0  0.9597280017687451  0.16684337259427198  0.06570446259456726  1.0000
  C   C15       1.0  0.36403650269686955  0.1765249890533553  0.11679819827851644  1.0000
  C   C16       1.0  0.6359692300284366  0.8234780942061873  0.8831951587408542  1.0000
  C   C17       1.0  0.04056231989039817  0.3977981173688647  0.21394583914147353  1.0000
  C   C18       1.0  0.9594458934581879  0.6022080484731731  0.7860537206183267  1.0000
  C   C19       1.0  0.2702505695525304  0.13932111036211836  0.21054894737349628  1.0000
  C   C20       1.0  0.7297473219150988  0.860682176162868  0.789443695445044  1.0000
  C   C21       1.0  0.10663387427756996  0.25281232505323453  0.2596500427866175  1.0000
  C   C22       1.0  0.8933740130979685  0.7471860522595364  0.7403469095316737  1.0000
  C   C23       1.0  0.9282709712589249  0.7092367794428753  0.0892080342643737  1.0000
  C   C24       1.0  0.07172907071961276  0.2907674678515733  0.9107876087024634  1.0000
  C   C25       1.0  0.7659201162426538  0.728360445420009  0.18050659977575387  1.0000
  C   C26       1.0  0.23407753958657912  0.2716292167599477  0.8194882146445509  1.0000
  C   C27       1.0  0.907666489331653  0.8377483983441819  0.023356686842845396  1.0000
  C   C28       1.0  0.09233030965229008  0.16226581865041814  0.9766454550303649  1.0000
  C   C29       1.0  0.10075309615566394  0.9721300365802603  0.46516537540654923  1.0000
  C   C30       1.0  0.8992424650408422  0.027875650723189004  0.5348532161663968  1.0000
  N   N1        1.0  0.21879833232396353  0.5756151125507357  0.9752661571846132  1.0000
  N   N2        1.0  0.7811994630248122  0.4243799345129275  0.02473503523952295  1.0000
  N   N3        1.0  0.30167155035689325  0.31634541794542764  0.07328941667865506  1.0000
  N   N4        1.0  0.6983384690243427  0.6836596150362907  0.9267092433218735  1.0000
  O   O1        1.0  0.016688667732637268  0.6705418212596754  0.514099474155323  1.0000
  O   O2        1.0  0.9833084265446671  0.3294632686652506  0.48590496866491856  1.0000
  O   O3        1.0  0.3318221173132299  0.8065096337166507  0.0823243724567533  1.0000
  O   O4        1.0  0.6681758932208267  0.193487760626077  0.9176744440359528  1.0000
  O   O5        1.0  0.428820715463601  0.5235628130098037  0.16823715237979547  1.0000
  O   O6        1.0  0.5711788061127621  0.47643980551440984  0.8317712990697076  1.0000
  O   O7        1.0  0.18391545995163475  0.6060394794425221  0.3003566521247123  1.0000
  O   O8        1.0  0.8160730325850662  0.39395899737669277  0.6996486257654198  1.0000
  O   O9        1.0  0.565076892696254  0.8178490595912962  0.4841206987695871  1.0000
  O   O10       1.0  0.4349119053603727  0.1821459286912273  0.515886982232395  1.0000
  O   O11       1.0  0.6480298061176343  0.07814929091101419  0.3331824757382265  1.0000
  O   O12       1.0  0.35196788039127797  0.9218572868678906  0.6668126451765631  1.0000
  O   O13       1.0  0.7655278829560787  0.7886173219798635  0.25251323717117913  1.0000
  O   O14       1.0  0.23447559900014164  0.21138222776512092  0.7474850741548735  1.0000
  O   O15       1.0  0.0763939435382072  0.8897070504203125  0.21069106867953016  1.0000
  O   O16       1.0  0.9236129496639193  0.11028785814171725  0.7893085163748524  1.0000
  O   O17       1.0  0.636482722898499  0.6941285318714207  0.17589821664647332  1.0000
  O   O18       1.0  0.36352652991257617  0.3058583794899263  0.824102485610574  1.0000
  O   O19       1.0  0.14555754023967893  0.4333002582531051  0.5805042105573506  1.0000
  O   O20       1.0  0.8544395294451803  0.5666992213221034  0.4194994327826151  1.0000
  O   O21       1.0  0.1316581582325894  0.904763121728884  0.390689830386016  1.0000
  O   O22       1.0  0.8683501023529843  0.0952372928471661  0.6093124164707291  1.0000
  O   O23       1.0  0.2202605252766077  0.0010417531476462954  0.4898644037722661  1.0000
  O   O24       1.0  0.7797070451246667  0.9989714958335868  0.5101500197935421  1.0000
