data_image0
_chemical_formula_structural       Al4H21C25O21F
_chemical_formula_sum              "Al4 H21 C25 O21 F1"
_cell_length_a       6.674083671758764
_cell_length_b       12.587681561789969
_cell_length_c       17.48661278987319
_cell_angle_alpha    89.73979218165651
_cell_angle_beta     90.39551470314206
_cell_angle_gamma    89.19306080086233

_space_group_name_H-M_alt    "P 1"
_space_group_IT_number       1

loop_
  _space_group_symop_operation_xyz
  'x, y, z'

loop_
  _atom_site_type_symbol
  _atom_site_label
  _atom_site_symmetry_multiplicity
  _atom_site_fract_x
  _atom_site_fract_y
  _atom_site_fract_z
  _atom_site_occupancy
  Al  Al1       1.0  0.8817503282423825  0.5020002909780815  0.4995492229354711  1.0000
  Al  Al2       1.0  0.38219459540123774  0.5019560078037413  0.4983217850874552  1.0000
  Al  Al3       1.0  0.3717961947256113  0.9963296694218826  0.0014070165185913  1.0000
  Al  Al4       1.0  0.8706674657825672  0.9995006643649444  0.9994262502304921  1.0000
  H   H1        1.0  0.4228492085402493  0.2025839712580931  0.18478363712095106  1.0000
  H   H2        1.0  0.9664470493886766  0.18775570724847057  0.20698153472245207  1.0000
  H   H3        1.0  0.43294971284519324  0.2991585051415483  0.30725804006657154  1.0000
  H   H4        1.0  0.9715023417112931  0.30405878846742235  0.2997461353267425  1.0000
  H   H5        1.0  0.8316474204049482  0.3152885597225819  0.6903844999883405  1.0000
  H   H6        1.0  0.2937668925072358  0.29917820485034236  0.7007371653704555  1.0000
  H   H7        1.0  0.27074679168882904  0.19313895563746533  0.7988751094870565  1.0000
  H   H8        1.0  0.49730577730799297  0.7607481196645975  0.1854827078768366  1.0000
  H   H9        1.0  0.9317255412977159  0.6871729265775243  0.30911520772156115  1.0000
  H   H10       1.0  0.476648250942091  0.7314272828034588  0.30928421000264456  1.0000
  H   H11       1.0  0.9275692295676304  0.8149752336845281  0.8032712683712975  1.0000
  H   H12       1.0  0.4734601834139908  0.775828611915223  0.8120916559004883  1.0000
  H   H13       1.0  0.9306813883634815  0.688292603202292  0.6953843918302881  1.0000
  H   H14       1.0  0.473092988142767  0.7227059338720778  0.6878407941376994  1.0000
  H   H15       1.0  0.13007346024138397  0.8201022160058783  0.3026313705676955  1.0000
  H   H16       1.0  0.027694167448110797  0.9452878140012615  0.2701338557550059  1.0000
  H   H17       1.0  0.2434560366661103  0.8895946393122498  0.22399679593220165  1.0000
  H   H18       1.0  0.6351796707843604  0.3686871332489119  0.4723903685003065  1.0000
  H   H19       1.0  0.13056984659057488  0.6347952161758456  0.5257481052283666  1.0000
  H   H20       1.0  0.6136669587574132  0.13009223826703928  0.971046683181477  1.0000
  H   H21       1.0  0.1183277912330141  0.8683809444503364  0.03193519811697602  1.0000
  C   C1        1.0  0.6258510257568871  0.6299644988375234  0.3946878834915069  1.0000
  C   C2        1.0  0.6318088885334489  0.6247739346564741  0.6053329985242188  1.0000
  C   C3        1.0  0.1390158854425891  0.3789084018430983  0.6057531302305179  1.0000
  C   C4        1.0  0.1317124471796447  0.3815567577244181  0.3911798274589487  1.0000
  C   C5        1.0  0.28078368887032906  0.21804525548478884  0.21372307234251056  1.0000
  C   C6        1.0  0.11421175587954478  0.17749465919882823  0.18149473586531437  1.0000
  C   C7        1.0  0.2856737160744842  0.2800272341304293  0.2836484841369753  1.0000
  C   C8        1.0  0.12304371306758097  0.3175025557750357  0.3209730011148509  1.0000
  C   C9        1.0  0.9759848399429668  0.29136573799424065  0.7155111667652179  1.0000
  C   C10       1.0  0.14438237345141403  0.318240754978774  0.6785234816396297  1.0000
  C   C11       1.0  0.9679325078286565  0.2328180588060036  0.7870701944454552  1.0000
  C   C12       1.0  0.12348943817465141  0.18599976193144835  0.8246634799222508  1.0000
  C   C13       1.0  0.7999775282059929  0.7825208579995218  0.21597786785061865  1.0000
  C   C14       1.0  0.6369282838924801  0.7984019652036096  0.16961026571221544  1.0000
  C   C15       1.0  0.790821905664636  0.7207257575789183  0.2868790902190597  1.0000
  C   C16       1.0  0.623410752326869  0.6999998521506894  0.3264218191693971  1.0000
  C   C17       1.0  0.7844937761985803  0.7836239457983891  0.7833479589001302  1.0000
  C   C18       1.0  0.6211382879188817  0.8071851124349505  0.825466283909215  1.0000
  C   C19       1.0  0.7856755389236199  0.7186126029973606  0.7150872976080224  1.0000
  C   C20       1.0  0.6225313963833656  0.6936606305480382  0.6730671647749205  1.0000
  C   C21       1.0  0.6294018810822022  0.876755118581478  0.8934375257034475  1.0000
  C   C22       1.0  0.6262702835047945  0.8686911378979758  0.1026752928424486  1.0000
  C   C23       1.0  0.11559310841695239  0.11603482596006387  0.10946156875208153  1.0000
  C   C24       1.0  0.12043516344181168  0.1225114225249442  0.8953666040328445  1.0000
  C   C25       1.0  0.1019742948752125  0.870958732435916  0.2521428206869345  1.0000
  O   O1        1.0  0.4630428845242632  0.6010597433731064  0.5752393864767245  1.0000
  O   O2        1.0  0.7954495294369008  0.6049968634198775  0.42399839724541283  1.0000
  O   O3        1.0  0.961389338410022  0.4101702543582347  0.4178482359553897  1.0000
  O   O4        1.0  0.8029540538275483  0.5938750563733918  0.5812307239473924  1.0000
  O   O5        1.0  0.9685349018026198  0.3996467149354855  0.575585006241063  1.0000
  O   O6        1.0  0.45446142765601377  0.6009573364036243  0.4183880525401237  1.0000
  O   O7        1.0  0.6335588788745669  0.4371476461256733  0.4974573311343351  1.0000
  O   O8        1.0  0.3095340983471644  0.40525638871942965  0.5796968553857909  1.0000
  O   O9        1.0  0.30169518753217517  0.4041809839757704  0.42031460045926394  1.0000
  O   O10       1.0  0.13037824966464479  0.5664345381657226  0.5005205515661546  1.0000
  O   O11       1.0  0.7866852107075883  0.8919099876837179  0.06789738557058912  1.0000
  O   O12       1.0  0.4623752585192093  0.8929152168561032  0.9270467871228121  1.0000
  O   O13       1.0  0.2919699889086687  0.08730219179303587  0.9175593458991288  1.0000
  O   O14       1.0  0.4505478663195959  0.9031161860812416  0.08399437710068722  1.0000
  O   O15       1.0  0.2830339717509105  0.0991722656585452  0.0767560777909395  1.0000
  O   O16       1.0  0.7989004438715311  0.9138867922337465  0.9126368428950402  1.0000
  O   O17       1.0  0.6181607529023552  0.06433370751515348  0.00018215294993240012  1.0000
  O   O18       1.0  0.9437400776258825  0.08559777906888398  0.08651348580683303  1.0000
  O   O19       1.0  0.9547232408306738  0.10609784775781607  0.9288588216415263  1.0000
  O   O20       1.0  0.12233545567094241  0.932684169262224  0.001141771514753  1.0000
  O   O21       1.0  0.9825440504334323  0.8195655126176857  0.1949230641632695  1.0000
  F   F1        1.0  0.7780035648608317  0.2273973696264733  0.8144530289222872  1.0000
