data_image0
_chemical_formula_structural       Na2H42C46S2N4O12
_chemical_formula_sum              "Na2 H42 C46 S2 N4 O12"
_cell_length_a       6.007738276
_cell_length_b       8.617746068754247
_cell_length_c       21.4
_cell_angle_alpha    99.66944184911493
_cell_angle_beta     90.0
_cell_angle_gamma    90.0

_space_group_name_H-M_alt    "P 1"
_space_group_IT_number       1

loop_
  _space_group_symop_operation_xyz
  'x, y, z'

loop_
  _atom_site_type_symbol
  _atom_site_label
  _atom_site_symmetry_multiplicity
  _atom_site_fract_x
  _atom_site_fract_y
  _atom_site_fract_z
  _atom_site_occupancy
  Na  Na1       1.0  0.9367901432196177  0.5106967542996799  0.9528297761473183  1.0000
  Na  Na2       1.0  0.436781677138427  0.4892990790510154  0.04716704482971319  1.0000
  H   H1        1.0  0.5753879149178829  0.8498060004398909  0.8919377098992881  1.0000
  H   H2        1.0  0.0753744552769504  0.1501945413881387  0.1080589622632715  1.0000
  H   H3        1.0  0.9349841391126574  0.8779779974542095  0.9566698624308003  1.0000
  H   H4        1.0  0.4349606923522344  0.12202607573181719  0.043332656064833906  1.0000
  H   H5        1.0  0.9110067297478892  0.1556504895000046  0.933816313211942  1.0000
  H   H6        1.0  0.41098827654722203  0.8443547608053592  0.06618535032305321  1.0000
  H   H7        1.0  0.2912993075932064  0.7300376395901793  0.7406741178552494  1.0000
  H   H8        1.0  0.7912961220349928  0.2699617251185131  0.2593238765576587  1.0000
  H   H9        1.0  0.5607185009136018  0.7680703652632133  0.7750456670778904  1.0000
  H   H10       1.0  0.0607150283921598  0.2319289994454792  0.2249513927555782  1.0000
  H   H11       1.0  0.3461818582058385  0.9118813885044972  0.7908976228811113  1.0000
  H   H12       1.0  0.8461753436077971  0.0881191533235324  0.20909951657116474  1.0000
  H   H13       1.0  0.3085803533429399  0.47452270005461367  0.8668624497010599  1.0000
  H   H14       1.0  0.808582161344475  0.5254849044894172  0.1331375039126854  1.0000
  H   H15       1.0  0.5502952772105729  0.5212614003199647  0.8267284671307636  1.0000
  H   H16       1.0  0.0502951337289588  0.47873914150806485  0.1732714760598313  1.0000
  H   H17       1.0  0.2955588140537699  0.4761447704965036  0.7842880522738795  1.0000
  H   H18       1.0  0.7955622865752119  0.5238581255701931  0.21571158286462122  1.0000
  H   H19       1.0  0.9083401688452639  0.9757766030590602  0.8037119349568513  1.0000
  H   H20       1.0  0.4083466834433054  0.024218053172298  0.1962913484574429  1.0000
  H   H21       1.0  0.5742260800177377  0.2625246851679677  0.7623932748126522  1.0000
  H   H22       1.0  0.0742409172153486  0.7374640854667263  0.23761101237674612  1.0000
  H   H23       1.0  0.1541861441768333  0.1452930164824551  0.7048274295318607  1.0000
  H   H24       1.0  0.6541962747779309  0.8547110567035716  0.2951760235432062  1.0000
  H   H25       1.0  0.38237351470135644  0.3026032442430306  0.6423877809690666  1.0000
  H   H26       1.0  0.8823952969418585  0.6974067145396674  0.3576142010411801  1.0000
  H   H27       1.0  0.241087399859957  0.558113475301262  0.619270625975112  1.0000
  H   H28       1.0  0.7411258272996051  0.4418929521234318  0.3807320517581374  1.0000
  H   H29       1.0  0.8653339678208027  0.6547608581977187  0.6587885696212012  1.0000
  H   H30       1.0  0.3653754373370433  0.3452373293916438  0.3412158872289623  1.0000
  H   H31       1.0  0.6346381657855034  0.49350374931112373  0.719349574065788  1.0000
  H   H32       1.0  0.1346629901025977  0.5064861984429072  0.2806561946115806  1.0000
  H   H33       1.0  0.1863363463205587  0.875357729817317  0.6422987057225812  1.0000
  H   H34       1.0  0.6863381543220869  0.124629863698047  0.3576989597919323  1.0000
  H   H35       1.0  0.1252717687464084  0.7044917958094246  0.5370798752662012  1.0000
  H   H36       1.0  0.6252685831881948  0.2955040375412707  0.4629164784211143  1.0000
  H   H37       1.0  0.4200216261218515  0.682726859328632  0.45394417203825554  1.0000
  H   H38       1.0  0.9200151115238099  0.3172772138573947  0.546051337111578  1.0000
  H   H39       1.0  0.7719211102331301  0.8351026028421842  0.4753936586135907  1.0000
  H   H40       1.0  0.2719276248311715  0.164910887298511  0.5246038893558947  1.0000
  H   H41       1.0  0.8307618892018453  0.0067919785556612  0.5798888397951387  1.0000
  H   H42       1.0  0.330765074760059  0.9932085632723684  0.4201101688160165  1.0000
  C   C1        1.0  0.3093110775852992  0.7098947735512766  0.8401976620599428  1.0000
  C   C2        1.0  0.8093062275071715  0.2901081225154201  0.1598001039196788  1.0000
  C   C3        1.0  0.4132403719912006  0.8020549775475274  0.9027289212262062  1.0000
  C   C4        1.0  0.9132255347935896  0.1979479185191693  0.0972679101739757  1.0000
  C   C5        1.0  0.0246864948482326  0.9025221126819574  0.914847283990632  1.0000
  C   C6        1.0  0.5246683286107938  0.0974807833847393  0.0851546875964644  1.0000
  C   C7        1.0  0.9975151587312611  0.071012078046337  0.8980578369432521  1.0000
  C   C8        1.0  0.4975050281301563  0.9289908180203597  0.1019432000644045  1.0000
  C   C9        1.0  0.2567122482950168  0.076742294962969  0.9012407484208182  1.0000
  C   C10       1.0  0.7566874239779225  0.9232735494164004  0.0987569587862893  1.0000
  C   C11       1.0  0.3809054081369894  0.785056197249034  0.7833744730710139  1.0000
  C   C12       1.0  0.8809005580588618  0.2149455216983256  0.2166232132897932  1.0000
  C   C13       1.0  0.3683832248220895  0.5351655338900656  0.8290717282714368  1.0000
  C   C14       1.0  0.8683817037837969  0.4648385392959682  0.1709275191961552  1.0000
  C   C15       1.0  0.4418334950781713  0.7007838699081574  0.9551099171312246  1.0000
  C   C16       1.0  0.9418286450000437  0.299214317681205  0.044885661214273405  1.0000
  C   C17       1.0  0.842318650966476  0.2140532652433578  0.8201380958754783  1.0000
  C   C18       1.0  0.3423185074848618  0.7859449223460047  0.1798640245260898  1.0000
  C   C19       1.0  0.7396660433348076  0.2089068995162577  0.7539741145807923  1.0000
  C   C20       1.0  0.2396758869726767  0.7910854024764333  0.2460280750164401  1.0000
  C   C21       1.0  0.8782539713952104  0.3083628891430052  0.7156610006739257  1.0000
  C   C22       1.0  0.3782738021525631  0.6916364755656872  0.28434213392589675  1.0000
  C   C23       1.0  0.0892815191605081  0.2555902751729207  0.6938419974029912  1.0000
  C   C24       1.0  0.5892916497616056  0.7444102666551089  0.3061612168156387  1.0000
  C   C25       1.0  0.2181553090013466  0.3447052714527956  0.6588453200868827  1.0000
  C   C26       1.0  0.7181770912418487  0.6553023330912353  0.3411579045549047  1.0000
  C   C27       1.0  0.1381751271216629  0.4880642808699207  0.6458793190888913  1.0000
  C   C28       1.0  0.6382035674418276  0.5119374380774389  0.3541230401691138  1.0000
  C   C29       1.0  0.9279532069948643  0.5416185020776112  0.6675993200918384  1.0000
  C   C30       1.0  0.4279863539115354  0.4583820397504184  0.3324052959959545  1.0000
  C   C31       1.0  0.7978792982958468  0.4513546373280093  0.7020762333730773  1.0000
  C   C32       1.0  0.2979024580930343  0.548642373142016  0.2979281438582788  1.0000
  C   C33       1.0  0.7132917252935301  0.0505302016393188  0.7116191985937591  1.0000
  C   C34       1.0  0.2133015689313993  0.9494621003533795  0.2883829910034734  1.0000
  C   C35       1.0  0.5127270627459666  0.9468783234158238  0.6164227136933675  1.0000
  C   C36       1.0  0.0127252547444385  0.0531104472188701  0.3835754987296696  1.0000
  C   C37       1.0  0.3136088680038895  0.8641927529368232  0.6054930540050449  1.0000
  C   C38       1.0  0.8136023534058481  0.1357983719365379  0.3945062522350611  1.0000
  C   C39       1.0  0.2812039943132802  0.768995581059535  0.546512920360982  1.0000
  C   C40       1.0  0.781195815195332  0.230994366694496  0.4534849043911464  1.0000
  C   C41       1.0  0.44602974978199933  0.7568053332393561  0.4999117524342651  1.0000
  C   C42       1.0  0.9460265642237857  0.24319403146934354  0.5000871765580756  1.0000
  C   C43       1.0  0.644402239602492  0.8413848887263384  0.512002229070788  1.0000
  C   C44       1.0  0.1444037606407846  0.158613298863024  0.48799288198498664  1.0000
  C   C45       1.0  0.679000950540079  0.9376520620779942  0.5704799698594344  1.0000
  C   C46       1.0  0.17899414897880206  0.062347302630698195  0.4295203610020693  1.0000
  S   S1        1.0  0.0027880708563686  0.731527872666689  0.851966971345476  1.0000
  S   S2        1.0  0.5027765626985854  0.2684762005193377  0.148033677991279  1.0000
  N   N1        1.0  0.2648234538371526  0.9338252471240196  0.9234636524674826  1.0000
  N   N2        1.0  0.7648052875997138  0.0661800031813442  0.07653520732920072  1.0000
  N   N3        1.0  0.9079573292649883  0.07717194351977949  0.8364356971375102  1.0000
  N   N4        1.0  0.407958850303288  0.9228309525469172  0.1635672090290257  1.0000
  O   O1        1.0  0.4019665786119901  0.1610028511105099  0.8856900221911773  1.0000
  O   O2        1.0  0.9019667220936043  0.839003576314191  0.11430844993459739  1.0000
  O   O3        1.0  0.6377441599454912  0.6764080827451338  0.9727546287249993  1.0000
  O   O4        1.0  0.1377173841452475  0.3235936362022258  0.0272425903460913  1.0000
  O   O5        1.0  0.2656873396726525  0.6508999067830601  0.9779302236575449  1.0000
  O   O6        1.0  0.765664179875465  0.3490994579256324  0.022063565147881492  1.0000
  O   O7        1.0  0.8573359496328338  0.343417502901687  0.8553493386023446  1.0000
  O   O8        1.0  0.3573241545118222  0.6565818618070054  0.1446495903900029  1.0000
  O   O9        1.0  0.8372135683894726  0.9370423142631239  0.7080181665673778  1.0000
  O   O10       1.0  0.3372150894277723  0.0629511648489043  0.2919841026486694  1.0000
  O   O11       1.0  0.5327229404758427  0.0554093612776541  0.6730253867920482  1.0000
  O   O12       1.0  0.0327244615141424  0.94457940935704  0.3269746947898682  1.0000
