data_image0
_chemical_formula_structural       Bi2H20C60S6N4F30
_chemical_formula_sum              "Bi2 H20 C60 S6 N4 F30"
_cell_length_a       8.868578829159134
_cell_length_b       12.75568877749119
_cell_length_c       18.53
_cell_angle_alpha    75.94632360105942
_cell_angle_beta     81.87373790062921
_cell_angle_gamma    72.19366516887574

_space_group_name_H-M_alt    "P 1"
_space_group_IT_number       1

loop_
  _space_group_symop_operation_xyz
  'x, y, z'

loop_
  _atom_site_type_symbol
  _atom_site_label
  _atom_site_symmetry_multiplicity
  _atom_site_fract_x
  _atom_site_fract_y
  _atom_site_fract_z
  _atom_site_occupancy
  Bi  Bi1       1.0  0.2736283381360352  0.050575528565865085  0.24497507853391912  1.0000
  Bi  Bi2       1.0  0.7263782996895074  0.9494489913272799  0.7550121707359593  1.0000
  H   H1        1.0  0.5216695660271925  0.9108313244105373  0.11730487297511871  1.0000
  H   H2        1.0  0.47831056178986114  0.08916539238005328  0.8826893570185134  1.0000
  H   H3        1.0  0.7559065764593528  0.9129923837447221  0.02763150235212921  1.0000
  H   H4        1.0  0.24407945012929838  0.0870009629728443  0.9723645109068784  1.0000
  H   H5        1.0  0.8684312052966874  0.13122811645759916  0.14568609446745742  1.0000
  H   H6        1.0  0.13157559896682613  0.8687559625591134  0.8543122209607432  1.0000
  H   H7        1.0  0.6286576771253962  0.11976397050820957  0.23046722262986918  1.0000
  H   H8        1.0  0.37133839687708564  0.880232746282388  0.7695291665421209  1.0000
  H   H9        1.0  0.0306225859893132  0.0917038998942417  0.03261740579472419  1.0000
  H   H10       1.0  0.9693837506202667  0.9082784940859554  0.9673785246154623  1.0000
  H   H11       1.0  0.6237345402594414  0.8440777602365228  0.3077456145061107  1.0000
  H   H12       1.0  0.37626581435956297  0.15592822425492156  0.6922635068450305  1.0000
  H   H13       1.0  0.724125177847867  0.6561827082009373  0.39083134187235663  1.0000
  H   H14       1.0  0.27587082442352784  0.34381990621747593  0.60917809760587  1.0000
  H   H15       1.0  0.23859491808784847  0.676985326532403  0.47563619366761856  1.0000
  H   H16       1.0  0.7613884833067599  0.3230231855138186  0.5243623191477482  1.0000
  H   H17       1.0  0.15843133693925893  0.8646419459007149  0.3902580505942836  1.0000
  H   H18       1.0  0.8415585628551695  0.1353674086637682  0.609737723085118  1.0000
  H   H19       1.0  0.6747340222021236  0.5027171648168931  0.4876388525192112  1.0000
  H   H20       1.0  0.3252381325222161  0.49727955197370477  0.5123640118625801  1.0000
  C   C1        1.0  0.3206895397415154  0.2680311762345937  0.09930859260616391  1.0000
  C   C2        1.0  0.6792997604246905  0.7319739657385894  0.9006895448129413  1.0000
  C   C3        1.0  0.4278566269424218  0.25139396817532134  0.036721260165450124  1.0000
  C   C4        1.0  0.5721580069516249  0.7486019060970149  0.9632799505210698  1.0000
  C   C5        1.0  0.55151578562014  0.30112866351876727  0.016838190931373696  1.0000
  C   C6        1.0  0.448498440863169  0.698873950899646  0.9831629999661686  1.0000
  C   C7        1.0  0.5718725949594656  0.371093907295858  0.059753183585797766  1.0000
  C   C8        1.0  0.42812186088793425  0.6289154472686249  0.9402503768421155  1.0000
  C   C9        1.0  0.4669582353296917  0.3907877715985606  0.12182125142460619  1.0000
  C   C10       1.0  0.533036363979889  0.6092097877102987  0.8781826519957932  1.0000
  C   C11       1.0  0.3446008437889603  0.3395382284255462  0.1409223607585943  1.0000
  C   C12       1.0  0.6553994505868417  0.660459330883313  0.8590784590440279  1.0000
  C   C13       1.0  0.9972847166742085  0.1575938828528436  0.3651442511255567  1.0000
  C   C14       1.0  0.0027112855971865714  0.8424087315655696  0.6348581727023656  1.0000
  C   C15       1.0  0.9211413948510695  0.27297844345108757  0.34073323992009813  1.0000
  C   C16       1.0  0.07885481112569441  0.7270208008942873  0.6592675748061011  1.0000
  C   C17       1.0  0.9288795006330374  0.3540261724062644  0.377587861512545  1.0000
  C   C18       1.0  0.07111000323853747  0.6459755994938874  0.6224119047972679  1.0000
  C   C19       1.0  0.014802783827427394  0.3217341325776388  0.4408483460967076  1.0000
  C   C20       1.0  0.9851892017760093  0.6782642692494746  0.5591512759912973  1.0000
  C   C21       1.0  0.09122093347266258  0.20811549025012968  0.467074013803284  1.0000
  C   C22       1.0  0.9087772148509359  0.7918845966134994  0.5329249096849509  1.0000
  C   C23       1.0  0.08144036934185549  0.1283290111285851  0.42949050791418836  1.0000
  C   C24       1.0  0.9185648167665833  0.8716677056620055  0.5705095821158678  1.0000
  C   C25       1.0  0.23618773530158435  0.7932393659738748  0.22192404164955096  1.0000
  C   C26       1.0  0.7638321145168518  0.20676914607234656  0.7780881952672587  1.0000
  C   C27       1.0  0.09839083737442426  0.7679452828039997  0.2591448962938117  1.0000
  C   C28       1.0  0.9016296952912198  0.2320472213952982  0.7408537803348167  1.0000
  C   C29       1.0  0.10308966798419307  0.6633609637670971  0.3052834106161626  1.0000
  C   C30       1.0  0.8969338857983402  0.3366239577678769  0.6947060754986579  1.0000
  C   C31       1.0  0.2474101766272341  0.5798766720070674  0.31507982916613736  1.0000
  C   C32       1.0  0.752615511719611  0.42012004478353043  0.6849145564939718  1.0000
  C   C33       1.0  0.3868714166080949  0.6018596584193077  0.2787914940556888  1.0000
  C   C34       1.0  0.6131519219811637  0.39814295599909844  0.7212106993728822  1.0000
  C   C35       1.0  0.3794108658458484  0.7068804019143471  0.2323394518694428  1.0000
  C   C36       1.0  0.6206065022407331  0.2931314802049129  0.7676696912767299  1.0000
  C   C37       1.0  0.6027782305576324  0.9576938750092551  0.1217590114605684  1.0000
  C   C38       1.0  0.3972100740575044  0.0422994717083043  0.8782341493551015  1.0000
  C   C39       1.0  0.7342214907481548  0.9595406750328548  0.07190849597164124  1.0000
  C   C40       1.0  0.2657733839978889  0.04044761657515749  0.9280888430219036  1.0000
  C   C41       1.0  0.8341277204354398  0.023331015626546  0.0781238672998583  1.0000
  C   C42       1.0  0.1658678256699133  0.9766555909449437  0.9218780252678229  1.0000
  C   C43       1.0  0.7946162443839242  0.0816939404597861  0.136796541630666  1.0000
  C   C44       1.0  0.2053831864150979  0.9182943511482262  0.863204266788138  1.0000
  C   C45       1.0  0.6607687779102349  0.0750237234037598  0.18465970499445916  1.0000
  C   C46       1.0  0.33922609683580873  0.9249645682042456  0.8153392529953081  1.0000
  C   C47       1.0  0.9718318218891467  0.0309162075117726  0.026479869733442706  1.0000
  C   C48       1.0  0.028163927921582423  0.9690670289866787  0.9735236517249459  1.0000
  C   C49       1.0  0.5421131848640713  0.804316796042407  0.34620004262884413  1.0000
  C   C50       1.0  0.45788603074168316  0.19568918844903746  0.653808616115036  1.0000
  C   C51       1.0  0.5977475778869774  0.6991949503563006  0.3925350619128166  1.0000
  C   C52       1.0  0.40224594265254854  0.300811034135144  0.6074739821218031  1.0000
  C   C53       1.0  0.4896678554947228  0.647439053709661  0.4391574704198645  1.0000
  C   C54       1.0  0.5103170205927866  0.3525686158182992  0.5608432421244132  1.0000
  C   C55       1.0  0.32856545868975234  0.7096244838837079  0.4390340549495447  1.0000
  C   C56       1.0  0.6714233020914264  0.290384870680775  0.5609639544496332  1.0000
  C   C57       1.0  0.2826676036151383  0.8144312277409751  0.39184798982058316  1.0000
  C   C58       1.0  0.7173265165526175  0.1855789693417691  0.6081516748240361  1.0000
  C   C59       1.0  0.5463873536080683  0.5336788683146523  0.483383300571532  1.0000
  C   C60       1.0  0.4535888780274178  0.4663304862498307  0.5166166357981012  1.0000
  S   S1        1.0  0.1645284991637581  0.2057724469720199  0.12198970898667479  1.0000
  S   S2        1.0  0.8354695171855582  0.7942251123368321  0.8780026302857208  1.0000
  S   S3        1.0  0.9848970099389902  0.0586047275735524  0.3166934031439936  1.0000
  S   S4        1.0  0.015105419001123692  0.9414046269909305  0.6833047608882126  1.0000
  S   S5        1.0  0.22762534910210508  0.9255855041610843  0.1639097534373164  1.0000
  S   S6        1.0  0.7723786865051919  0.07442553543991438  0.8361096068440119  1.0000
  N   N1        1.0  0.5648888381859009  0.0148148410651885  0.1772750458412062  1.0000
  N   N2        1.0  0.43510073741676797  0.9851810332071479  0.8227165271510373  1.0000
  N   N3        1.0  0.38685717256336005  0.8609508734082993  0.3450127328324866  1.0000
  N   N4        1.0  0.6131409642723467  0.1390635362657306  0.6549918922136868  1.0000
  F   F1        1.0  0.4139137197582059  0.1837869330050026  0.9935442560141112  1.0000
  F   F2        1.0  0.5861019814179971  0.8162148388951491  0.00645373795827447  1.0000
  F   F3        1.0  0.6530259532462422  0.2812882010390041  0.9568177021758402  1.0000
  F   F4        1.0  0.3469806960671988  0.7187219960437331  0.04318273382536831  1.0000
  F   F5        1.0  0.6912425491616715  0.4196785652158467  0.0412305695570225  1.0000
  F   F6        1.0  0.3087531174300651  0.5803248917208208  0.9587792914611697  1.0000
  F   F7        1.0  0.4850821348507138  0.4597192454719305  0.1628431675188224  1.0000
  F   F8        1.0  0.5149049590200931  0.5402799988734442  0.8371604223341933  1.0000
  F   F9        1.0  0.24710629665899111  0.3603863427429985  0.20234191969743157  1.0000
  F   F10       1.0  0.7528821399304277  0.639609531529338  0.7976545873416255  1.0000
  F   F11       1.0  0.8366685173368752  0.30827658842760286  0.2800123350874273  1.0000
  F   F12       1.0  0.16333472642472915  0.6917192858447334  0.7199874875189566  1.0000
  F   F13       1.0  0.8523656169088056  0.4636226325655954  0.3529017846669474  1.0000
  F   F14       1.0  0.1476120291763863  0.5363774542980337  0.6471017638604194  1.0000
  F   F15       1.0  0.020171411915370602  0.3995179457976903  0.4778449166376504  1.0000
  F   F16       1.0  0.9798325634487313  0.600484668620723  0.5221494124675274  1.0000
  F   F17       1.0  0.17231390512792194  0.17664069313268266  0.5289959110934106  1.0000
  F   F18       1.0  0.8276775410904875  0.8233619212857306  0.4710041226400747  1.0000
  F   F19       1.0  0.15714071321575324  0.019170660463906596  0.45729654349865706  1.0000
  F   F20       1.0  0.8428581064671478  0.9808277413632138  0.5427058542328993  1.0000
  F   F21       1.0  0.9556394776571794  0.8462135440229375  0.2521958282913914  1.0000
  F   F22       1.0  0.0443728179671865  0.1537739050668137  0.7478080282710593  1.0000
  F   F23       1.0  0.9690196291859435  0.6431042972674206  0.3421506049878644  1.0000
  F   F24       1.0  0.030994955952806404  0.3568688290119226  0.6578204126299738  1.0000
  F   F25       1.0  0.2525492601702339  0.47889580356364536  0.3604442742210665  1.0000
  F   F26       1.0  0.7474702654564425  0.5210992281904296  0.639544334053916  1.0000
  F   F27       1.0  0.5267636335006999  0.5224801156168297  0.2901921777473291  1.0000
  F   F28       1.0  0.4732609760760909  0.4775250263563535  0.7098084278578156  1.0000
  F   F29       1.0  0.5169532618287248  0.7250316152849337  0.1983816248402448  1.0000
  F   F30       1.0  0.4830659768735969  0.274987006980396  0.8016327410547247  1.0000
