data_image0
_chemical_formula_structural       Zn2H20C12S4N8O8
_chemical_formula_sum              "Zn2 H20 C12 S4 N8 O8"
_cell_length_a       7.781068950026792
_cell_length_b       8.116950269383487
_cell_length_c       10.971862452685881
_cell_angle_alpha    89.72292504593129
_cell_angle_beta     101.83602875297255
_cell_angle_gamma    102.53487937730308

_space_group_name_H-M_alt    "P 1"
_space_group_IT_number       1

loop_
  _space_group_symop_operation_xyz
  'x, y, z'

loop_
  _atom_site_type_symbol
  _atom_site_label
  _atom_site_symmetry_multiplicity
  _atom_site_fract_x
  _atom_site_fract_y
  _atom_site_fract_z
  _atom_site_occupancy
  Zn  Zn1       1.0  0.39902297758939653  0.8675748704397751  0.2662514843974719  1.0000
  Zn  Zn2       1.0  0.6009793497486556  0.13243313058826803  0.733749745932073  1.0000
  H   H1        1.0  0.12115208252986781  0.13910346236578877  0.8510602331972522  1.0000
  H   H2        1.0  0.878846465330362  0.860891975969537  0.1489348965352804  1.0000
  H   H3        1.0  0.11772031434134082  0.2551112006199646  0.985589309045281  1.0000
  H   H4        1.0  0.8822755345297324  0.7448904243351537  0.014405446816255146  1.0000
  H   H5        1.0  0.2583547115786757  0.926687676534364  0.8647295091919461  1.0000
  H   H6        1.0  0.7416469228950077  0.07331028445779002  0.13527065452652207  1.0000
  H   H7        1.0  0.35089048921918936  0.8498870045337485  0.01119401079647991  1.0000
  H   H8        1.0  0.6491089303173113  0.15011329512558552  0.9888113013445973  1.0000
  H   H9        1.0  0.4671268875986813  0.6181282359530728  0.6208710555108397  1.0000
  H   H10       1.0  0.5328773494364754  0.38187609564851505  0.37912861989995156  1.0000
  H   H11       1.0  0.49443441041369596  0.7831716589753486  0.5138152046059474  1.0000
  H   H12       1.0  0.505569547254275  0.21683137606793684  0.486186245314336  1.0000
  H   H13       1.0  0.23705027349191005  0.39771801486078584  0.5835174120795017  1.0000
  H   H14       1.0  0.7629528431382085  0.6022874689739126  0.41648574703978625  1.0000
  H   H15       1.0  0.06696871169093303  0.3813352256771837  0.44712448539364397  1.0000
  H   H16       1.0  0.9330315200742447  0.618668929456078  0.5528773222133267  1.0000
  H   H17       1.0  0.5971296083310165  0.38714595956466286  0.09112528546977931  1.0000
  H   H18       1.0  0.4028548640194459  0.6128514932386724  0.9088704753076656  1.0000
  H   H19       1.0  0.874600177630427  0.9608041247802677  0.5935025506130887  1.0000
  H   H20       1.0  0.12540917507958232  0.03919287548974641  0.4064960327197085  1.0000
  C   C1        1.0  0.23871627421733171  0.05489520361916792  0.016872002357416715  1.0000
  C   C2        1.0  0.7612834893685945  0.9451064781008826  0.9831269877882464  1.0000
  C   C3        1.0  0.26844841764665267  0.5935314438194157  0.4659594194220702  1.0000
  C   C4        1.0  0.731554805411321  0.40646783835283895  0.534040078049216  1.0000
  C   C5        1.0  0.5192136633727884  0.6049448059432906  0.16212036514393452  1.0000
  C   C6        1.0  0.48077579235178547  0.395051482989942  0.8378797841978808  1.0000
  C   C7        1.0  0.5322143170448399  0.4907883813873469  0.0606029596046511  1.0000
  C   C8        1.0  0.46777277373983134  0.5092091206596053  0.9393950176974144  1.0000
  C   C9        1.0  0.7676972407794623  0.9723174331886925  0.3904371189218382  1.0000
  C   C10       1.0  0.23230681037991016  0.027679383091673115  0.6095615788476395  1.0000
  C   C11       1.0  0.9128979565469206  0.9830211457803274  0.5035799256427042  1.0000
  C   C12       1.0  0.08710637397964402  0.016976967058340606  0.4964169976172812  1.0000
  S   S1        1.0  0.29596871896917787  0.09805544098799152  0.1758422946432532  1.0000
  S   S2        1.0  0.7040258077483443  0.9019461422448318  0.8241522624531612  1.0000
  S   S3        1.0  0.1682044215710334  0.6754442288264997  0.33142133197819135  1.0000
  S   S4        1.0  0.8317995490333774  0.32455882331726843  0.6685792084449107  1.0000
  N   N1        1.0  0.1512707052912674  0.15812889023634114  0.9456339984794511  1.0000
  N   N2        1.0  0.8487285642425065  0.8418702838695256  0.05436399319926722  1.0000
  N   N3        1.0  0.2771522168052769  0.9270531541979922  0.9605418489983392  1.0000
  N   N4        1.0  0.7228475755898173  0.07294222325671741  0.03945893648243266  1.0000
  N   N5        1.0  0.420948278804353  0.6735448918739169  0.5402383991657588  1.0000
  N   N6        1.0  0.5790527939986702  0.32645681446794594  0.4597616992422147  1.0000
  N   N7        1.0  0.1851939678410517  0.44337643995973514  0.5001075011371158  1.0000
  N   N8        1.0  0.814807066152632  0.5566252150806649  0.4998953257624097  1.0000
  O   O1        1.0  0.45080358943770443  0.7345320509953128  0.12978949169534104  1.0000
  O   O2        1.0  0.5491945338181381  0.26546824114269196  0.8702138026862372  1.0000
  O   O3        1.0  0.5737795384066757  0.5716035208390552  0.2733774997855321  1.0000
  O   O4        1.0  0.42622050748271784  0.4283931189729914  0.7266233301801179  1.0000
  O   O5        1.0  0.60501195176672  0.9344763217607339  0.4104730196299898  1.0000
  O   O6        1.0  0.3949949037026385  0.06552805908447112  0.5895288723054293  1.0000
  O   O7        1.0  0.8063114155690342  0.9978097278330155  0.2854299924634844  1.0000
  O   O8        1.0  0.1936873728490411  0.0021869557591572032  0.7145660912511076  1.0000
