data_image0
_chemical_formula_structural       Fe2H16C24N8
_chemical_formula_sum              "Fe2 H16 C24 N8"
_cell_length_a       6.894641794716778
_cell_length_b       6.552384858807208
_cell_length_c       13.027401454883462
_cell_angle_alpha    91.77684339926309
_cell_angle_beta     105.34843076320551
_cell_angle_gamma    89.97891888519642

_space_group_name_H-M_alt    "P 1"
_space_group_IT_number       1

loop_
  _space_group_symop_operation_xyz
  'x, y, z'

loop_
  _atom_site_type_symbol
  _atom_site_label
  _atom_site_symmetry_multiplicity
  _atom_site_fract_x
  _atom_site_fract_y
  _atom_site_fract_z
  _atom_site_occupancy
  Fe  Fe1       1.0  0.5471218274989909  0.7494173986191014  0.00013146303747651116  1.0000
  Fe  Fe2       1.0  0.45288410285965597  0.2505829996998301  0.9998692849602121  1.0000
  H   H1        1.0  0.2926018225296474  0.6662268995837974  0.7568604325316669  1.0000
  H   H2        1.0  0.5350538386845188  0.8334530755097516  0.24306062953740337  1.0000
  H   H3        1.0  0.7073966216733751  0.3337780945809001  0.2431516183986773  1.0000
  H   H4        1.0  0.46494464602415764  0.16655647904418197  0.7569346093085372  1.0000
  H   H5        1.0  0.051423721484148595  0.2650401742886642  0.7979662295195452  1.0000
  H   H6        1.0  0.252640702047259  0.234751529352053  0.2018604019294017  1.0000
  H   H7        1.0  0.9485731112190264  0.7349510615845531  0.20203233579867685  1.0000
  H   H8        1.0  0.7473667689650795  0.7652534507083073  0.7981413996447486  1.0000
  H   H9        1.0  0.16044063861019708  0.7828191087286881  0.38692119802770714  1.0000
  H   H10       1.0  0.7725665810577453  0.7182122007486668  0.6129377481565967  1.0000
  H   H11       1.0  0.8395486602547989  0.2171706077690061  0.6130824291418264  1.0000
  H   H12       1.0  0.22742422388494532  0.2817775045678061  0.3870568785545315  1.0000
  H   H13       1.0  0.2570764860163735  0.7448135941573213  0.5792596303840724  1.0000
  H   H14       1.0  0.6769809984186638  0.7557091582828687  0.42068499593126046  1.0000
  H   H15       1.0  0.7429157465339955  0.25516696525655647  0.42074810598633405  1.0000
  H   H16       1.0  0.32300833925778955  0.24428512789932458  0.5793094951879495  1.0000
  C   C1        1.0  0.2509794723344001  0.8129616091124205  0.7852203159682032  1.0000
  C   C2        1.0  0.46496934445133326  0.6868019166105906  0.21469399712140097  1.0000
  C   C3        1.0  0.7490340879052226  0.18705253530651325  0.2147847819272428  1.0000
  C   C4        1.0  0.5350276234449397  0.3132061138125621  0.7853033086887606  1.0000
  C   C5        1.0  0.1252191939334892  0.11755598200038256  0.8063081918713234  1.0000
  C   C6        1.0  0.3182918121865724  0.382122643395995  0.1936133796637591  1.0000
  C   C7        1.0  0.8747777240777806  0.882445945285319  0.19369285170178327  1.0000
  C   C8        1.0  0.6816931109234403  0.6178838612256711  0.8063829824263918  1.0000
  C   C9        1.0  0.12733556397449766  0.9648774957218224  0.7280208478661478  1.0000
  C   C10       1.0  0.39908194024182103  0.5346391946961545  0.2719680144682711  1.0000
  C   C11       1.0  0.8726764316007448  0.03512901027456648  0.2719808435155713  1.0000
  C   C12       1.0  0.6009225354489091  0.46536730957571837  0.7280310877942071  1.0000
  C   C13       1.0  0.05569490514839261  0.9775753844110967  0.6122919804415828  1.0000
  C   C14       1.0  0.44346204662913646  0.5220822670458601  0.3876568239618265  1.0000
  C   C15       1.0  0.9443139709856966  0.0224173846998141  0.3877136694239026  1.0000
  C   C16       1.0  0.5565333319143733  0.47791507199172395  0.6123377928109618  1.0000
  C   C17       1.0  0.0878959146741281  0.8779317377846211  0.4356859827306891  1.0000
  C   C18       1.0  0.6514746262923481  0.6227664840379675  0.5642573076770461  1.0000
  C   C19       1.0  0.9120978598852788  0.12205339593448626  0.564316666388919  1.0000
  C   C20       1.0  0.3485192723866107  0.37723391077811624  0.4357386836471164  1.0000
  C   C21       1.0  0.14221013287417608  0.8557857340864172  0.5453234631328314  1.0000
  C   C22       1.0  0.596283940893457  0.644590485020707  0.45463024286068077  1.0000
  C   C23       1.0  0.8577911002723511  0.1441917666258448  0.45468164978840514  1.0000
  C   C24       1.0  0.4037099465425411  0.3554083772719494  0.5453611177795137  1.0000
  N   N1        1.0  0.3235838891816627  0.8745599350970819  0.8880162508210603  1.0000
  N   N2        1.0  0.43411649058590734  0.6255056462795706  0.11183484974843337  1.0000
  N   N3        1.0  0.6764357740695031  0.12546489226097177  0.11198526002854688  1.0000
  N   N4        1.0  0.5658984160193654  0.3744886385156789  0.8881624570696258  1.0000
  N   N5        1.0  0.24708256659002356  0.0648808574294435  0.9012585249385053  1.0000
  N   N6        1.0  0.3446287167793542  0.43503863107444124  0.09860233202543607  1.0000
  N   N7        1.0  0.7529205031318611  0.9351378624395037  0.09874056704966698  1.0000
  N   N8        1.0  0.6553756974445619  0.564960239395603  0.9013974125228257  1.0000
