data_image0
_chemical_formula_structural       CuH14C18N12
_chemical_formula_sum              "Cu1 H14 C18 N12"
_cell_length_a       7.618647975670277
_cell_length_b       8.086048096003106
_cell_length_c       9.273053753667993
_cell_angle_alpha    64.67885772237003
_cell_angle_beta     68.38663190954988
_cell_angle_gamma    71.64605213045554

_space_group_name_H-M_alt    "P 1"
_space_group_IT_number       1

loop_
  _space_group_symop_operation_xyz
  'x, y, z'

loop_
  _atom_site_type_symbol
  _atom_site_label
  _atom_site_symmetry_multiplicity
  _atom_site_fract_x
  _atom_site_fract_y
  _atom_site_fract_z
  _atom_site_occupancy
  Cu  Cu1       1.0  1.5977247684604099e-06  0.9999944582864515  2.335639415166544e-06  1.0000
  H   H1        1.0  0.6289282773210372  0.9744161784146711  0.7538914511828242  1.0000
  H   H2        1.0  0.37106385724247554  0.025586461439878905  0.24611016765611274  1.0000
  H   H3        1.0  0.6101288161565036  0.3166448545254639  0.6545081076254037  1.0000
  H   H4        1.0  0.389861973475014  0.6833580269683709  0.3454851925828777  1.0000
  H   H5        1.0  0.7356762444893618  0.49800597461153034  0.35772824447606394  1.0000
  H   H6        1.0  0.2643208820275901  0.5019925309850919  0.6422647536058649  1.0000
  H   H7        1.0  0.8734125420356024  0.34544240304659013  0.1452558541092088  1.0000
  H   H8        1.0  0.12658769405378928  0.6545447754598398  0.8547467552684154  1.0000
  H   H9        1.0  0.8417745562837028  0.5029369786371803  0.6207007679248662  1.0000
  H   H10       1.0  0.15823659838947884  0.4970525574522568  0.3792988545702727  1.0000
  H   H11       1.0  0.6079208154782447  0.6243767922465581  0.7017332850693876  1.0000
  H   H12       1.0  0.39208413762775507  0.3756075001057654  0.2982668092653995  1.0000
  H   H13       1.0  0.814225084644029  0.6233731832590267  0.7513364093417821  1.0000
  H   H14       1.0  0.18577241213288423  0.37662237152591166  0.24866508664202064  1.0000
  C   C1        1.0  0.69491420991109  0.7219294064633889  0.03992057074437123  1.0000
  C   C2        1.0  0.3050982350925651  0.27808574822501  0.9600975390728904  1.0000
  C   C3        1.0  0.3894523648203928  0.7441452300871491  0.03418181400723348  1.0000
  C   C4        1.0  0.6105718098238951  0.2558505227814081  0.9658225268905412  1.0000
  C   C5        1.0  0.8282090850387644  0.07428039113882083  0.3316770857083852  1.0000
  C   C6        1.0  0.17178659255930734  0.9257180929052709  0.6683195833551139  1.0000
  C   C7        1.0  0.762121580134412  0.9710285209243353  0.5021214095017541  1.0000
  C   C8        1.0  0.23787526199235026  0.02897120884959041  0.4978787842591005  1.0000
  C   C9        1.0  0.6805793941915611  0.054358305077904776  0.6229897606078582  1.0000
  C   C10       1.0  0.3194114929447948  0.9456348610754902  0.3770080691727173  1.0000
  C   C11       1.0  0.6715448517912391  0.2450624662503884  0.5657531090136843  1.0000
  C   C12       1.0  0.3284404832750596  0.7549392484152051  0.4342411396534658  1.0000
  C   C13       1.0  0.7410816745302568  0.34931338361955966  0.3956588927525218  1.0000
  C   C14       1.0  0.2589201122831852  0.6506820922637858  0.6043381300750567  1.0000
  C   C15       1.0  0.8187644215667971  0.26713029619584455  0.2758864596845998  1.0000
  C   C16       1.0  0.1812278955817418  0.7328628436570245  0.7241098790439013  1.0000
  C   C17       1.0  0.7627308722748294  0.6253986866493549  0.6547434867573471  1.0000
  C   C18       1.0  0.23726948452643626  0.3745968155345167  0.345255027122306  1.0000
  N   N1        1.0  0.8280373106035626  0.767619169383032  0.03878975206732358  1.0000
  N   N2        1.0  0.17196514673232594  0.23241615040009836  0.9612046667806666  1.0000
  N   N3        1.0  0.5602946501088794  0.6533059185076198  0.0416142179746045  1.0000
  N   N4        1.0  0.4397144628053054  0.34670396376913715  0.9584002916134154  1.0000
  N   N5        1.0  0.2285523430758331  0.8102932004783556  0.03205923862534371  1.0000
  N   N6        1.0  0.7714603382616758  0.18972255237324018  0.967931622073223  1.0000
  N   N7        1.0  0.8988987202035829  0.9487608807592526  0.2503688333758801  1.0000
  N   N8        1.0  0.10110301934309257  0.05123447549145509  0.7496336392754372  1.0000
  N   N9        1.0  0.8822040599310553  0.7803819867153265  0.35739147001322646  1.0000
  N   N10       1.0  0.11778890968589913  0.2196149907811389  0.6426162449819728  1.0000
  N   N11       1.0  0.8004838916390111  0.7908901552987332  0.5095243454507212  1.0000
  N   N12       1.0  0.19950769523254044  0.2091069681308966  0.49047941077281376  1.0000
