data_image0
_chemical_formula_structural       Gd2H12C8O16
_chemical_formula_sum              "Gd2 H12 C8 O16"
_cell_length_a       7.380531172613427
_cell_length_b       7.866496340179887
_cell_length_c       8.490107509157179
_cell_angle_alpha    112.07542149822947
_cell_angle_beta     98.46855591583832
_cell_angle_gamma    113.92978932056266

_space_group_name_H-M_alt    "P 1"
_space_group_IT_number       1

loop_
  _space_group_symop_operation_xyz
  'x, y, z'

loop_
  _atom_site_type_symbol
  _atom_site_label
  _atom_site_symmetry_multiplicity
  _atom_site_fract_x
  _atom_site_fract_y
  _atom_site_fract_z
  _atom_site_occupancy
  Gd  Gd1       1.0  0.6637343699235175  0.8507670134813309  0.3831235156307642  1.0000
  Gd  Gd2       1.0  0.33626510876604954  0.1492308236547188  0.616877176444433  1.0000
  H   H1        1.0  0.17127617661438418  0.9718849582413964  0.0576785390314497  1.0000
  H   H2        1.0  0.8287251220499384  0.02811924138785569  0.9423257317514101  1.0000
  H   H3        1.0  0.015664460627050444  0.6924979426113538  0.940253622043855  1.0000
  H   H4        1.0  0.9843382024118696  0.30750622788968934  0.059748461630825034  1.0000
  H   H5        1.0  0.7880713679260013  0.28997139533475297  0.47154751232265113  1.0000
  H   H6        1.0  0.2119281051398899  0.7100264123660549  0.5284508132142919  1.0000
  H   H7        1.0  0.9733555317254385  0.2548210096315201  0.4117995558068942  1.0000
  H   H8        1.0  0.026643368132482727  0.7451783847829033  0.588199234017125  1.0000
  H   H9        1.0  0.42346695843625076  0.38474089183107196  0.10290394050301896  1.0000
  H   H10       1.0  0.5765311474432053  0.6152569302803242  0.8970953888729768  1.0000
  H   H11       1.0  0.6503839432631722  0.4445696090061871  0.11077059916449628  1.0000
  H   H12       1.0  0.3496135894083068  0.5554297998188246  0.8892291944985756  1.0000
  C   C1        1.0  0.10449704114566316  0.8303673353696295  0.07672356686123284  1.0000
  C   C2        1.0  0.895506197913079  0.16963526313541877  0.9232792357954979  1.0000
  C   C3        1.0  0.6158103738926571  0.5279215354087938  0.541603632237859  1.0000
  C   C4        1.0  0.38419395495932224  0.47209678459138615  0.4583928777487499  1.0000
  C   C5        1.0  0.2853565942826677  0.8245650658707431  0.17741839964603648  1.0000
  C   C6        1.0  0.7146450455717995  0.1754343291577527  0.8225807490381386  1.0000
  C   C7        1.0  0.9515869417512378  0.845446406595606  0.17493877974743557  1.0000
  C   C8        1.0  0.04841390974844018  0.15455144556510444  0.8250632750269631  1.0000
  O   O1        1.0  0.6424793949244291  0.401413678202715  0.5872146657727768  1.0000
  O   O2        1.0  0.3575190690161919  0.5985794276136573  0.4127866411192969  1.0000
  O   O3        1.0  0.3903221026079679  0.9608209445116387  0.3459633315432741  1.0000
  O   O4        1.0  0.6096781784955708  0.039178509080315393  0.6540403707873353  1.0000
  O   O5        1.0  0.7622832474682399  0.6973709235569031  0.5591029611899359  1.0000
  O   O6        1.0  0.23770380650969258  0.3026158176170099  0.44089351098392626  1.0000
  O   O7        1.0  0.7786820974122222  0.8212973653802749  0.09204104289537444  1.0000
  O   O8        1.0  0.2213209236878697  0.1787020888257445  0.9079630182953908  1.0000
  O   O9        1.0  0.5719762007393924  0.4861025653608235  0.18859397777058717  1.0000
  O   O10       1.0  0.4280226991185288  0.5138968290535999  0.8114048120534321  1.0000
  O   O11       1.0  0.8182218853690985  0.1886730450900984  0.38521901837279426  1.0000
  O   O12       1.0  0.18177918408922278  0.8113279513696342  0.6147817778675844  1.0000
  O   O13       1.0  0.9943921338157866  0.8797053116130158  0.3399335686695153  1.0000
  O   O14       1.0  0.005611108054786501  0.12029730160965359  0.6600704172563497  1.0000
  O   O15       1.0  0.339111893564926  0.6900842203296803  0.09962015742060963  1.0000
  O   O16       1.0  0.6608885998735872  0.3099183481260468  0.9003799198377109  1.0000
