data_image0
_chemical_formula_structural       Mn4H48C24O20
_chemical_formula_sum              "Mn4 H48 C24 O20"
_cell_length_a       6.464505584332455
_cell_length_b       11.721521106928042
_cell_length_c       13.816851920782302
_cell_angle_alpha    112.34311448432442
_cell_angle_beta     90.02614162005712
_cell_angle_gamma    105.99117558919335

_space_group_name_H-M_alt    "P 1"
_space_group_IT_number       1

loop_
  _space_group_symop_operation_xyz
  'x, y, z'

loop_
  _atom_site_type_symbol
  _atom_site_label
  _atom_site_symmetry_multiplicity
  _atom_site_fract_x
  _atom_site_fract_y
  _atom_site_fract_z
  _atom_site_occupancy
  Mn  Mn1       1.0  0.744642215106232  0.5271466060165791  0.7638054306039879  1.0000
  Mn  Mn2       1.0  0.21750785894540314  0.4730137038863377  0.7363713960287372  1.0000
  Mn  Mn3       1.0  0.25535062325467084  0.4728471974670043  0.2361922090630628  1.0000
  Mn  Mn4       1.0  0.7824896950511543  0.5269926232228102  0.2636339761038471  1.0000
  H   H1        1.0  0.4878583959657662  0.30052656557683843  0.6233836150434656  1.0000
  H   H2        1.0  0.18761312336337715  0.6997189239281881  0.8767114640852328  1.0000
  H   H3        1.0  0.5121403470676782  0.6994759569628356  0.37661471749049014  1.0000
  H   H4        1.0  0.8123780600833115  0.3002777557269384  0.12328929134022105  1.0000
  H   H5        1.0  0.4600176125423445  0.4013390430496244  0.5687082691853576  1.0000
  H   H6        1.0  0.059144819607802  0.5989555711621294  0.9314997662213717  1.0000
  H   H7        1.0  0.539981029331983  0.5986663707599219  0.43129173668054943  1.0000
  H   H8        1.0  0.9408549632099151  0.40104593205033723  0.06850329808418824  1.0000
  H   H9        1.0  0.274794949373252  0.29828599404609685  0.980428629175279  1.0000
  H   H10       1.0  0.9763526041891027  0.7019193933438075  0.5197919111748207  1.0000
  H   H11       1.0  0.7252040799613013  0.7017078168169775  0.019568289805079096  1.0000
  H   H12       1.0  0.023647755970813557  0.2980801697169256  0.4802112397736666  1.0000
  H   H13       1.0  0.5577534052123454  0.3186644169997095  0.9868066124042444  1.0000
  H   H14       1.0  0.2386026833555376  0.6810887780683431  0.5130985300677438  1.0000
  H   H15       1.0  0.4422462014644069  0.6813274537116243  0.013190393219041115  1.0000
  H   H16       1.0  0.7614001863608807  0.3189127099003671  0.4869059771155835  1.0000
  H   H17       1.0  0.9873807729974614  0.1812070499131124  0.7255518538602957  1.0000
  H   H18       1.0  0.8062049598214286  0.8189256332072504  0.7744860126400399  1.0000
  H   H19       1.0  0.012628423204219434  0.8187916298992162  0.2744430464199112  1.0000
  H   H20       1.0  0.19379193841583492  0.18107010270923501  0.22551226212384282  1.0000
  H   H21       1.0  0.038616516378489514  0.16909359650911432  0.5989252985314479  1.0000
  H   H22       1.0  0.8695896023518942  0.83109132070787  0.9010953013580763  1.0000
  H   H23       1.0  0.9613751844742711  0.8309041251449473  0.40106856140749875  1.0000
  H   H24       1.0  0.1304106703898995  0.1689111639163343  0.09890663776855751  1.0000
  H   H25       1.0  0.4989719721181416  0.1401087777135572  0.8036352826280296  1.0000
  H   H26       1.0  0.35956714306244925  0.8596235671102194  0.6962291681500333  1.0000
  H   H27       1.0  0.5010214573259544  0.8598831159118914  0.19635955852815803  1.0000
  H   H28       1.0  0.6404335184443042  0.14038279019557356  0.30377331912963973  1.0000
  H   H29       1.0  0.21711706236171582  0.11868201279410333  0.8006890558545194  1.0000
  H   H30       1.0  0.09944885781628446  0.881459022118186  0.6994937972502059  1.0000
  H   H31       1.0  0.7828731652835685  0.8813127570513685  0.19930890090962805  1.0000
  H   H32       1.0  0.9005534586046835  0.11854445901606431  0.3005055742710567  1.0000
  H   H33       1.0  0.3519726594471067  0.0835732448879938  0.8933901914544081  1.0000
  H   H34       1.0  0.26896733533106953  0.9163568168115219  0.6066142466894392  1.0000
  H   H35       1.0  0.6480187400588235  0.9164176825209934  0.10660433215335982  1.0000
  H   H36       1.0  0.7310319919150671  0.0836437807232215  0.3933827299105488  1.0000
  H   H37       1.0  0.8881562967057731  0.9478269914266731  0.5937955361090843  1.0000
  H   H38       1.0  0.9403683316153177  0.0522353805304903  0.9061889784655721  1.0000
  H   H39       1.0  0.11184611743906461  0.05217359086430659  0.4062028833686782  1.0000
  H   H40       1.0  0.05964133389893796  0.9477642352531745  0.0938091243664161  1.0000
  H   H41       1.0  0.690956512278454  0.975828478821633  0.522515777241651  1.0000
  H   H42       1.0  0.7152459044104944  0.024359527330204904  0.9774349050254616  1.0000
  H   H43       1.0  0.309041733960413  0.0241730471595147  0.47748512304812624  1.0000
  H   H44       1.0  0.2847640418391037  0.9756468372581251  0.022566861868398323  1.0000
  H   H45       1.0  0.6571563521581325  0.984840218254071  0.6516028431261135  1.0000
  H   H46       1.0  0.6723734003277427  0.015307367041202695  0.8482633495604832  1.0000
  H   H47       1.0  0.34284972622760523  0.015158408641411802  0.3483971058723584  1.0000
  H   H48       1.0  0.3276371335698017  0.9846970801155949  0.1517363401109578  1.0000
  C   C1        1.0  0.43762180376651116  0.37962450226516603  0.8767483515891075  1.0000
  C   C2        1.0  0.05799962243177969  0.6204037581342732  0.6233153914936979  1.0000
  C   C3        1.0  0.5623705481055695  0.620368327380085  0.12324969196841103  1.0000
  C   C4        1.0  0.9420036429200919  0.37960161766283557  0.3766882212657663  1.0000
  C   C5        1.0  0.4104368447976654  0.2892711838404054  0.933157026615355  1.0000
  C   C6        1.0  0.12113017006551993  0.7107200689449018  0.566910732212989  1.0000
  C   C7        1.0  0.5895637176804911  0.7107225966805828  0.06684277766923695  1.0000
  C   C8        1.0  0.8788746421709561  0.289285306803734  0.4330928806969184  1.0000
  C   C9        1.0  0.36701906433060566  0.14972721935836122  0.8532464596203156  1.0000
  C   C10       1.0  0.21789683753470274  0.8502406066373924  0.6467744685801124  1.0000
  C   C11       1.0  0.6329753243501487  0.8502665916501475  0.14675045890872715  1.0000
  C   C12       1.0  0.7821064415581701  0.14976479945331528  0.3532262590255613  1.0000
  C   C13       1.0  0.7757545847564982  0.2409150606053032  0.653093946876318  1.0000
  C   C14       1.0  0.5349903575141822  0.7592402724873324  0.8469196967093141  1.0000
  C   C15       1.0  0.22424521867272065  0.759086488047565  0.3469047896985488  1.0000
  C   C16       1.0  0.4650214219211222  0.24075738037591068  0.15308065678138416  1.0000
  C   C17       1.0  0.9055854452234585  0.14919968579463466  0.6456773481000084  1.0000
  C   C18       1.0  0.7563565942469026  0.8509790364903225  0.8543267398623018  1.0000
  C   C19       1.0  0.09441184864925839  0.8507999379502493  0.35432003224001823  1.0000
  C   C20       1.0  0.24364628577526298  0.14902247419858838  0.14567560345568611  1.0000
  C   C21       1.0  0.7782645274149899  0.0064764563945161014  0.6005369048772096  1.0000
  C   C22       1.0  0.7717704472823285  0.9936887510164139  0.899415244297373  1.0000
  C   C23       1.0  0.22173586022692157  0.9935231672534144  0.3994604757636894  1.0000
  C   C24       1.0  0.2282370871346302  0.0063127898206616  0.10058421431813971  1.0000
  O   O1        1.0  0.44069851467254756  0.38391016235353  0.6322141834155347  1.0000
  O   O2        1.0  0.05738238768186927  0.6161797568634597  0.8678802073661843  1.0000
  O   O3        1.0  0.5592955877070976  0.6160923603315779  0.3677841486671057  1.0000
  O   O4        1.0  0.9426112179032059  0.38382176926311473  0.13212069247227026  1.0000
  O   O5        1.0  0.6297589675781055  0.438561899665217  0.8681132515058396  1.0000
  O   O6        1.0  0.19091647911722742  0.5612075400486775  0.6318367541472939  1.0000
  O   O7        1.0  0.3702384942603488  0.561431865805929  0.13188799505476823  1.0000
  O   O8        1.0  0.8090807032906183  0.4387949522458783  0.36816446339001635  1.0000
  O   O9        1.0  0.8781250853682395  0.613201744662426  0.6625692649950212  1.0000
  O   O10       1.0  0.2649671485677914  0.38707973486652497  0.8376422080030395  1.0000
  O   O11       1.0  0.12188078039351073  0.38680264205260073  0.3374361945326855  1.0000
  O   O12       1.0  0.7350313874074317  0.6129130870114139  0.16235655744468863  1.0000
  O   O13       1.0  0.880500969820673  0.36310033906291034  0.6914303212527886  1.0000
  O   O14       1.0  0.5178361893154745  0.6371075403073476  0.8087742972182427  1.0000
  O   O15       1.0  0.11949987682807271  0.6369001978361483  0.3085724258052239  1.0000
  O   O16       1.0  0.4821727736507242  0.36289685388412357  0.191230441321892  1.0000
  O   O17       1.0  0.574743257277362  0.19879021631733457  0.6223734730311892  1.0000
  O   O18       1.0  0.3759617675652009  0.8012940573627532  0.8775057344585309  1.0000
  O   O19       1.0  0.4252559688096582  0.8012132724872744  0.3776251769007502  1.0000
  O   O20       1.0  0.6240349214833144  0.19870744594666687  0.12249732954614251  1.0000
