data_image0
_chemical_formula_structural       Zn4H32C28N4Cl4O4
_chemical_formula_sum              "Zn4 H32 C28 N4 Cl4 O4"
_cell_length_a       5.053461403002575
_cell_length_b       9.172144901000928
_cell_length_c       18.19082366200934
_cell_angle_alpha    90.00003754071669
_cell_angle_beta     90.00010998599778
_cell_angle_gamma    89.9999645404402

_space_group_name_H-M_alt    "P 1"
_space_group_IT_number       1

loop_
  _space_group_symop_operation_xyz
  'x, y, z'

loop_
  _atom_site_type_symbol
  _atom_site_label
  _atom_site_symmetry_multiplicity
  _atom_site_fract_x
  _atom_site_fract_y
  _atom_site_fract_z
  _atom_site_occupancy
  Zn  Zn1       1.0  0.8699820089162671  0.2223339304361999  0.06500612138069782  1.0000
  Zn  Zn2       1.0  0.6300191880480455  0.7776656891494012  0.5650065980238211  1.0000
  Zn  Zn3       1.0  0.3699831407697118  0.27766624138357077  0.9349940907334685  1.0000
  Zn  Zn4       1.0  0.1300189091554458  0.7223329399660655  0.4349947504297306  1.0000
  H   H1        1.0  0.9998247406581838  0.9369101671771245  0.9740731447928469  1.0000
  H   H2        1.0  0.5001795578863835  0.06308906501838857  0.4740737845596784  1.0000
  H   H3        1.0  0.49982153891867404  0.5630895966241808  0.025926484981035006  1.0000
  H   H4        1.0  0.0001757082131277  0.4369101427406007  0.5259273296132037  1.0000
  H   H5        1.0  0.2569323984967867  0.9629317819574008  0.0395492887256097  1.0000
  H   H6        1.0  0.2430728580407617  0.037069065387633784  0.5395490316288375  1.0000
  H   H7        1.0  0.7569277619789218  0.5370689843639836  0.9604510280161451  1.0000
  H   H8        1.0  0.743068249526317  0.46293114974088917  0.4604511127415238  1.0000
  H   H9        1.0  0.3551969950658248  0.7346923890933963  0.9395525044309142  1.0000
  H   H10       1.0  0.14480508631913122  0.26530788844324593  0.43955082231491366  1.0000
  H   H11       1.0  0.8551938046718137  0.7653094339531561  0.060448964219062915  1.0000
  H   H12       1.0  0.6448014243020596  0.234692360218304  0.5604481701463443  1.0000
  H   H13       1.0  0.702150961497736  0.6887673505397487  0.8448290061783867  1.0000
  H   H14       1.0  0.7978482095053893  0.31123263312686317  0.3448285203635777  1.0000
  H   H15       1.0  0.20215260878180888  0.8112334344747365  0.15517128132350422  1.0000
  H   H16       1.0  0.2978475094174016  0.18876538279384641  0.6551716532457591  1.0000
  H   H17       1.0  0.9021125620025147  0.9033757448791131  0.7782614659918395  1.0000
  H   H18       1.0  0.5978821917796181  0.09662306191940927  0.27826190208516277  1.0000
  H   H19       1.0  0.4021188673842815  0.5966249718969221  0.22173782879247744  1.0000
  H   H20       1.0  0.09788566803464252  0.40337393198186783  0.7217387145138545  1.0000
  H   H21       1.0  0.6256529235825284  0.26209831117184723  0.7822226243568338  1.0000
  H   H22       1.0  0.8743477940693579  0.7379005007794459  0.282222869881501  1.0000
  H   H23       1.0  0.1256550853694876  0.23790085376758438  0.2177774573380873  1.0000
  H   H24       1.0  0.3743474438630159  0.7620980449577599  0.7177769598079635  1.0000
  H   H25       1.0  0.9085896478585838  0.1592967728424384  0.7549380470297252  1.0000
  H   H26       1.0  0.5914108814375965  0.8407041841238935  0.25493872517387933  1.0000
  H   H27       1.0  0.40859188261403295  0.3407055663169699  0.2450616359655768  1.0000
  H   H28       1.0  0.0914088561300588  0.6592955484237776  0.7450615032153963  1.0000
  H   H29       1.0  0.9060846728504045  0.25705476956145645  0.839941909963109  1.0000
  H   H30       1.0  0.5939124855736537  0.7429452077468495  0.33994145773296947  1.0000
  H   H31       1.0  0.4060884093589437  0.24294648019534287  0.1600583214230085  1.0000
  H   H32       1.0  0.09391174257577012  0.7570523434315245  0.660058222263885  1.0000
  C   C1        1.0  0.1783682758607839  0.002389365459691799  0.9863187729442162  1.0000
  C   C2        1.0  0.3216361072176994  0.9976120631835881  0.48631907602167973  1.0000
  C   C3        1.0  0.6783664807216994  0.49761196200633123  0.0136813368887019  1.0000
  C   C4        1.0  0.8216323830855572  0.5023886810578374  0.5136818249859445  1.0000
  C   C5        1.0  0.38268095664258794  0.9686071290536871  0.9282248609763928  1.0000
  C   C6        1.0  0.1173170888639561  0.031388772715288796  0.4282236367363979  1.0000
  C   C7        1.0  0.882682064676075  0.531392504097816  0.07177607261719743  1.0000
  C   C8        1.0  0.6173152213357015  0.46860821455366847  0.5717753410521027  1.0000
  C   C9        1.0  0.4532187708868349  0.825157562772567  0.9118809013209487  1.0000
  C   C10       1.0  0.04678707715726921  0.174845949533136  0.41188078621835444  1.0000
  C   C11       1.0  0.9532119153679018  0.6748442268232323  0.0881184207397894  1.0000
  C   C12       1.0  0.5467854834655341  0.3251554228346194  0.5881187036507569  1.0000
  C   C13       1.0  0.6445666532499743  0.8002440206348781  0.8584160795051403  1.0000
  C   C14       1.0  0.8554286538646423  0.1997527099374138  0.35841448818965205  1.0000
  C   C15       1.0  0.14457228954364607  0.6997567840299438  0.1415847269878583  1.0000
  C   C16       1.0  0.35542773485944684  0.3002441960757452  0.6415846166996105  1.0000
  C   C17       1.0  0.757526658462794  0.9187713244330452  0.8218724293532561  1.0000
  C   C18       1.0  0.7424763117496553  0.08123080987986238  0.3218734872751981  1.0000
  C   C19       1.0  0.25752476469109103  0.5812316221990554  0.1781262385236388  1.0000
  C   C20       1.0  0.24247551197521494  0.4187672249365376  0.6781266567773869  1.0000
  C   C21       1.0  0.6774870139360801  0.059992941225054594  0.8396548585727432  1.0000
  C   C22       1.0  0.8225101425101118  0.9400048551951979  0.3396551431119761  1.0000
  C   C23       1.0  0.1774905312418866  0.44000838654044117  0.16034470106347246  1.0000
  C   C24       1.0  0.3225076438284021  0.5599937082323476  0.6603452086344392  1.0000
  C   C25       1.0  0.786141048414244  0.19124682107248958  0.8019177504930326  1.0000
  C   C26       1.0  0.7138538686742635  0.8087541970203985  0.3019179337274736  1.0000
  C   C27       1.0  0.28614497355335544  0.3087544696147189  0.19808186714124085  1.0000
  C   C28       1.0  0.2138554408727273  0.6912444034850721  0.6980818102931609  1.0000
  N   N1        1.0  0.4941356318318171  0.08229640540911728  0.8930058884543115  1.0000
  N   N2        1.0  0.005870085915958601  0.9177059920814087  0.3930070960705976  1.0000
  N   N3        1.0  0.9941345705534063  0.41770590455826095  0.10699384020331593  1.0000
  N   N4        1.0  0.5058669162660011  0.5822937696576318  0.6069936363856456  1.0000
  Cl  Cl1       1.0  0.7166972928232838  0.030916392203700082  0.12581527999341802  1.0000
  Cl  Cl2       1.0  0.7833043239268491  0.9690833065008133  0.6258148021599725  1.0000
  Cl  Cl3       1.0  0.21669779004040632  0.46908383192462094  0.8741848502994074  1.0000
  Cl  Cl4       1.0  0.2833018612509619  0.5309163605628837  0.37418497893141733  1.0000
  O   O1        1.0  0.11665208953105122  0.15169360467125867  0.9896363878885026  1.0000
  O   O2        1.0  0.38334835876491985  0.8483078282889165  0.4896361249179862  1.0000
  O   O3        1.0  0.6166524179109416  0.3483088341129558  0.010364238729671604  1.0000
  O   O4        1.0  0.8833464229954873  0.6516918046349999  0.5103642593033229  1.0000
