data_image0
_chemical_formula_structural       Cd4H64C80N8Cl8O8
_chemical_formula_sum              "Cd4 H64 C80 N8 Cl8 O8"
_cell_length_a       12.213172309209986
_cell_length_b       13.162654606673247
_cell_length_c       16.100695401535987
_cell_angle_alpha    95.02464633988066
_cell_angle_beta     112.29969826302286
_cell_angle_gamma    90.04094769050648

_space_group_name_H-M_alt    "P 1"
_space_group_IT_number       1

loop_
  _space_group_symop_operation_xyz
  'x, y, z'

loop_
  _atom_site_type_symbol
  _atom_site_label
  _atom_site_symmetry_multiplicity
  _atom_site_fract_x
  _atom_site_fract_y
  _atom_site_fract_z
  _atom_site_occupancy
  Cd  Cd1       1.0  0.036018241343192925  0.05894866403291131  0.6198009234505762  1.0000
  Cd  Cd2       1.0  0.41647467448743214  0.4411216094886044  0.3801875235986501  1.0000
  Cd  Cd3       1.0  0.9639801356829809  0.9410504367248935  0.38020165230737757  1.0000
  Cd  Cd4       1.0  0.5835300453353726  0.5588789464872691  0.619817859867972  1.0000
  H   H1        1.0  0.12207001013813105  0.11057876997569595  0.8300579435742677  1.0000
  H   H2        1.0  0.2921539466862271  0.38978447969923025  0.16966352468377727  1.0000
  H   H3        1.0  0.8779288950060647  0.8894197687516369  0.16993726325871006  1.0000
  H   H4        1.0  0.7078477630971135  0.6102174924183148  0.830345965229917  1.0000
  H   H5        1.0  0.3306835019758054  0.0335365288636069  0.6853856509894173  1.0000
  H   H6        1.0  0.6455995971150017  0.46633759111081474  0.31470598423715773  1.0000
  H   H7        1.0  0.6693199869979195  0.9664648719225541  0.31461682382533257  1.0000
  H   H8        1.0  0.3544049007645784  0.5336592226510888  0.685296363623941  1.0000
  H   H9        1.0  0.29812087839300727  0.145158633740941  0.9741674927954876  1.0000
  H   H10       1.0  0.32437201920651404  0.35494152961798175  0.025754083481530254  1.0000
  H   H11       1.0  0.7018756591149043  0.8548421640795638  0.025829003412447166  1.0000
  H   H12       1.0  0.6756179299143598  0.6450637156921745  0.9742475348523599  1.0000
  H   H13       1.0  0.5173096277917322  0.06288813638192889  0.8224075754149923  1.0000
  H   H14       1.0  0.6954912373904136  0.4369999902434145  0.17788213082728535  1.0000
  H   H15       1.0  0.4826912043055103  0.9371102070053255  0.1775947495464863  1.0000
  H   H16       1.0  0.3045073549518948  0.5630037849783918  0.8221174124359794  1.0000
  H   H17       1.0  0.6145458573745088  0.1258796003552902  0.9800561860339344  1.0000
  H   H18       1.0  0.6348155080785531  0.3742491859246969  0.019910900581848592  1.0000
  H   H19       1.0  0.38545491422384964  0.8741180526335554  0.01994342384181641  1.0000
  H   H20       1.0  0.3651798859295495  0.625753050363855  0.9800889153343207  1.0000
  H   H21       1.0  0.4529126382019868  0.13658590501362514  0.08813347319713229  1.0000
  H   H22       1.0  0.3649326640732937  0.3635202183460251  0.9119714383456528  1.0000
  H   H23       1.0  0.5470884494869637  0.8634169677266644  0.9118710891812257  1.0000
  H   H24       1.0  0.6350638330735308  0.6364798165205912  0.08802497773233149  1.0000
  H   H25       1.0  0.5379523550064462  0.18763305204634412  0.24336088654914798  1.0000
  H   H26       1.0  0.29450741169095807  0.3123928654087323  0.7565936061376776  1.0000
  H   H27       1.0  0.46204617003888876  0.8123691488973537  0.756640253091412  1.0000
  H   H28       1.0  0.7054893846615614  0.6876001652040106  0.24340709643606584  1.0000
  H   H29       1.0  0.7762297662848711  0.1490639951464914  0.10103902177504412  1.0000
  H   H30       1.0  0.6752384168627615  0.3507109677261796  0.8990652891333469  1.0000
  H   H31       1.0  0.22377172164074458  0.8509351428219463  0.8989622427515159  1.0000
  H   H32       1.0  0.3247593178457394  0.6492881981449872  0.10093491391510417  1.0000
  H   H33       1.0  0.7080029377442115  0.2526789279453041  0.37902345402046944  1.0000
  H   H34       1.0  0.32879411966396777  0.24724277018508198  0.6209797561357675  1.0000
  H   H35       1.0  0.2920029525142952  0.7473210008867355  0.6209769332306722  1.0000
  H   H36       1.0  0.6712064366182631  0.7527502083397621  0.3790228862346795  1.0000
  H   H37       1.0  0.9398223217586192  0.21327713065722528  0.2440465542634628  1.0000
  H   H38       1.0  0.6957244717529393  0.28639385409079676  0.7561151222805975  1.0000
  H   H39       1.0  0.06017857092300005  0.7867228111932931  0.7559532960021259  1.0000
  H   H40       1.0  0.3042781125132947  0.7136021985759979  0.2438870538708002  1.0000
  H   H41       1.0  0.0091298583986941  0.2571850565220331  0.3953163568608176  1.0000
  H   H42       1.0  0.6139140611806368  0.2427248033223393  0.6049933755245861  1.0000
  H   H43       1.0  0.9908753894566333  0.7428140293585059  0.6046868474624392  1.0000
  H   H44       1.0  0.3860866364081446  0.7572712995735602  0.3950069524098653  1.0000
  H   H45       1.0  0.9112883332816395  0.27041575981169075  0.4531553651027027  1.0000
  H   H46       1.0  0.45816260979730594  0.22977631078472885  0.5468632782300633  1.0000
  H   H47       1.0  0.08871634626558482  0.7295849412751564  0.5468447484523509  1.0000
  H   H48       1.0  0.5418304165745127  0.770228184596995  0.4531378270610703  1.0000
  H   H49       1.0  0.8113696905971894  0.43242635603353113  0.4623435559358527  1.0000
  H   H50       1.0  0.34838033838504157  0.0675731885889732  0.5375248588033443  1.0000
  H   H51       1.0  0.18863951907878365  0.567577400593443  0.5376567990522219  1.0000
  H   H52       1.0  0.6516096275849179  0.9324215279197858  0.46247010555342183  1.0000
  H   H53       1.0  0.0417146271968534  0.4039007673706721  0.31358764613539597  1.0000
  H   H54       1.0  0.7276765405659233  0.09588949253880943  0.6861670449999764  1.0000
  H   H55       1.0  0.9582830873738503  0.5960984710559815  0.6864099219572709  1.0000
  H   H56       1.0  0.2723161093019185  0.9041100007579389  0.3138212029212042  1.0000
  H   H57       1.0  0.8084525952587781  0.6178303166600259  0.4512535605026997  1.0000
  H   H58       1.0  0.3562124766283788  0.882141931582993  0.5485114166496602  1.0000
  H   H59       1.0  0.1915552960478451  0.38217187498974436  0.5487480370366385  1.0000
  H   H60       1.0  0.6437869968239199  0.11785499193803163  0.45148688095151374  1.0000
  H   H61       1.0  0.036171224897962914  0.589730451506945  0.30214728318611617  1.0000
  H   H62       1.0  0.7331881246411811  0.910055582228189  0.6974083846663036  1.0000
  H   H63       1.0  0.9638314401759516  0.41026803513249627  0.6978498634435583  1.0000
  H   H64       1.0  0.2668082784437757  0.08994388316582301  0.30258092473297893  1.0000
  C   C1        1.0  0.21201552104448496  0.10173831055541883  0.8323519581576662  1.0000
  C   C2        1.0  0.37990150325979505  0.39848191557646123  0.16748454202075183  1.0000
  C   C3        1.0  0.7879846889583676  0.8982609334545728  0.1676454392684833  1.0000
  C   C4        1.0  0.620097583381046  0.6015186943460903  0.8325188100694163  1.0000
  C   C5        1.0  0.3281756661767261  0.05823633780610751  0.7511152170289108  1.0000
  C   C6        1.0  0.5773847765238713  0.4417395832952452  0.24892722081393265  1.0000
  C   C7        1.0  0.6718258957584666  0.9417643502552764  0.24888532943894162  1.0000
  C   C8        1.0  0.4226162439536053  0.558262623231798  0.7510737481601026  1.0000
  C   C9        1.0  0.3105265957843244  0.1197379580901199  0.9121251982146319  1.0000
  C   C10       1.0  0.398792844292629  0.3804515175320374  0.08780882891167618  1.0000
  C   C11       1.0  0.6894717880399526  0.8802620265473847  0.08787306608029877  1.0000
  C   C12       1.0  0.601203726778266  0.6195491593626629  0.9121920588892324  1.0000
  C   C13       1.0  0.4317527564395578  0.07458327803801981  0.8279247450228413  1.0000
  C   C14       1.0  0.6043159533781974  0.425388890718871  0.17220907897802118  1.0000
  C   C15       1.0  0.5682462226287157  0.9254159027173968  0.17207493353305386  1.0000
  C   C16       1.0  0.3956833082176843  0.5746156307137938  0.8277911604875073  1.0000
  C   C17       1.0  0.4245973933727214  0.1060384418136948  0.9113255793379126  1.0000
  C   C18       1.0  0.5137583744382894  0.39405668545864364  0.08872738410091335  1.0000
  C   C19       1.0  0.575400247188405  0.8939592465200051  0.08867270681345477  1.0000
  C   C20       1.0  0.48623632338035333  0.6059439932948364  0.9112734121202379  1.0000
  C   C21       1.0  0.5321438431441762  0.12439760180809858  0.9919134510608815  1.0000
  C   C22       1.0  0.5405603503754932  0.37569717313041917  0.008101233095821754  1.0000
  C   C23       1.0  0.46785343082878944  0.8756046084365041  0.008087334753646806  1.0000
  C   C24       1.0  0.4594412047616032  0.6243026310512578  0.9919036248350609  1.0000
  C   C25       1.0  0.5356398937393508  0.13992954445571124  0.07697355127597663  1.0000
  C   C26       1.0  0.45881663689996793  0.36020285276420355  0.9230862956701316  1.0000
  C   C27       1.0  0.4643562436174022  0.8600758962015149  0.9230210530021381  1.0000
  C   C28       1.0  0.5411768233569988  0.6397986949847266  0.07691071358055276  1.0000
  C   C29       1.0  0.6399321332060239  0.1666693299912865  0.15796492031686435  1.0000
  C   C30       1.0  0.48195999110897947  0.3332786945757746  0.8420651202798553  1.0000
  C   C31       1.0  0.36006571587314085  0.8333321489267218  0.842034644802837  1.0000
  C   C32       1.0  0.5180396033410872  0.66671960974206  0.15793860749278116  1.0000
  C   C33       1.0  0.6249416424244673  0.19245579418881686  0.23964374903723507  1.0000
  C   C34       1.0  0.38523046316426957  0.30744512374941735  0.7603827816594659  1.0000
  C   C35       1.0  0.37506059547688864  0.8075456158982561  0.7603583719514831  1.0000
  C   C36       1.0  0.6147665417062812  0.6925516974476198  0.23961919988261127  1.0000
  C   C37       1.0  0.7559908603120178  0.17261282687857726  0.1599906282182746  1.0000
  C   C38       1.0  0.59600184587066  0.32718016145900464  0.8400974396997043  1.0000
  C   C39       1.0  0.24400884179610935  0.8273878146712689  0.8400115833070103  1.0000
  C   C40       1.0  0.4039956600965199  0.6728143783184778  0.15990403920624635  1.0000
  C   C41       1.0  0.7195866099434696  0.2285144986162067  0.3163916107025744  1.0000
  C   C42       1.0  0.40303986985237816  0.2713689341005222  0.6836316902098858  1.0000
  C   C43       1.0  0.2804100688709994  0.7714894235753534  0.6836025710693648  1.0000
  C   C44       1.0  0.5969607671520265  0.7286255703321061  0.3163711124204483  1.0000
  C   C45       1.0  0.848422108542195  0.20851473422943909  0.23848614554849967  1.0000
  C   C46       1.0  0.6098723487036821  0.29123053269938753  0.7616173113343622  1.0000
  C   C47       1.0  0.15157632906836221  0.7914859649916368  0.7615139555135714  1.0000
  C   C48       1.0  0.3901270708768365  0.7087647681732108  0.23838433928128927  1.0000
  C   C49       1.0  0.9261259534696792  0.2905322469354701  0.39360814986090276  1.0000
  C   C50       1.0  0.5323684163661966  0.20944358421045453  0.6064330409511669  1.0000
  C   C51       1.0  0.0738781779072327  0.7094699968021985  0.6063915078817318  1.0000
  C   C52       1.0  0.46762741152705445  0.7905557044453033  0.3935626789245603  1.0000
  C   C53       1.0  0.9240974911687658  0.40428137241535483  0.38646240398961856  1.0000
  C   C54       1.0  0.537106981742255  0.09564431852816574  0.6133782972624431  1.0000
  C   C55       1.0  0.07590978467057143  0.5957207876071351  0.613540334114589  1.0000
  C   C56       1.0  0.4628838755955087  0.9043567025351534  0.3866100193388818  1.0000
  C   C57       1.0  0.8586528140170914  0.46549632478063774  0.42498497059894913  1.0000
  C   C58       1.0  0.43298000849493695  0.03445686676626989  0.5748168069744112  1.0000
  C   C59       1.0  0.141353859865653  0.5345066633091023  0.5750154749257064  1.0000
  C   C60       1.0  0.5670125672778284  0.9655401683726695  0.42517734878708086  1.0000
  C   C61       1.0  0.9864452213844572  0.44961288010268413  0.3410428977522245  1.0000
  C   C62       1.0  0.6448237543910622  0.05023267147243621  0.6586984632415565  1.0000
  C   C63       1.0  0.01355402007363431  0.5503917138854675  0.6589547067575197  1.0000
  C   C64       1.0  0.3551676040433237  0.9497660681713286  0.341289350723642  1.0000
  C   C65       1.0  0.8568694311978861  0.5704859150806102  0.4189866591511306  1.0000
  C   C66       1.0  0.4370300906478377  0.9294283234645707  0.5807119347123618  1.0000
  C   C67       1.0  0.14313652635759422  0.4295155880295384  0.5810121317227158  1.0000
  C   C68       1.0  0.5629662989264261  0.07057028223491103  0.4192808078313491  1.0000
  C   C69       1.0  0.9838609758094067  0.5546153300684153  0.3344839655198016  1.0000
  C   C70       1.0  0.6485944242607573  0.9452211381199048  0.6651392742308816  1.0000
  C   C71       1.0  0.016141944856215642  0.4453876859240538  0.6655154185267449  1.0000
  C   C72       1.0  0.3514007748255139  0.05477907534375251  0.33485063979090773  1.0000
  C   C73       1.0  0.9191139602907086  0.616041609090509  0.3737048050221503  1.0000
  C   C74       1.0  0.5444985857108692  0.8838267222457573  0.6258971716639439  1.0000
  C   C75       1.0  0.08088637079540446  0.38395992378115557  0.6262928327938369  1.0000
  C   C76       1.0  0.45549843946847796  0.11617184252551743  0.37409706527068204  1.0000
  C   C77       1.0  0.921876171905396  0.7304524939937876  0.37248655099279665  1.0000
  C   C78       1.0  0.5483566209271301  0.7694003376296693  0.6270965409754724  1.0000
  C   C79       1.0  0.078128019970393  0.2695504401422895  0.6275158218355729  1.0000
  C   C80       1.0  0.4516466326781768  0.23059736931284647  0.3729011415965716  1.0000
  N   N1        1.0  0.2205508031206379  0.07173834760619971  0.7530571050769056  1.0000
  N   N2        1.0  0.4677259439891871  0.4283224516637533  0.24686125053236924  1.0000
  N   N3        1.0  0.7794474932688686  0.9282601353086833  0.24694012063952905  1.0000
  N   N4        1.0  0.5322773902527871  0.5716758731216771  0.7531417820811798  1.0000
  N   N5        1.0  0.8286652134465627  0.23865162622862365  0.31408146894318634  1.0000
  N   N6        1.0  0.5144403846932875  0.2612040902627015  0.6859762054181076  1.0000
  N   N7        1.0  0.17133612320701275  0.7613567081147183  0.6859192627518313  1.0000
  N   N8        1.0  0.4855596099934375  0.7387904792832816  0.314024224502731  1.0000
  Cl  Cl1       1.0  0.9542651070833018  0.9583886446062948  0.7107142752546525  1.0000
  Cl  Cl2       1.0  0.24383778105433856  0.5414474719722833  0.289033676841342  1.0000
  Cl  Cl3       1.0  0.04573330359136916  0.0416112432905607  0.2892875023146573  1.0000
  Cl  Cl4       1.0  0.7561650117299337  0.45855237127880605  0.7109697782783898  1.0000
  Cl  Cl5       1.0  0.8616623901941626  0.0639115341641627  0.46306346416918864  1.0000
  Cl  Cl6       1.0  0.3982978374661671  0.43604183652129797  0.536852543089026  1.0000
  Cl  Cl7       1.0  0.13833668302147828  0.9360891241287138  0.5369381312837903  1.0000
  Cl  Cl8       1.0  0.6017072825933028  0.563954984682731  0.4631495425257911  1.0000
  O   O1        1.0  0.8635969996352486  0.7833285605853674  0.41052944486547466  1.0000
  O   O2        1.0  0.4519392158183635  0.7164706656256852  0.5894560334025344  1.0000
  O   O3        1.0  0.13640458923583043  0.21667293880022243  0.5894694250951389  1.0000
  O   O4        1.0  0.5480635029563318  0.2835276275324645  0.4105481397758909  1.0000
  O   O5        1.0  0.9849297999076327  0.7694831207332984  0.3346577513902463  1.0000
  O   O6        1.0  0.649337339171602  0.7304431084793069  0.6645633342771832  1.0000
  O   O7        1.0  0.015071173496160392  0.2305183470250114  0.6653422591352438  1.0000
  O   O8        1.0  0.35066862509648183  0.26955837044567943  0.335436334915265  1.0000
