data_image0
_chemical_formula_structural       Cd4H48C56O24
_chemical_formula_sum              "Cd4 H48 C56 O24"
_cell_length_a       7.374092136734933
_cell_length_b       11.815073379045772
_cell_length_c       15.696920016680396
_cell_angle_alpha    90.00001376574403
_cell_angle_beta     95.35988270785752
_cell_angle_gamma    89.99968099222306

_space_group_name_H-M_alt    "P 1"
_space_group_IT_number       1

loop_
  _space_group_symop_operation_xyz
  'x, y, z'

loop_
  _atom_site_type_symbol
  _atom_site_label
  _atom_site_symmetry_multiplicity
  _atom_site_fract_x
  _atom_site_fract_y
  _atom_site_fract_z
  _atom_site_occupancy
  Cd  Cd1       1.0  0.7494987075949381  0.7007375848883511  0.7473547470814168  1.0000
  Cd  Cd2       1.0  0.7505041558224407  0.2007363786056189  0.2526442046505508  1.0000
  Cd  Cd3       1.0  0.2505008188533893  0.2992639324113782  0.252644123249766  1.0000
  Cd  Cd4       1.0  0.2494994567493336  0.7992617531811846  0.747354835037143  1.0000
  H   H1        1.0  0.2940237114749848  0.5983732585040683  0.0006489419556742977  1.0000
  H   H2        1.0  0.20597565231581433  0.09837498164186798  0.9993512202872238  1.0000
  H   H3        1.0  0.7059758291562658  0.4016291051722973  0.9993512031159992  1.0000
  H   H4        1.0  0.7940211713365881  0.901627382039308  0.000649449250630595  1.0000
  H   H5        1.0  0.47356473460347803  0.5383345144246192  0.8189967216304908  1.0000
  H   H6        1.0  0.026435173684227195  0.038331526102339794  0.18100409057127104  1.0000
  H   H7        1.0  0.5264361538960998  0.46166361736690226  0.18100220515310633  1.0000
  H   H8        1.0  0.9735657431849704  0.9616674520659955  0.818997385693386  1.0000
  H   H9        1.0  0.5142282740112734  0.5015179313373821  0.9291685404394912  1.0000
  H   H10       1.0  0.9857723077161891  0.0015158491005066999  0.07083219581684828  1.0000
  H   H11       1.0  0.4857699045838757  0.49848443234134976  0.07083154818013068  1.0000
  H   H12       1.0  0.014229956991037802  0.9984856681946754  0.9291680621590216  1.0000
  H   H13       1.0  0.5928257137123224  0.34342395797516895  0.7785760387389828  1.0000
  H   H14       1.0  0.9071731626992018  0.8434210643288865  0.22142404491317075  1.0000
  H   H15       1.0  0.407169783401052  0.6565716346971158  0.22142776119898133  1.0000
  H   H16       1.0  0.09283316685520049  0.15657622107664793  0.7785744703084347  1.0000
  H   H17       1.0  0.4220314041047857  0.3019543744464315  0.9486961041792978  1.0000
  H   H18       1.0  0.0779743239481476  0.8019491871740526  0.05130562883320519  1.0000
  H   H19       1.0  0.577960013948193  0.6980513747505626  0.05130816377172211  1.0000
  H   H20       1.0  0.922034736764232  0.19804979097975922  0.948693636662618  1.0000
  H   H21       1.0  0.4604651559901001  0.19708909711073372  0.8646003796006383  1.0000
  H   H22       1.0  0.0395374245528544  0.6970857628378796  0.1354012060421823  1.0000
  H   H23       1.0  0.539524914228636  0.802913266582955  0.1354051066392614  1.0000
  H   H24       1.0  0.9604702812092042  0.3029149080713082  0.864598640371703  1.0000
  H   H25       1.0  0.23255068062540118  0.6248184735516276  0.4800639511167049  1.0000
  H   H26       1.0  0.2674470702400313  0.12482067805841982  0.519934874388845  1.0000
  H   H27       1.0  0.7674474767161995  0.3751779654916021  0.5199342253926672  1.0000
  H   H28       1.0  0.732552456208296  0.8751808392413093  0.48006399594233773  1.0000
  H   H29       1.0  0.8005094885013193  0.3392594059024034  0.6608624701369905  1.0000
  H   H30       1.0  0.6994921563324253  0.8392606575207041  0.3391383646622899  1.0000
  H   H31       1.0  0.19948868301563047  0.6607395722703869  0.339136981112695  1.0000
  H   H32       1.0  0.3005114633289097  0.16073832064265048  0.6608613123956102  1.0000
  H   H33       1.0  0.89803195952431  0.4349776556703303  0.7410930642488721  1.0000
  H   H34       1.0  0.6019661045081364  0.9349775285954038  0.25890763757759316  1.0000
  H   H35       1.0  0.10196484995653782  0.5650213225048262  0.2589063305487612  1.0000
  H   H36       1.0  0.398034791088584  0.0650197568197441  0.7410919265763736  1.0000
  H   H37       1.0  0.0804070675513415  0.5261134918483563  0.6255198416315648  1.0000
  H   H38       1.0  0.41959705748190146  0.0261168138488941  0.37448305459889747  1.0000
  H   H39       1.0  0.9195952184586745  0.47388294718832213  0.3744823284557057  1.0000
  H   H40       1.0  0.5804052001509135  0.9738804715638951  0.6255165660071282  1.0000
  H   H41       1.0  0.045092255734701304  0.27064920005267373  0.5829787294797057  1.0000
  H   H42       1.0  0.4549083043374651  0.7706521265949177  0.4170227842873615  1.0000
  H   H43       1.0  0.954903184620484  0.7293489317482907  0.4170199714956694  1.0000
  H   H44       1.0  0.5450939816611894  0.229346851571151  0.5829793857996463  1.0000
  H   H45       1.0  0.22714127482971236  0.3675141255654496  0.5534322327645071  1.0000
  H   H46       1.0  0.27286116359692153  0.867516848502987  0.4465712857082805  1.0000
  H   H47       1.0  0.7728569179672958  0.632484852607611  0.44656913059604614  1.0000
  H   H48       1.0  0.7271424702511239  0.1324821296605379  0.5534296660901958  1.0000
  C   C1        1.0  0.10063549048697239  0.6395237075217821  0.8596364804947212  1.0000
  C   C2        1.0  0.3993621429433815  0.13952617975262882  0.14036361666819627  1.0000
  C   C3        1.0  0.8993613189900884  0.36047611702983307  0.14036291430281977  1.0000
  C   C4        1.0  0.6006373834935844  0.8604778766764837  0.8596352536627235  1.0000
  C   C5        1.0  0.0404596360651439  0.5675191922187537  0.9300449287883905  1.0000
  C   C6        1.0  0.4595413588359065  0.0675197401093826  0.0699546590054396  1.0000
  C   C7        1.0  0.9595385425375866  0.4324814787070537  0.06995515983140879  1.0000
  C   C8        1.0  0.540460898766611  0.9324843163150972  0.9300449615998757  1.0000
  C   C9        1.0  0.868074757771012  0.5146860870237048  0.9288292921032094  1.0000
  C   C10       1.0  0.6319256989947631  0.0146852361462066  0.07117080402179707  1.0000
  C   C11       1.0  0.1319207109537928  0.48531289115407367  0.07117195835323997  1.0000
  C   C12       1.0  0.3680806376416327  0.9853145883887963  0.9288283485698301  1.0000
  C   C13       1.0  0.1670473742068239  0.5521190058977439  0.0013148058851583972  1.0000
  C   C14       1.0  0.33295239649188346  0.0521211333715499  0.9986847286853473  1.0000
  C   C15       1.0  0.8329480874170585  0.4478816650328738  0.9986858072008216  1.0000
  C   C16       1.0  0.6670498611144209  0.9478820766764713  0.0013148919200531915  1.0000
  C   C17       1.0  0.5577989439551273  0.4863592430050687  0.8650777811546888  1.0000
  C   C18       1.0  0.9422027392057543  0.9863570465858943  0.13492244188489616  1.0000
  C   C19       1.0  0.44220058959791686  0.5136397351653699  0.13492172654704856  1.0000
  C   C20       1.0  0.05779680853400039  0.0136419315847149  0.8650783405574245  1.0000
  C   C21       1.0  0.5444073345790057  0.3643947215411743  0.8403686212479897  1.0000
  C   C22       1.0  0.9555927161724469  0.8643907935622508  0.15963151445946977  1.0000
  C   C23       1.0  0.45558948908097824  0.6356059493870845  0.1596320482900424  1.0000
  C   C24       1.0  0.04440955564329129  0.13560733822717452  0.8403693808870398  1.0000
  C   C25       1.0  0.47256435093001403  0.28429040002212247  0.8868095972821805  1.0000
  C   C26       1.0  0.02743880405578379  0.7842862544722137  0.11319138915934698  1.0000
  C   C27       1.0  0.527428429178002  0.7157111172901979  0.11319472712133918  1.0000
  C   C28       1.0  0.9725675325881866  0.21571187730986452  0.8868077634324577  1.0000
  C   C29       1.0  0.3915399868877216  0.6533597276347648  0.6301741004408896  1.0000
  C   C30       1.0  0.1084602255082388  0.15335905254086407  0.3698241946146581  1.0000
  C   C31       1.0  0.6084608945109267  0.3466400969095886  0.36982418897223107  1.0000
  C   C32       1.0  0.8915433799588185  0.8466416183752303  0.6301742077024883  1.0000
  C   C33       1.0  0.45792888919257985  0.5753897094916383  0.5651726387494023  1.0000
  C   C34       1.0  0.042073368929692385  0.07538928589018921  0.4348244543652483  1.0000
  C   C35       1.0  0.542071978019365  0.4246101150525447  0.4348243759231494  1.0000
  C   C36       1.0  0.957930236541152  0.9246105386494463  0.5651739479519831  1.0000
  C   C37       1.0  0.6115534679546784  0.5036201059395182  0.5788981131033353  1.0000
  C   C38       1.0  0.8884525147146788  0.0036210118791900003  0.42110029903898993  1.0000
  C   C39       1.0  0.38845013042659815  0.49637887222356625  0.42109965184369696  1.0000
  C   C40       1.0  0.11155245278848008  0.9963796590345453  0.5788981597302081  1.0000
  C   C41       1.0  0.3513909351768731  0.5702659193580928  0.4865471478848704  1.0000
  C   C42       1.0  0.14860865891863284  0.07026599620802898  0.5134511081404866  1.0000
  C   C43       1.0  0.6486099462255622  0.42973305880980217  0.5134511415283427  1.0000
  C   C44       1.0  0.8513935916056778  0.9297346747105166  0.48654787509489233  1.0000
  C   C45       1.0  0.8606010631504402  0.4238563232475484  0.6723084625749534  1.0000
  C   C46       1.0  0.6393984553639953  0.9238569339813194  0.3276916606649606  1.0000
  C   C47       1.0  0.13939710837029648  0.5761418085487833  0.32769098867482427  1.0000
  C   C48       1.0  0.36060243313558255  0.0761411978102018  0.6723072661186292  1.0000
  C   C49       1.0  0.024650665012366294  0.44040950817475283  0.6243894119819229  1.0000
  C   C50       1.0  0.47535246880608634  0.9404123505313537  0.37561287291865847  1.0000
  C   C51       1.0  0.9753502518606254  0.5595886236171167  0.3756120642828265  1.0000
  C   C52       1.0  0.5246484338802019  0.05958578126034548  0.6243873286055147  1.0000
  C   C53       1.0  0.10383010759348107  0.35564052978926947  0.585573776235961  1.0000
  C   C54       1.0  0.39617242292036536  0.8556436598958399  0.414428469985701  1.0000
  C   C55       1.0  0.896169440153848  0.6443567556284151  0.41442700620653733  1.0000
  C   C56       1.0  0.6038298417944433  0.14435616464641754  0.5855717879903466  1.0000
  O   O1        1.0  0.028375257250303296  0.6255772297686094  0.782615169123673  1.0000
  O   O2        1.0  0.47162250809989814  0.1255803212138176  0.21738556833356878  1.0000
  O   O3        1.0  0.9716201972877981  0.3744217484089916  0.2173848065921931  1.0000
  O   O4        1.0  0.5283743084440005  0.8744254279731153  0.7826144638336386  1.0000
  O   O5        1.0  0.22772634393525243  0.7107249091070714  0.8778334602468687  1.0000
  O   O6        1.0  0.2722665590135378  0.21072443233290264  0.12216581526144667  1.0000
  O   O7        1.0  0.772270451355098  0.2892749154443663  0.1221646598100961  1.0000
  O   O8        1.0  0.7277288955169893  0.7892762385976225  0.8778341604542417  1.0000
  O   O9        1.0  0.7407260027517069  0.5317932588342489  0.8603371984960261  1.0000
  O   O10       1.0  0.7592743009041668  0.0317902936665106  0.1396628940424094  1.0000
  O   O11       1.0  0.25927080672914116  0.46820571934090793  0.13966219630160026  1.0000
  O   O12       1.0  0.24072934003723392  0.9682086844971067  0.8603386951263587  1.0000
  O   O13       1.0  0.4595988568032751  0.6478090848346126  0.7091395557987781  1.0000
  O   O14       1.0  0.0404041293492767  0.1478077752894791  0.2908588533247211  1.0000
  O   O15       1.0  0.5404020245991603  0.35218989333328204  0.290858733614435  1.0000
  O   O16       1.0  0.9595994761177805  0.852192895626622  0.709139548992418  1.0000
  O   O17       1.0  0.2624137534460473  0.7211225411198895  0.6083563613851978  1.0000
  O   O18       1.0  0.23758313544798423  0.22112311635092397  0.39164244392884473  1.0000
  O   O19       1.0  0.7375857588269383  0.278876437050279  0.39164123420567165  1.0000
  O   O20       1.0  0.7624164051870466  0.7788784009489831  0.608357701142914  1.0000
  O   O21       1.0  0.7194416680854304  0.509280495972625  0.6548082855343225  1.0000
  O   O22       1.0  0.7805574608313606  0.0092817534083594  0.3451904805311941  1.0000
  O   O23       1.0  0.2805592275074957  0.49071763581898137  0.3451912786195592  1.0000
  O   O24       1.0  0.21944070358844672  0.9907180711408117  0.6548083333481073  1.0000
