data_image0
_chemical_formula_structural       Mn4H16C4Se4N4O12
_chemical_formula_sum              "Mn4 H16 C4 Se4 N4 O12"
_cell_length_a       4.92815711600249
_cell_length_b       6.030354012007047
_cell_length_c       15.285286477009628
_cell_angle_alpha    90.00012505812606
_cell_angle_beta     90.00005179178522
_cell_angle_gamma    89.9998911919489

_space_group_name_H-M_alt    "P 1"
_space_group_IT_number       1

loop_
  _space_group_symop_operation_xyz
  'x, y, z'

loop_
  _atom_site_type_symbol
  _atom_site_label
  _atom_site_symmetry_multiplicity
  _atom_site_fract_x
  _atom_site_fract_y
  _atom_site_fract_z
  _atom_site_occupancy
  Mn  Mn1       1.0  0.8350739366603647  0.9999993289075209  0.2328159720179386  1.0000
  Mn  Mn2       1.0  0.16492885018249126  2.1954024730000034e-07  0.7671835517072482  1.0000
  Mn  Mn3       1.0  0.3350722758611298  0.5000009468827998  0.26718401623470817  1.0000
  Mn  Mn4       1.0  0.6649284818245248  0.5000002598455993  0.732816161714851  1.0000
  H   H1        1.0  0.41006608881210127  0.1363535742809461  0.13602112517631332  1.0000
  H   H2        1.0  0.5899457061658068  0.13636528860385513  0.8639787214239123  1.0000
  H   H3        1.0  0.9100583049394827  0.363633990612108  0.3639784293790527  1.0000
  H   H4        1.0  0.08993467043322309  0.3636386173100519  0.6360196616420597  1.0000
  H   H5        1.0  0.5899326397244806  0.8636426576183283  0.8639797069946056  1.0000
  H   H6        1.0  0.4100530223737237  0.8636292850196909  0.1360227649701713  1.0000
  H   H7        1.0  0.08994448190631492  0.6363638995599316  0.6360217485692985  1.0000
  H   H8        1.0  0.9100640580985766  0.6363592728615542  0.3639792078578666  1.0000
  H   H9        1.0  0.7459642970073047  0.1463723398651027  0.02072468092448791  1.0000
  H   H10       1.0  0.2540454442536628  0.14638514758462412  0.9792771374768137  1.0000
  H   H11       1.0  0.24595830407362476  0.3536237570890179  0.4792774425840279  1.0000
  H   H12       1.0  0.7540346958460091  0.3536268090560099  0.5207232562106867  1.0000
  H   H13       1.0  0.25403240237024255  0.8536255503113991  0.9792754970229753  1.0000
  H   H14       1.0  0.7459532842799703  0.8536127425903858  0.020723040470940608  1.0000
  H   H15       1.0  0.7540424536036879  0.646385741029981  0.520724043817154  1.0000
  H   H16       1.0  0.24595794520330833  0.6463826890621219  0.4792756132936375  1.0000
  C   C1        1.0  0.6173939086678999  0.9999857009274535  0.0326934233972622  1.0000
  C   C2        1.0  0.3826027907137118  8.872694166899998e-06  0.9673067545486874  1.0000
  C   C3        1.0  0.117394836672517  0.49999665305428215  0.46730650124663253  1.0000
  C   C4        1.0  0.8826018626980172  0.5000062119528224  0.5326930224791795  1.0000
  Se  Se1       1.0  0.4074956521693736  2.341702384e-06  0.3770122933989768  1.0000
  Se  Se2       1.0  0.5925071346723598  0.9999988650245298  0.6229878845508879  1.0000
  Se  Se3       1.0  0.9074949766676212  0.5000018097312875  0.12298791463788213  1.0000
  Se  Se4       1.0  0.09250578101803342  0.49999939699711154  0.8770122633116841  1.0000
  N   N1        1.0  0.5301740174550176  1.5934597286000003e-06  0.1243431836720603  1.0000
  N   N2        1.0  0.4698247110774999  0.9999979549944272  0.875657648500372  1.0000
  N   N3        1.0  0.030175492508178102  0.500003111344661  0.3756569141208886  1.0000
  N   N4        1.0  0.9698232360143707  0.5000030702158397  0.6243426096067283  1.0000
  O   O1        1.0  0.0715079523884512  8.64177828e-07  0.35182396926450826  1.0000
  O   O2        1.0  0.9284948344543976  0.9999986842699471  0.6481755544606784  1.0000
  O   O3        1.0  0.5715053181715533  0.5000004634551872  0.14817614060309844  1.0000
  O   O4        1.0  0.4284954395161335  0.49999908499577833  0.8518240373457149  1.0000
  O   O5        1.0  0.5463524800795128  0.21540899834982943  0.3140086858912029  1.0000
  O   O6        1.0  0.4536489753149624  0.2154100354584543  0.6859899242903538  1.0000
  O   O7        1.0  0.04635192366610139  0.28458904961588166  0.1859901081775419  1.0000
  O   O8        1.0  0.9536473329688204  0.28459002049381615  0.8140085650407372  1.0000
  O   O9        1.0  0.453648277608174  0.784590550101129  0.6859914920576102  1.0000
  O   O10       1.0  0.5463538115317519  0.7845878547152907  0.31401090788191516  1.0000
  O   O11       1.0  0.9536488340215854  0.7154104988350838  0.8140100697712641  1.0000
  O   O12       1.0  0.0463534247199817  0.7154078696780034  0.18599095868339793  1.0000
