data_image0
_chemical_formula_structural       Al2H18C42Cl6O12
_chemical_formula_sum              "Al2 H18 C42 Cl6 O12"
_cell_length_a       3.9786659020225876
_cell_length_b       24.689858545812715
_cell_length_c       24.68989437322813
_cell_angle_alpha    120.00003990337602
_cell_angle_beta     90.00031888013206
_cell_angle_gamma    90.00000906030343

_space_group_name_H-M_alt    "P 1"
_space_group_IT_number       1

loop_
  _space_group_symop_operation_xyz
  'x, y, z'

loop_
  _atom_site_type_symbol
  _atom_site_label
  _atom_site_symmetry_multiplicity
  _atom_site_fract_x
  _atom_site_fract_y
  _atom_site_fract_z
  _atom_site_occupancy
  Al  Al1       1.0  0.9923060285465298  0.4999997694657452  0.5000019226018395  1.0000
  Al  Al2       1.0  0.992306395006743  0.16666675521285856  0.833335589700617  1.0000
  H   H1        1.0  0.4984307614039167  0.44323712570125207  0.7325184079414341  1.0000
  H   H2        1.0  0.49845861700549693  0.22342526054973177  0.6008142011362948  1.0000
  H   H3        1.0  0.5179866663206739  0.3379764593662671  0.8322931429627615  1.0000
  H   H4        1.0  0.5037372829475686  0.39758207529241935  0.7772288150534264  1.0000
  H   H5        1.0  0.5179987316749932  0.3286854719485958  0.5010399583027833  1.0000
  H   H6        1.0  0.5037460988562116  0.2690808906207706  0.5561048445542126  1.0000
  H   H7        1.0  0.4984606763586045  0.7892788323052857  0.5567586885852976  1.0000
  H   H8        1.0  0.4984543319396479  0.8773844630655105  0.7765703485291551  1.0000
  H   H9        1.0  0.5179816390507382  0.9943166640946972  0.6620249065844349  1.0000
  H   H10       1.0  0.5037396337061254  0.8796463194811467  0.6024171453585296  1.0000
  H   H11       1.0  0.5180042548818306  0.6723516128369978  0.671310526883502  1.0000
  H   H12       1.0  0.5037492707781868  0.7870204533761154  0.7309149047383343  1.0000
  H   H13       1.0  0.4984496204100779  0.267479284796032  0.2107232246479214  1.0000
  H   H14       1.0  0.498445703085487  0.3991867342672962  0.12261698659328606  1.0000
  H   H15       1.0  0.5179979317273862  0.1677069360941132  0.005688041373431916  1.0000
  H   H16       1.0  0.5037438363188331  0.22277073227003544  0.12035778209532569  1.0000
  H   H17       1.0  0.517995924723131  0.49895922103151963  0.32765044896543577  1.0000
  H   H18       1.0  0.5037454905255813  0.44389367014822073  0.21298081568918553  1.0000
  C   C1        1.0  0.49496432927889344  0.4515451238198622  0.40406815238539906  1.0000
  C   C2        1.0  0.4949692509219901  0.4525186679484038  0.5484552799993808  1.0000
  C   C3        1.0  0.49496427895530093  0.5959338777780302  0.5474793123898037  1.0000
  C   C4        1.0  0.49497056183318483  0.2141446972699016  0.7848787736356613  1.0000
  C   C5        1.0  0.49496045340596584  0.0707321514249983  0.7858569375413963  1.0000
  C   C6        1.0  0.494967943333684  0.21512205780223342  0.9292701853289385  1.0000
  C   C7        1.0  0.5012483210802473  0.41880309913491953  0.5844607624285486  1.0000
  C   C8        1.0  0.5012434377796069  0.2478607378579908  0.7488728313935054  1.0000
  C   C9        1.0  0.49450344940477464  0.4498675176588309  0.6499914017628114  1.0000
  C   C10       1.0  0.4965574134473414  0.41644474029124007  0.6816830117000591  1.0000
  C   C11       1.0  0.4945064033614912  0.21679486602324255  0.6833412023757431  1.0000
  C   C12       1.0  0.496569397229905  0.25021670936832413  0.6516505303811683  1.0000
  C   C13       1.0  0.5101892206751515  0.31336800252381636  0.7813102793144678  1.0000
  C   C14       1.0  0.5032969533924784  0.3467243784987702  0.7497393391775162  1.0000
  C   C15       1.0  0.5101979839600758  0.35329311365617133  0.5520220021248575  1.0000
  C   C16       1.0  0.503304223137782  0.3199375432361292  0.5835937436689277  1.0000
  C   C17       1.0  0.4979744034403454  0.35075856142027817  0.649418817003898  1.0000
  C   C18       1.0  0.49797496139052577  0.31590422954898395  0.6839141965089509  1.0000
  C   C19       1.0  0.5012483890189897  0.6656559658014913  0.5811940715378298  1.0000
  C   C20       1.0  0.5012433698567165  0.0010110655210409357  0.7521403782034567  1.0000
  C   C21       1.0  0.49450944844436856  0.7001209774236301  0.5501289246192584  1.0000
  C   C22       1.0  0.4965735438351829  0.7652345441021994  0.5835513978086339  1.0000
  C   C23       1.0  0.4945059270295218  0.9665427036071321  0.7832037695486987  1.0000
  C   C24       1.0  0.4965713565503621  0.9014289670913272  0.7497806600830117  1.0000
  C   C25       1.0  0.5101879664445051  0.967940592524954  0.6866317495360406  1.0000
  C   C26       1.0  0.503303160843693  0.9030133806525243  0.6532740323427009  1.0000
  C   C27       1.0  0.5101997341314046  0.6987266354306882  0.6467030979461866  1.0000
  C   C28       1.0  0.5033060517831415  0.7636525192108296  0.6800580798593927  1.0000
  C   C29       1.0  0.4979821627316242  0.7986569778482039  0.649236805176905  1.0000
  C   C30       1.0  0.4979827783908847  0.8680085761777435  0.6840940226232631  1.0000
  C   C31       1.0  0.5012491754311768  0.4155392037524023  0.3343457095310995  1.0000
  C   C32       1.0  0.5012450969117098  0.25112734309928425  0.9989924648737013  1.0000
  C   C33       1.0  0.4945101285613874  0.350006743867148  0.2998799873846067  1.0000
  C   C34       1.0  0.4965725328291342  0.31831640746420936  0.2347686974320524  1.0000
  C   C35       1.0  0.49450064244501846  0.3166581202090201  0.03345813113585903  1.0000
  C   C36       1.0  0.496562736350306  0.3483488461920814  0.09857308567908521  1.0000
  C   C37       1.0  0.5101942733412274  0.21868873023178992  0.03206272380517566  1.0000
  C   C38       1.0  0.5033011009315375  0.2502607912538011  0.09698932627072314  1.0000
  C   C39       1.0  0.5101988763757531  0.4479771253088317  0.3012768633004655  1.0000
  C   C40       1.0  0.5033085340472214  0.4164040785600207  0.23634880328135216  1.0000
  C   C41       1.0  0.4979820118414794  0.35058034194277354  0.20134486929857331  1.0000
  C   C42       1.0  0.4979758114562003  0.3160851006066068  0.13199429746576638  1.0000
  Cl  Cl1       1.0  0.5015065685216201  0.5307025245245356  0.6938780941191495  1.0000
  Cl  Cl2       1.0  0.5015104920527874  0.13595933338423558  0.6394558591860076  1.0000
  Cl  Cl3       1.0  0.5015154561389537  0.6631710781473714  0.4692937056959964  1.0000
  Cl  Cl4       1.0  0.5015041178161112  0.0034897985291663233  0.8640387986971728  1.0000
  Cl  Cl5       1.0  0.5015080433640263  0.3061223278607414  0.33683108257893923  1.0000
  Cl  Cl6       1.0  0.5015039905192183  0.3605446700528034  0.9965098814503434  1.0000
  O   O1        1.0  0.7266929100756344  0.568524215213735  0.5603997890964436  1.0000
  O   O2        1.0  0.7266932356215604  0.4918752561746232  0.43147861508647617  1.0000
  O   O3        1.0  0.726702028069134  0.43960004490560317  0.5081263964596302  1.0000
  O   O4        1.0  0.25545872167023737  0.5688123671032699  0.5091867165500757  1.0000
  O   O5        1.0  0.2554695777569549  0.4908129198661798  0.5596281072594566  1.0000
  O   O6        1.0  0.25545735731456193  0.44037289571652144  0.43118915332954094  1.0000
  O   O7        1.0  0.7267009223224504  0.1747933542790036  0.9018603555103082  1.0000
  O   O8        1.0  0.7266946431929426  0.22706393909310654  0.8252074800060142  1.0000
  O   O9        1.0  0.7266911942231076  0.09814254129645404  0.7729377952371477  1.0000
  O   O10       1.0  0.25547013153244796  0.22629395855497583  0.9021482452623243  1.0000
  O   O11       1.0  0.2554612269469345  0.09785367711629085  0.8241498719883609  1.0000
  O   O12       1.0  0.2554579110558989  0.17585103657449955  0.7737073288673101  1.0000
