data_image0
_chemical_formula_structural       Na4H36C32S4N8O12
_chemical_formula_sum              "Na4 H36 C32 S4 N8 O12"
_cell_length_a       9.55054167180343
_cell_length_b       10.030059898001037
_cell_length_c       10.316364814339462
_cell_angle_alpha    89.99998997754481
_cell_angle_beta     97.9677166336273
_cell_angle_gamma    89.99995068498036

_space_group_name_H-M_alt    "P 1"
_space_group_IT_number       1

loop_
  _space_group_symop_operation_xyz
  'x, y, z'

loop_
  _atom_site_type_symbol
  _atom_site_label
  _atom_site_symmetry_multiplicity
  _atom_site_fract_x
  _atom_site_fract_y
  _atom_site_fract_z
  _atom_site_occupancy
  Na  Na1       1.0  0.23959554959091628  0.48221130227886994  0.8328560664010497  1.0000
  Na  Na2       1.0  0.26040392580356553  0.9822113602349917  0.16714343345655894  1.0000
  Na  Na3       1.0  0.7604035923077602  0.5177892031023889  0.1671431371079208  1.0000
  Na  Na4       1.0  0.7395962733580818  0.017789145145819404  0.8328559085760007  1.0000
  H   H1        1.0  0.3976168736027148  0.43872996669333725  0.5639006880546447  1.0000
  H   H2        1.0  0.10238264920410957  0.9387301044832133  0.43609688643694255  1.0000
  H   H3        1.0  0.6023833286680825  0.5612695416845385  0.4360976850474785  1.0000
  H   H4        1.0  0.8976164958037173  0.06126940389511052  0.5639013481415844  1.0000
  H   H5        1.0  0.37035234023727537  0.49935476257623895  0.3238933778934339  1.0000
  H   H6        1.0  0.1296471189156421  0.9993538367612519  0.6761061170378326  1.0000
  H   H7        1.0  0.6296489161863975  0.5006477368101655  0.6761061026624304  1.0000
  H   H8        1.0  0.8703520229835034  0.0006456716169865002  0.32389308647127985  1.0000
  H   H9        1.0  0.1664496869520207  0.6445852932051324  0.23352142933567424  1.0000
  H   H10       1.0  0.3335490510531613  0.1445841735279672  0.766478029021485  1.0000
  H   H11       1.0  0.8335494549466488  0.3554152121761264  0.7664777741732962  1.0000
  H   H12       1.0  0.6664500877377719  0.8554143378471654  0.2335221434183552  1.0000
  H   H13       1.0  0.0001274631221335  0.7238750036607585  0.3828042938101817  1.0000
  H   H14       1.0  0.4998711966534231  0.2238747722803184  0.6171961106920918  1.0000
  H   H15       1.0  0.9998716787765433  0.2761255017204932  0.617194909698789  1.0000
  H   H16       1.0  0.500127939027891  0.7761257331007558  0.38280503067804267  1.0000
  H   H17       1.0  0.9317473854428965  0.7375684384301169  0.6011387134074013  1.0000
  H   H18       1.0  0.5682522688907812  0.23756959787928625  0.3988612380493707  1.0000
  H   H19       1.0  0.0682528106105451  0.26243106994758153  0.3988615975558858  1.0000
  H   H20       1.0  0.431747927162192  0.7624309075014327  0.6011390729137744  1.0000
  H   H21       1.0  0.8963585726221268  0.6089460632505849  0.8958965934336051  1.0000
  H   H22       1.0  0.6036433118793382  0.10894724807710084  0.10410560989348737  1.0000
  H   H23       1.0  0.10364373484952691  0.39105145112010586  0.10410496350773708  1.0000
  H   H24       1.0  0.3963579383279239  0.8910532573030853  0.8958958085238322  1.0000
  H   H25       1.0  0.8549326490193253  0.7517837211270831  0.7942601946540151  1.0000
  H   H26       1.0  0.6450659314744129  0.2517858502781891  0.2057405831245873  1.0000
  H   H27       1.0  0.1450654294004323  0.2482137932453838  0.20574080819295662  1.0000
  H   H28       1.0  0.35493426146940277  0.7482156521054649  0.7942606967689941  1.0000
  H   H29       1.0  0.06357921993808449  0.8729069399862444  0.9139185456843464  1.0000
  H   H30       1.0  0.4364203590134396  0.37290685854289773  0.0860809855838767  1.0000
  H   H31       1.0  0.9364188646985666  0.12709157138942123  0.08608051930131914  1.0000
  H   H32       1.0  0.563580894302504  0.6270936468373807  0.9139194639028575  1.0000
  H   H33       1.0  0.1204854961334973  0.7240664141654493  0.000903819727433596  1.0000
  H   H34       1.0  0.3795142269414953  0.22406521393167375  0.9990947853824039  1.0000
  H   H35       1.0  0.8795147030281497  0.27593409121536183  0.9990955223051331  1.0000
  H   H36       1.0  0.6204849118485001  0.7759352914494926  0.0009053870571448956  1.0000
  C   C1        1.0  0.3116364930082084  0.5028741892109994  0.5198408130121663  1.0000
  C   C2        1.0  0.18836238236435324  0.0028752352782249013  0.4801577171373594  1.0000
  C   C3        1.0  0.6883637092625889  0.4971253191668767  0.4801575600899568  1.0000
  C   C4        1.0  0.8116367595347925  0.9971242731000133  0.5198414863717531  1.0000
  C   C5        1.0  0.2958001959772858  0.5356985383693884  0.3867424608223615  1.0000
  C   C6        1.0  0.20419758792619552  0.035697552909439906  0.6132568903017699  1.0000
  C   C7        1.0  0.7041989459218668  0.46430097000884984  0.613256742686751  1.0000
  C   C8        1.0  0.7958015508647449  0.9643009584656923  0.3867432821380703  1.0000
  C   C9        1.0  0.18301197845770636  0.617065002589456  0.336491915726576  1.0000
  C   C10       1.0  0.3169857252490401  0.11706391547188134  0.6635083809460198  1.0000
  C   C11       1.0  0.8169871634404942  0.3829364997948162  0.6635072877822523  1.0000
  C   C12       1.0  0.6830134104327427  0.8829355929061794  0.3364927604242567  1.0000
  C   C13       1.0  0.09073141789311731  0.6623299667075389  0.4204955676233126  1.0000
  C   C14       1.0  0.4092673001913028  0.16232981649616826  0.5795048545650303  1.0000
  C   C15       1.0  0.9092677208964093  0.33767153567664826  0.5795046048161012  1.0000
  C   C16       1.0  0.5907318354904871  0.8376696918818926  0.42049628680523904  1.0000
  C   C17       1.0  0.11553897341908481  0.6259742292661343  0.552672665010121  1.0000
  C   C18       1.0  0.3844587249546477  0.12597512075858222  0.4473266601713846  1.0000
  C   C19       1.0  0.8844601653713866  0.3740252791120185  0.44732750742957716  1.0000
  C   C20       1.0  0.6155404138348713  0.8740263816255974  0.5526735122680293  1.0000
  C   C21       1.0  0.020524315035096698  0.6737406744122583  0.6439051002361609  1.0000
  C   C22       1.0  0.4794754495011163  0.17374150490108786  0.35609545719655966  1.0000
  C   C23       1.0  0.9794758779101328  0.32625783696233424  0.35609617965784685  1.0000
  C   C24       1.0  0.5205247465518568  0.8262590004796384  0.6439048537665855  1.0000
  C   C25       1.0  0.9423571615767441  0.694359297343411  0.8494153011988531  1.0000
  C   C26       1.0  0.5576446482204602  0.19435951427303177  0.1505849397221724  1.0000
  C   C27       1.0  0.05764515211179601  0.3056392140304639  0.15058431788118304  1.0000
  C   C28       1.0  0.4423555478325055  0.8056409911076873  0.8494153712409725  1.0000
  C   C29       1.0  0.027741690241093405  0.779914485287705  0.9549011953830018  1.0000
  C   C30       1.0  0.472257979921423  0.2799153790506211  0.04509739367757247  1.0000
  C   C31       1.0  0.9722585089219749  0.2200830290840443  0.04509814664999107  1.0000
  C   C32       1.0  0.5277422192402241  0.7200851263301832  0.9549019483549869  1.0000
  S   S1        1.0  0.9319159233495  0.8270963660594502  0.0850756059318485  1.0000
  S   S2        1.0  0.5680857637989049  0.3270964334573421  0.914923627914206  1.0000
  S   S3        1.0  0.06808639033856419  0.17290314231744475  0.9149240131480384  1.0000
  S   S4        1.0  0.4319154895170386  0.6729040719229291  0.0850768215725282  1.0000
  N   N1        1.0  0.22495992792054414  0.5468530173291486  0.6017850740084967  1.0000
  N   N2        1.0  0.2750378485227145  0.04685400751105111  0.39821330497932195  1.0000
  N   N3        1.0  0.7750392170872826  0.4531464910491749  0.39821316057003037  1.0000
  N   N4        1.0  0.7249612902672736  0.9531464978701153  0.6017868674602269  1.0000
  N   N5        1.0  0.039618030201090386  0.6422921891714071  0.7652350024068468  1.0000
  N   N6        1.0  0.46038070686700644  0.14229305767980802  0.234765425539571  1.0000
  N   N7        1.0  0.9603811116980553  0.3577073192068313  0.2347642011022657  1.0000
  N   N8        1.0  0.5396184288138387  0.8577084447042937  0.7652357158304213  1.0000
  O   O1        1.0  0.8118931257654934  0.9110410836316379  0.028517709968518462  1.0000
  O   O2        1.0  0.6881074183718495  0.4110410422827826  0.9714832990920854  1.0000
  O   O3        1.0  0.18810813376875044  0.0889574277427769  0.9714808016573429  1.0000
  O   O4        1.0  0.3118927745724421  0.588959463097851  0.02851798080163799  1.0000
  O   O5        1.0  0.8853114593552647  0.702238700984829  0.1400745767491287  1.0000
  O   O6        1.0  0.6146892857139575  0.2022387403518664  0.8599255233840354  1.0000
  O   O7        1.0  0.1146887366981773  0.2977608073928764  0.8599257342141585  1.0000
  O   O8        1.0  0.3853109103390082  0.7977617650288523  0.1400747875791026  1.0000
  O   O9        1.0  0.0335944715235712  0.9010534122741236  0.1790131853132522  1.0000
  O   O10       1.0  0.4664071921783375  0.4010541677211565  0.8209875838442146  1.0000
  O   O11       1.0  0.9664067817933173  0.0989450991001206  0.8209872641737663  1.0000
  O   O12       1.0  0.533594061137606  0.5989463376591219  0.1790128656425196  1.0000
