data_image0
_chemical_formula_structural       Zn4H40C56N12O16
_chemical_formula_sum              "Zn4 H40 C56 N12 O16"
_cell_length_a       8.545345725007142
_cell_length_b       12.814650321012389
_cell_length_c       13.595002175351866
_cell_angle_alpha    89.99999382539251
_cell_angle_beta     108.12573388761669
_cell_angle_gamma    89.99985034473508

_space_group_name_H-M_alt    "P 1"
_space_group_IT_number       1

loop_
  _space_group_symop_operation_xyz
  'x, y, z'

loop_
  _atom_site_type_symbol
  _atom_site_label
  _atom_site_symmetry_multiplicity
  _atom_site_fract_x
  _atom_site_fract_y
  _atom_site_fract_z
  _atom_site_occupancy
  Zn  Zn1       1.0  0.7656735840205542  0.07477231643844819  0.6307698664279329  1.0000
  Zn  Zn2       1.0  0.23432677817643818  0.5747731507020504  0.8692298710557438  1.0000
  Zn  Zn3       1.0  0.23432795839985224  0.9252298649697863  0.36922806054426627  1.0000
  Zn  Zn4       1.0  0.7656735580512263  0.42522981106397134  0.1307707660184932  1.0000
  H   H1        1.0  0.7299172314062616  0.12889089738847298  0.04318414073462409  1.0000
  H   H2        1.0  0.27007823975632306  0.628894003315061  0.45681871506346994  1.0000
  H   H3        1.0  0.27008187979928516  0.8711066018807402  0.9568169960954338  1.0000
  H   H4        1.0  0.7299147211444675  0.37110817810058433  0.5431819733974237  1.0000
  H   H5        1.0  0.8687391821549324  0.28629732298575317  0.3242925879495361  1.0000
  H   H6        1.0  0.13126419329397268  0.7862983527961234  0.17570882379752817  1.0000
  H   H7        1.0  0.1312672980964749  0.7137009566338718  0.6757077607107578  1.0000
  H   H8        1.0  0.8687312239577166  0.21370304826054815  0.8242916019406296  1.0000
  H   H9        1.0  0.004541664802346198  0.9104071683237648  0.8885825643330209  1.0000
  H   H10       1.0  0.9954560015156775  0.41040671305769644  0.6114173399921726  1.0000
  H   H11       1.0  0.995452508570494  0.08959501309089293  0.11141615080855868  1.0000
  H   H12       1.0  0.0045418720869108  0.589593907639987  0.38858282302324915  1.0000
  H   H13       1.0  0.8719485683706691  0.0193341045054609  0.8473467024512261  1.0000
  H   H14       1.0  0.12804957414687118  0.5193328006467794  0.6526526159620333  1.0000
  H   H15       1.0  0.12804804879274198  0.9806665161934516  0.15265027640178633  1.0000
  H   H16       1.0  0.871947068142326  0.48066703969516306  0.3473473100237783  1.0000
  H   H17       1.0  0.0648563385097916  0.0339259203186373  0.9466815703945459  1.0000
  H   H18       1.0  0.9351417400602031  0.5339255502046781  0.5533177335448087  1.0000
  H   H19       1.0  0.9351378223044333  0.9660747003824212  0.05331567118159339  1.0000
  H   H20       1.0  0.0648573460161472  0.4660742901351823  0.44668045615167545  1.0000
  H   H21       1.0  0.29855263038096774  0.18675395100179068  0.1386284263331561  1.0000
  H   H22       1.0  0.7014523937782257  0.6867500651476133  0.3613711108329128  1.0000
  H   H23       1.0  0.7014538310222561  0.8132466696884462  0.8613697119766642  1.0000
  H   H24       1.0  0.29854302348372397  0.313246653768026  0.6386293149075614  1.0000
  H   H25       1.0  0.39812282579966046  0.0489795009764649  0.7113329345615541  1.0000
  H   H26       1.0  0.6018776619819876  0.5489843791956445  0.7886683020699081  1.0000
  H   H27       1.0  0.6018762916903243  0.9510164375790353  0.28866893905237845  1.0000
  H   H28       1.0  0.39812637447371196  0.4510178022102452  0.21133378287778026  1.0000
  H   H29       1.0  0.5042448971590546  0.1436405877107418  0.8788638789703072  1.0000
  H   H30       1.0  0.49575148185349593  0.6436417630614528  0.621136552679822  1.0000
  H   H31       1.0  0.4957529764486566  0.856357691916436  0.12113628404627264  1.0000
  H   H32       1.0  0.5042414727662745  0.35636041835422827  0.37886339899797156  1.0000
  H   H33       1.0  0.46275182455872244  0.2985781646572363  0.057602238694627765  1.0000
  H   H34       1.0  0.5372551847413476  0.7985769015157588  0.4423991351792083  1.0000
  H   H35       1.0  0.5372583684759107  0.7014224560295329  0.9424010314037758  1.0000
  H   H36       1.0  0.4627402199551511  0.201421378113622  0.5575998169942907  1.0000
  H   H37       1.0  0.09192433402761681  0.0924885703443081  0.5686228349204046  1.0000
  H   H38       1.0  0.908078419440393  0.5924905597209147  0.9313780958332318  1.0000
  H   H39       1.0  0.9080796898745971  0.9075097092774554  0.43137777646300884  1.0000
  H   H40       1.0  0.09192559817054761  0.4075124020419095  0.06862177876475781  1.0000
  C   C1        1.0  0.6316308838348234  0.0710618604507403  0.024500731755338664  1.0000
  C   C2        1.0  0.368363603155366  0.5710647926329031  0.4755012075896873  1.0000
  C   C3        1.0  0.36836822109312817  0.9289340781048308  0.9754996682923862  1.0000
  C   C4        1.0  0.6316293703091701  0.4289366084258361  0.5245009544377981  1.0000
  C   C5        1.0  0.37386578579321394  0.0088847804172758  0.9067873610300838  1.0000
  C   C6        1.0  0.6261336338281184  0.5088849489785829  0.5932122047769968  1.0000
  C   C7        1.0  0.6261333065675669  0.9911134992088788  0.0932115654502752  1.0000
  C   C8        1.0  0.3738630210196873  0.4911164520769588  0.4067891947742482  1.0000
  C   C9        1.0  0.7419230184678225  0.26301080727883164  0.28466788369200213  1.0000
  C   C10       1.0  0.2580816840655302  0.7630108313608306  0.2153330514000587  1.0000
  C   C11       1.0  0.2580859306896741  0.7369898134090959  0.7153336758102072  1.0000
  C   C12       1.0  0.7419124955934606  0.23698900898327926  0.7846664005257794  1.0000
  C   C13       1.0  0.6586228539888878  0.20142823809786845  0.33676870213690085  1.0000
  C   C14       1.0  0.3413796871920525  0.7014281201446549  0.16323550389379451  1.0000
  C   C15       1.0  0.34138364510214797  0.7985716022353273  0.6632338568719264  1.0000
  C   C16       1.0  0.6586169613798702  0.29857093984040967  0.8367651588755083  1.0000
  C   C17       1.0  0.4946076380686362  0.17314278958117768  0.2845266374494173  1.0000
  C   C18       1.0  0.5053974708584191  0.6731408193573641  0.2154758603488673  1.0000
  C   C19       1.0  0.50540008605477  0.8268578311078018  0.7154754218059126  1.0000
  C   C20       1.0  0.4945991714376134  0.32685589955721644  0.7845240656384933  1.0000
  C   C21       1.0  0.0011323186180547005  0.9948745567152953  0.8734030808414845  1.0000
  C   C22       1.0  0.9988662088531793  0.4948748746626207  0.6265969767311078  1.0000
  C   C23       1.0  0.9988655424242054  0.0051252836256239  0.12659560860811336  1.0000
  C   C24       1.0  0.0011304334343052  0.5051257460361569  0.3734029492543273  1.0000
  C   C25       1.0  0.4251084407018624  0.20676921092292128  0.18217584758640024  1.0000
  C   C26       1.0  0.5748964831770919  0.7067678913545662  0.31782219615929824  1.0000
  C   C27       1.0  0.574896776827643  0.7932298490547892  0.8178205801280003  1.0000
  C   C28       1.0  0.4250989403658777  0.2932288275610447  0.6821789663642834  1.0000
  C   C29       1.0  0.08082242422256058  0.021150690391657193  0.7941156999182157  1.0000
  C   C30       1.0  0.9191781792416193  0.5211511169081219  0.7058848275354281  1.0000
  C   C31       1.0  0.9191778994499129  0.9788491499470878  0.2058834635913627  1.0000
  C   C32       1.0  0.0808184504804146  0.478851064504397  0.2941136248830248  1.0000
  C   C33       1.0  0.7446824899551672  0.17305438377330512  0.4479889742329918  1.0000
  C   C34       1.0  0.2553176878134735  0.673054425238  0.052011838748924816  1.0000
  C   C35       1.0  0.2553190901513459  0.8269477976347231  0.5520133734378234  1.0000
  C   C36       1.0  0.7446789481895735  0.32694775617448363  0.9479873504526282  1.0000
  C   C37       1.0  0.2752892103412067  0.04970455987492529  0.7185365187382048  1.0000
  C   C38       1.0  0.7247112617031704  0.5497084429447624  0.7814632436083713  1.0000
  C   C39       1.0  0.7247135885286298  0.950292939391062  0.28146459239872007  1.0000
  C   C40       1.0  0.2752890745227887  0.45029529917810146  0.21853739346547488  1.0000
  C   C41       1.0  0.5048213142623509  0.0795615834683332  0.9313219684414877  1.0000
  C   C42       1.0  0.49517533927824076  0.5795643245711588  0.5686777899839656  1.0000
  C   C43       1.0  0.4951728528397367  0.9204359158053348  0.068676009919308  1.0000
  C   C44       1.0  0.5048188403721952  0.4204394175571409  0.4313216619399399  1.0000
  C   C45       1.0  0.5160387226499097  0.2689526479374109  0.13640671775948482  1.0000
  C   C46       1.0  0.48396963522705505  0.7689530449795468  0.3635934489625115  1.0000
  C   C47       1.0  0.4839677701601062  0.7310471923958204  0.8635951044662422  1.0000
  C   C48       1.0  0.5160294696940539  0.23104601500337202  0.6364069510836645  1.0000
  C   C49       1.0  0.3881907326646825  0.1142883681896549  0.33606789955672417  1.0000
  C   C50       1.0  0.6118170905305433  0.614285434999573  0.16393439389591444  1.0000
  C   C51       1.0  0.6118157350178492  0.8857130328573889  0.6639309755358128  1.0000
  C   C52       1.0  0.388180801915098  0.385715185698011  0.8360679794688083  1.0000
  C   C53       1.0  0.1240934742331348  0.06766460771214608  0.6486163188945755  1.0000
  C   C54       1.0  0.8759056877940948  0.5676666596317402  0.8513831886085585  1.0000
  C   C55       1.0  0.8759129997406631  0.9323321111938371  0.3513832929833853  1.0000
  C   C56       1.0  0.12409094821579458  0.43233240035339543  0.14861600059454366  1.0000
  N   N1        1.0  0.2473663808202318  0.0209975938414786  0.8103100637213672  1.0000
  N   N2        1.0  0.7526317481202651  0.5209990939370285  0.6896885162574123  1.0000
  N   N3        1.0  0.7526326989836535  0.9789983447142346  0.18968738919394926  1.0000
  N   N4        1.0  0.24736490672583492  0.47900308747535547  0.31031288329344875  1.0000
  N   N5        1.0  0.6727666261976353  0.29720844933221713  0.18734453089435735  1.0000
  N   N6        1.0  0.32724163297267234  0.7972114661236845  0.3126585549321633  1.0000
  N   N7        1.0  0.3272398729019486  0.7027874892167957  0.8126580281164095  1.0000
  N   N8        1.0  0.6727574593829786  0.20278915457298305  0.6873403715470375  1.0000
  N   N9        1.0  0.004714476360710801  0.0502268566293367  0.6963706879110136  1.0000
  N   N10       1.0  0.9952859996820035  0.550227922568574  0.803629810702006  1.0000
  N   N11       1.0  0.9952870786251536  0.9497737640651566  0.3036287126281679  1.0000
  N   N12       1.0  0.004713086387504  0.44977503919864154  0.19636837899292917  1.0000
  O   O1        1.0  0.6854429902302428  0.0916554127152764  0.4805807048575873  1.0000
  O   O2        1.0  0.31456245067121097  0.5916545724654796  0.019418926634088486  1.0000
  O   O3        1.0  0.3145634711763989  0.9083436472612831  0.5194174334530076  1.0000
  O   O4        1.0  0.6854378918426035  0.4083460482299942  0.9805824472244141  1.0000
  O   O5        1.0  0.861235516008044  0.22833397760111745  0.5007724418684277  1.0000
  O   O6        1.0  0.138761742022723  0.7283302872785455  0.9992303531570387  1.0000
  O   O7        1.0  0.13876237642904948  0.7716705448806497  0.4992299314943623  1.0000
  O   O8        1.0  0.8612349002681794  0.2716687727065549  0.0007695728291636699  1.0000
  O   O9        1.0  0.32436925332225996  0.1623802531322625  0.39316003463894594  1.0000
  O   O10       1.0  0.6756346589013518  0.6623740910136531  0.10684076324045581  1.0000
  O   O11       1.0  0.6756359830451684  0.8376211479158614  0.6068386034236042  1.0000
  O   O12       1.0  0.3243632335494198  0.3376241886134179  0.8931616101254323  1.0000
  O   O13       1.0  0.36684682073379793  0.0173836758575661  0.3085392314255985  1.0000
  O   O14       1.0  0.6331577269043364  0.5173783620669781  0.1914617102737708  1.0000
  O   O15       1.0  0.6331547342452238  0.9826200662642676  0.6914601691120269  1.0000
  O   O16       1.0  0.36684630327889767  0.4826199175547501  0.80853963789275  1.0000
