data_image0
_chemical_formula_structural       Mn4H136C152N16Cl8
_chemical_formula_sum              "Mn4 H136 C152 N16 Cl8"
_cell_length_a       12.953287280867816
_cell_length_b       12.95326850837651
_cell_length_c       25.946038499241375
_cell_angle_alpha    81.29404464124768
_cell_angle_beta     81.29413260372479
_cell_angle_gamma    72.13469650551046

_space_group_name_H-M_alt    "P 1"
_space_group_IT_number       1

loop_
  _space_group_symop_operation_xyz
  'x, y, z'

loop_
  _atom_site_type_symbol
  _atom_site_label
  _atom_site_symmetry_multiplicity
  _atom_site_fract_x
  _atom_site_fract_y
  _atom_site_fract_z
  _atom_site_occupancy
  Mn  Mn1       1.0  0.7165114874252365  0.20640658248235183  0.9361508759189757  1.0000
  Mn  Mn2       1.0  0.793592530632445  0.2834941655176736  0.56385519482874  1.0000
  Mn  Mn3       1.0  0.28349099130315386  0.7935783462004125  0.06385328871267147  1.0000
  Mn  Mn4       1.0  0.2064212893356867  0.7165132453671815  0.43615914772024655  1.0000
  H   H1        1.0  0.5560876415260338  0.39080983266324415  0.9992820008562401  1.0000
  H   H2        1.0  0.6091837398150588  0.44391829015275885  0.500721269973198  1.0000
  H   H3        1.0  0.4439172609890464  0.6091853366996035  0.0007185145193914872  1.0000
  H   H4        1.0  0.3908121658648227  0.5560857166647823  0.4992807990342383  1.0000
  H   H5        1.0  0.37650968793161615  0.4307817964791171  0.055182660830880075  1.0000
  H   H6        1.0  0.5692170287486604  0.6234943321263487  0.44481843814580896  1.0000
  H   H7        1.0  0.6234952043459856  0.5692172808667663  0.9448175617481593  1.0000
  H   H8        1.0  0.43078051412903307  0.3765084254957999  0.5551816746379358  1.0000
  H   H9        1.0  0.3538264911077036  0.11915667284307573  0.024738068030508497  1.0000
  H   H10       1.0  0.880845817534869  0.6461720799471705  0.4752601753591604  1.0000
  H   H11       1.0  0.6461702475881737  0.8808431974022926  0.9752596241521514  1.0000
  H   H12       1.0  0.11915335939769282  0.3538302089792964  0.5247386936373458  1.0000
  H   H13       1.0  0.5409439288052624  0.0877315013228995  0.9758356709529179  1.0000
  H   H14       1.0  0.9122680556948383  0.4590534327772103  0.5241636479404334  1.0000
  H   H15       1.0  0.45905280689106587  0.9122699332125707  0.024161133115349325  1.0000
  H   H16       1.0  0.0877311169993362  0.5409496355520746  0.4758367044882731  1.0000
  H   H17       1.0  0.32454451322579564  0.5643889592279905  0.35053680509769675  1.0000
  H   H18       1.0  0.4356126655006279  0.6754541350865542  0.14946365607404025  1.0000
  H   H19       1.0  0.6754505785825274  0.4356160687442454  0.6494621650141851  1.0000
  H   H20       1.0  0.5643848751861782  0.32454862034180826  0.8505379987012346  1.0000
  H   H21       1.0  0.2952237248955711  0.42341597002536696  0.30220149910465466  1.0000
  H   H22       1.0  0.5765865741747263  0.7047746397519036  0.1977974088642326  1.0000
  H   H23       1.0  0.7047730065623766  0.5765862439129209  0.6977967883958129  1.0000
  H   H24       1.0  0.4234117899558498  0.29522553681302105  0.8022036069464347  1.0000
  H   H25       1.0  0.949019852332121  0.5617128780878463  0.3417661547137455  1.0000
  H   H26       1.0  0.4382870401140266  0.050977132285133626  0.15823322141516627  1.0000
  H   H27       1.0  0.0509728061431574  0.4382866015261868  0.6582341858088439  1.0000
  H   H28       1.0  0.5617129576670905  0.9490233588260538  0.841765335555287  1.0000
  H   H29       1.0  0.9931047567654615  0.6943541668299319  0.38926406895767224  1.0000
  H   H30       1.0  0.3056401356121441  0.0068965416330116205  0.11073421999868316  1.0000
  H   H31       1.0  0.0068879052570878  0.3056437490424386  0.6107367741814327  1.0000
  H   H32       1.0  0.6943582286618336  0.9931044187223037  0.8892651952611387  1.0000
  H   H33       1.0  0.0103831082200401  0.8891598514124585  0.381345725211851  1.0000
  H   H34       1.0  0.1108433009031913  0.9896148696235869  0.11865484971728786  1.0000
  H   H35       1.0  0.9896209641610482  0.1108402410551933  0.6186556389483184  1.0000
  H   H36       1.0  0.8891607890966924  0.010379754958506687  0.8813446113708208  1.0000
  H   H37       1.0  0.9669877131272102  0.07464320592998067  0.330027311512161  1.0000
  H   H38       1.0  0.9253626668432134  0.033013509800078035  0.16997223360222335  1.0000
  H   H39       1.0  0.03301717710289861  0.9253566530125071  0.6699728525075698  1.0000
  H   H40       1.0  0.0746414170141918  0.9669834595718358  0.8300270518079312  1.0000
  H   H41       1.0  0.2947702902781586  0.07562247940439454  0.3427021650532254  1.0000
  H   H42       1.0  0.9243789987963069  0.7052340135314311  0.15729687494003022  1.0000
  H   H43       1.0  0.7052346030948937  0.9243765990383751  0.6572972865300526  1.0000
  H   H44       1.0  0.07562018592189901  0.2947659322505558  0.8427010132407841  1.0000
  H   H45       1.0  0.325379607729097  0.8881126380113146  0.3915831072870758  1.0000
  H   H46       1.0  0.11188793076907902  0.6746223651022022  0.10841592247744808  1.0000
  H   H47       1.0  0.6746244622001711  0.11188901929489967  0.6084169832608167  1.0000
  H   H48       1.0  0.8881096219417586  0.32537726777886167  0.8915832680499346  1.0000
  H   H49       1.0  0.8923992446012363  0.08670681257218858  0.009406044316172313  1.0000
  H   H50       1.0  0.9132920026668856  0.10760494237094068  0.4905941656019051  1.0000
  H   H51       1.0  0.10760238285296707  0.9132932054557372  0.9905943528500811  1.0000
  H   H52       1.0  0.0867063584641556  0.8923967984840858  0.5094059620943624  1.0000
  H   H53       1.0  0.038065621292624  0.1194631579269512  0.052723636196880384  1.0000
  H   H54       1.0  0.8805369267502315  0.9619377727000897  0.44727625015452316  1.0000
  H   H55       1.0  0.9619343712980637  0.8805388952805518  0.9472755746507031  1.0000
  H   H56       1.0  0.1194614334287607  0.038064750848441506  0.5527230479866602  1.0000
  H   H57       1.0  0.860728995965161  0.46243746454962315  0.037522813270058505  1.0000
  H   H58       1.0  0.537561666275657  0.13927073452565972  0.4624768047163099  1.0000
  H   H59       1.0  0.1392701856101084  0.5375632617320748  0.9624757873472017  1.0000
  H   H60       1.0  0.4624367004501337  0.8607286609911072  0.5375238841557887  1.0000
  H   H61       1.0  0.730153951102885  0.4162012383359582  0.9897929977435279  1.0000
  H   H62       1.0  0.5837966373704829  0.26984879535250894  0.5102063831787831  1.0000
  H   H63       1.0  0.2698476820894768  0.583797218144099  0.010206360047718015  1.0000
  H   H64       1.0  0.4162017319505296  0.7301498191161003  0.48979397875475417  1.0000
  H   H65       1.0  0.3997893907781531  0.2484588836252116  0.13479654514764405  1.0000
  H   H66       1.0  0.7515356006426472  0.6002120444082524  0.3652035991286552  1.0000
  H   H67       1.0  0.6002114368501594  0.7515351168003761  0.8652043641399555  1.0000
  H   H68       1.0  0.24846357888512224  0.3997894634700502  0.6347949429292894  1.0000
  H   H69       1.0  0.316382085224177  0.23859493184028926  0.19556770215147878  1.0000
  H   H70       1.0  0.7614026320442093  0.6836181159858654  0.3044322796245209  1.0000
  H   H71       1.0  0.6836154524630801  0.7614093878781747  0.8044330645093961  1.0000
  H   H72       1.0  0.23859002452697814  0.3163829290151697  0.6955664017879144  1.0000
  H   H73       1.0  0.32768710513057897  0.36713882128146486  0.16500800310259217  1.0000
  H   H74       1.0  0.6328577473274919  0.6723148529713754  0.3349907271814629  1.0000
  H   H75       1.0  0.6723161600691512  0.6328599480995153  0.8349900523420926  1.0000
  H   H76       1.0  0.3671389910815961  0.327683449693204  0.6650101661028741  1.0000
  H   H77       1.0  0.9208872338310741  0.33104749468868283  0.20234942196009334  1.0000
  H   H78       1.0  0.6689522281180305  0.07911290884177186  0.29764979731776  1.0000
  H   H79       1.0  0.07911113877627682  0.668951123070599  0.7976486269861666  1.0000
  H   H80       1.0  0.3310502181372356  0.9208860929674856  0.7023502292631247  1.0000
  H   H81       1.0  0.8982440683586502  0.24769254463055296  0.15917654522242225  1.0000
  H   H82       1.0  0.7523070761906752  0.10175899224768155  0.3408228676335766  1.0000
  H   H83       1.0  0.1017559314699596  0.75230716488403  0.8408220703073536  1.0000
  H   H84       1.0  0.2476929188518326  0.8982414961212726  0.6591776168262837  1.0000
  H   H85       1.0  0.8574795942041221  0.39063671160847246  0.14432325398438184  1.0000
  H   H86       1.0  0.6093623547493152  0.1425204080747663  0.3556759852509686  1.0000
  H   H87       1.0  0.1425212259253286  0.6093611995423841  0.8556754350172252  1.0000
  H   H88       1.0  0.390636833372767  0.8574771901751677  0.6443240060972  1.0000
  H   H89       1.0  0.229016334045248  0.3313952311376412  0.9688506756956908  1.0000
  H   H90       1.0  0.6686048350063205  0.7709859556189684  0.5311503670146748  1.0000
  H   H91       1.0  0.770985285218977  0.6686079132767091  0.0311494872332929  1.0000
  H   H92       1.0  0.3313919004032257  0.2290139113357129  0.4688496381552694  1.0000
  H   H93       1.0  0.08704836976029638  0.34498255800616556  0.9717470454082072  1.0000
  H   H94       1.0  0.6550189198645101  0.9129536315299376  0.5282534770386106  1.0000
  H   H95       1.0  0.9129532495039285  0.655020586408185  0.028253117520776454  1.0000
  H   H96       1.0  0.344979441814246  0.08704810987353541  0.4717462651597727  1.0000
  H   H97       1.0  0.18238169774208046  0.21404589294507306  0.9799977721683458  1.0000
  H   H98       1.0  0.7859528506374358  0.817618770836859  0.520002758799748  1.0000
  H   H99       1.0  0.8176191110544548  0.7859559250919266  0.020001395032437617  1.0000
  H   H100      1.0  0.2140422564554001  0.18238000326563517  0.47999745078243433  1.0000
  H   H101      1.0  0.0782279991256658  0.3601606854671078  0.39884412933755425  1.0000
  H   H102      1.0  0.639841318918677  0.9217762622602523  0.10115548259440026  1.0000
  H   H103      1.0  0.9217736247812738  0.6398408963024808  0.6011557652121835  1.0000
  H   H104      1.0  0.36016112078978324  0.07822586758077678  0.8988431532555763  1.0000
  H   H105      1.0  0.045340042006500915  0.23600181166071374  0.403733590864931  1.0000
  H   H106      1.0  0.7639996186675191  0.9546618865277241  0.0962651127943914  1.0000
  H   H107      1.0  0.9546607727891256  0.7639968777960674  0.5962673525646449  1.0000
  H   H108      1.0  0.23600201207301547  0.04533813479088171  0.9037329713845847  1.0000
  H   H109      1.0  0.1826731936976742  0.23500232702507876  0.3970015309294224  1.0000
  H   H110      1.0  0.7649964604795585  0.8173292678547597  0.10299814692327659  1.0000
  H   H111      1.0  0.8173300687634465  0.7649964396136685  0.6029984520046623  1.0000
  H   H112      1.0  0.2350027159052743  0.18267302052326073  0.8970011075711068  1.0000
  H   H113      1.0  0.072181836843022  0.5740765365176231  0.22933996537541645  1.0000
  H   H114      1.0  0.4259257701780896  0.9278204497737474  0.27065931541874017  1.0000
  H   H115      1.0  0.9278173436368036  0.42592418866718174  0.7706594062376052  1.0000
  H   H116      1.0  0.5740742203650983  0.07218238503036646  0.7293398368695205  1.0000
  H   H117      1.0  0.17554311600924416  0.5078432487688077  0.18235806213727557  1.0000
  H   H118      1.0  0.4921547528696451  0.824457597441338  0.31764132982618776  1.0000
  H   H119      1.0  0.8244560756601018  0.4921527857394636  0.8176424318274156  1.0000
  H   H120      1.0  0.5078452397210427  0.17554445576617195  0.6823578810213959  1.0000
  H   H121      1.0  0.0381334653012573  0.5201003404903872  0.17716680853327196  1.0000
  H   H122      1.0  0.4799006436441147  0.9618659625251171  0.3228335636571201  1.0000
  H   H123      1.0  0.9618640842666438  0.4799000728903879  0.8228330944305494  1.0000
  H   H124      1.0  0.52010016610447  0.038135072818377705  0.6771664330987404  1.0000
  H   H125      1.0  0.1466180155040178  0.11744977763709841  0.17732543038374615  1.0000
  H   H126      1.0  0.8825484512655207  0.8533802222963727  0.32267540398584765  1.0000
  H   H127      1.0  0.8533787225007429  0.882549308269425  0.8226742478476365  1.0000
  H   H128      1.0  0.11744909925442928  0.1466194083909045  0.677325328533051  1.0000
  H   H129      1.0  0.199703473727098  0.03560237005316221  0.23412793233791965  1.0000
  H   H130      1.0  0.9643985717135949  0.8002954553790573  0.26586999217714435  1.0000
  H   H131      1.0  0.8002916303661891  0.9643979683394334  0.7658713891298701  1.0000
  H   H132      1.0  0.0356014327577228  0.19970269149076367  0.7341283549733856  1.0000
  H   H133      1.0  0.0585017599778084  0.07366245911836701  0.22934134672907183  1.0000
  H   H134      1.0  0.9263379003436684  0.9414997509087828  0.27065675484849544  1.0000
  H   H135      1.0  0.9414957927330293  0.926337173762697  0.7706578437983111  1.0000
  H   H136      1.0  0.073662092938136  0.058503086637564594  0.7293404699503654  1.0000
  C   C1        1.0  0.5094421443516026  0.3318500280858104  0.007068234237628699  1.0000
  C   C2        1.0  0.6681459280926629  0.49056197210008196  0.49293507531397995  1.0000
  C   C3        1.0  0.49055784973884903  0.6681512429766413  0.9929314206671475  1.0000
  C   C4        1.0  0.33184997484860906  0.509442031975226  0.5070689211828634  1.0000
  C   C5        1.0  0.40820355195450025  0.35462888648869034  0.03708251564677309  1.0000
  C   C6        1.0  0.6453681087882899  0.5918005187483644  0.46292067905348205  1.0000
  C   C7        1.0  0.5917988952528219  0.6453693326270625  0.9629183404891959  1.0000
  C   C8        1.0  0.35462861624038317  0.4082024723989549  0.5370806338707081  1.0000
  C   C9        1.0  0.34885821258347965  0.27861094305371387  0.04374556028572838  1.0000
  C   C10       1.0  0.7213878217913388  0.6511451810353822  0.45625447443264017  1.0000
  C   C11       1.0  0.6511434202045548  0.7213882966682946  0.9562525824525633  1.0000
  C   C12       1.0  0.27861135349805005  0.34885710624574523  0.5437455510575047  1.0000
  C   C13       1.0  0.39680178426237944  0.18100710889333976  0.020899314731948903  1.0000
  C   C14       1.0  0.8189907292036692  0.603200190191217  0.4791013288416222  1.0000
  C   C15       1.0  0.6031941378233157  0.8189937797644904  0.9790972060445565  1.0000
  C   C16       1.0  0.1810068120308586  0.3968025657855919  0.5208999404357681  1.0000
  C   C17       1.0  0.49963873089155436  0.1637758422572944  0.9928733993250771  1.0000
  C   C18       1.0  0.8362205298793767  0.500365015555943  0.5071283390262095  1.0000
  C   C19       1.0  0.5003604498750605  0.836226450508299  0.007122771186267624  1.0000
  C   C20       1.0  0.16377537525279  0.4996389907131515  0.49287411547911103  1.0000
  C   C21       1.0  0.2427321491432366  0.560532112875329  0.3472786181610842  1.0000
  C   C22       1.0  0.4394657459015008  0.7572659788421277  0.15272368136547232  1.0000
  C   C23       1.0  0.757261319108622  0.4394679087772176  0.6527247041384284  1.0000
  C   C24       1.0  0.560532611538875  0.24273654196417035  0.847277544265118  1.0000
  C   C25       1.0  0.2256626503639509  0.4830645844392196  0.3205202729454155  1.0000
  C   C26       1.0  0.5169361888086144  0.7743367637440385  0.17947980355140908  1.0000
  C   C27       1.0  0.7743340844978661  0.5169352819670153  0.6794801177224127  1.0000
  C   C28       1.0  0.4830638021389007  0.22566528781813133  0.820520563789813  1.0000
  C   C29       1.0  0.1192484374327236  0.4797315111424894  0.31838746859749983  1.0000
  C   C30       1.0  0.520271199684089  0.8807507310076376  0.18161052028683858  1.0000
  C   C31       1.0  0.8807491054449699  0.520271246479659  0.681612644186245  1.0000
  C   C32       1.0  0.47973124152414925  0.11925061668833346  0.818388559620338  1.0000
  C   C33       1.0  0.03369589693444651  0.5592963620382534  0.3422909245792737  1.0000
  C   C34       1.0  0.4407073075415582  0.9663010158952619  0.15770826440644467  1.0000
  C   C35       1.0  0.9662983902618761  0.44070342718601535  0.6577104265840316  1.0000
  C   C36       1.0  0.5592951388571095  0.033698769704386726  0.8422901616236015  1.0000
  C   C37       1.0  0.057642752859351304  0.6339854043818463  0.36848468025326736  1.0000
  C   C38       1.0  0.3660120143837986  0.942357843904233  0.13151429967660277  1.0000
  C   C39       1.0  0.9423531719391037  0.36601235240508606  0.6315159297393149  1.0000
  C   C40       1.0  0.6339879833973184  0.05764264720695427  0.8684842572938575  1.0000
  C   C41       1.0  0.0713028242797265  0.9333578784964871  0.37114495622184035  1.0000
  C   C42       1.0  0.0666461880436628  0.9286999812727715  0.12885519280118268  1.0000
  C   C43       1.0  0.9287020663547096  0.06664119720404937  0.6288564228508448  1.0000
  C   C44       1.0  0.9333578988132842  0.07129542380903335  0.8711449807233717  1.0000
  C   C45       1.0  0.047679606144932093  0.0365703245029607  0.3429864103602965  1.0000
  C   C46       1.0  0.9634288681638452  0.9523242782104692  0.15701430700306668  1.0000
  C   C47       1.0  0.9523244719743218  0.9634282064168289  0.6570139144248726  1.0000
  C   C48       1.0  0.0365735801389206  0.047673942002184305  0.8429857781371407  1.0000
  C   C49       1.0  0.1281608568890746  0.09074897320624592  0.331949712923766  1.0000
  C   C50       1.0  0.9092548702214598  0.8718396187826445  0.1680497634229851  1.0000
  C   C51       1.0  0.8718424009293386  0.9092513560772633  0.6680505383895647  1.0000
  C   C52       1.0  0.09074594526527589  0.12815985501297433  0.8319491939578679  1.0000
  C   C53       1.0  0.2292692233481262  0.037107485265757106  0.35051384821021964  1.0000
  C   C54       1.0  0.9628924700443874  0.7707321454153873  0.14948551790599396  1.0000
  C   C55       1.0  0.7707332184078338  0.9628938629786604  0.6494848461990724  1.0000
  C   C56       1.0  0.0371067171256456  0.22926623552805125  0.8505136438871046  1.0000
  C   C57       1.0  0.2466731843946732  0.9337592987369023  0.3779522900401772  1.0000
  C   C58       1.0  0.06624267201814861  0.7533286984476601  0.12204621541292228  1.0000
  C   C59       1.0  0.7533300782098422  0.06624025169223564  0.6220460923430691  1.0000
  C   C60       1.0  0.9337565151518776  0.24666968249577068  0.8779529463801692  1.0000
  C   C61       1.0  0.8892510825441136  0.168712574400928  0.01640952463458939  1.0000
  C   C62       1.0  0.8312856528526353  0.11075228295272403  0.4835903781214198  1.0000
  C   C63       1.0  0.1107497349901223  0.8312861177980863  0.9835894913055793  1.0000
  C   C64       1.0  0.1687127079916095  0.8892478903215134  0.5164129506765247  1.0000
  C   C65       1.0  0.968040972687234  0.18719412431386942  0.04163588194890619  1.0000
  C   C66       1.0  0.8128043105379561  0.031962306614659  0.4583644166672371  1.0000
  C   C67       1.0  0.0319598387045161  0.8128069126749652  0.9583629583133086  1.0000
  C   C68       1.0  0.18719405304490516  0.968037869401819  0.5416369846413075  1.0000
  C   C69       1.0  0.9600070837087884  0.2938377779579754  0.05018148588361978  1.0000
  C   C70       1.0  0.7061594794207835  0.03999456979471466  0.4498186006949893  1.0000
  C   C71       1.0  0.0399945552217247  0.7061591169742131  0.9498168325326259  1.0000
  C   C72       1.0  0.29383970146336946  0.960005372148146  0.5501819859709867  1.0000
  C   C73       1.0  0.8710632303043226  0.37764231603105  0.032518124675760894  1.0000
  C   C74       1.0  0.6223566354366313  0.1289386748839121  0.4674825305286701  1.0000
  C   C75       1.0  0.1289375821828713  0.6223587220546776  0.9674799445906995  1.0000
  C   C76       1.0  0.3776417265030574  0.8710614994872187  0.532520027273513  1.0000
  C   C77       1.0  0.7970836387914702  0.35227059103723957  0.006413167424383913  1.0000
  C   C78       1.0  0.6477286025545865  0.20291882468903572  0.4935874118846683  1.0000
  C   C79       1.0  0.20291718133798042  0.647727320113617  0.9935855215772234  1.0000
  C   C80       1.0  0.3522713968438397  0.7970785334543679  0.5064160052976234  1.0000
  C   C81       1.0  0.2387956064237713  0.2975811884127921  0.0738011414862996  1.0000
  C   C82       1.0  0.7024188718679056  0.76120575746846  0.42619813570216536  1.0000
  C   C83       1.0  0.7612052070154718  0.702419066979438  0.9261977573352379  1.0000
  C   C84       1.0  0.2975819415713374  0.23879449792376317  0.5738007631193722  1.0000
  C   C85       1.0  0.22597436114672584  0.30069070835710227  0.12846572721408475  1.0000
  C   C86       1.0  0.699309878776276  0.774027158039495  0.3715338789795836  1.0000
  C   C87       1.0  0.7740256375864406  0.6993090000605875  0.8715336593114525  1.0000
  C   C88       1.0  0.3006893017035495  0.22597356714531003  0.6284654926334381  1.0000
  C   C89       1.0  0.322635405735717  0.28753112631450517  0.15741090296585006  1.0000
  C   C90       1.0  0.7124645184807221  0.6773679478239459  0.3425889723211525  1.0000
  C   C91       1.0  0.6773662254091519  0.7124681117621565  0.8425883962660803  1.0000
  C   C92       1.0  0.2875305850648431  0.3226323900202105  0.6574107346445143  1.0000
  C   C93       1.0  0.1217363207279405  0.31100681022658694  0.15659211254990166  1.0000
  C   C94       1.0  0.6889926714071066  0.8782654866201726  0.3434071324639945  1.0000
  C   C95       1.0  0.8782645003535592  0.688990318230772  0.8434074060067825  1.0000
  C   C96       1.0  0.3110089597377623  0.12173375145648893  0.656592166767936  1.0000
  C   C97       1.0  0.1111251595890081  0.3055565082727015  0.21499353254632328  1.0000
  C   C98       1.0  0.6944455781807903  0.8888743108579438  0.28500607608385287  1.0000
  C   C99       1.0  0.8888732076845117  0.6944428877925122  0.7850067708278983  1.0000
  C   C100      1.0  0.3055568671224336  0.11112547364481172  0.7149931209419618  1.0000
  C   C101      1.0  0.03195213319988  0.3160155976773993  0.13084523161353448  1.0000
  C   C102      1.0  0.6839829206284804  0.968049880406106  0.36915403951950043  1.0000
  C   C103      1.0  0.9680486889770706  0.6839815318768531  0.8691535159473883  1.0000
  C   C104      1.0  0.31601871256388137  0.031948576073951115  0.6308453182717455  1.0000
  C   C105      1.0  0.9216007006828661  0.3218841829833181  0.16099584524319246  1.0000
  C   C106      1.0  0.67811614121986  0.07840044487973341  0.339003256725796  1.0000
  C   C107      1.0  0.0783992991457509  0.6781155265312575  0.8390027702865834  1.0000
  C   C108      1.0  0.32188549142478  0.9215980110518772  0.6609964865633344  1.0000
  C   C109      1.0  0.047524604379006505  0.30989884213904173  0.07640761706522167  1.0000
  C   C110      1.0  0.6901007859773144  0.9524773542560396  0.42359196728080656  1.0000
  C   C111      1.0  0.9524770273135843  0.6901003964860667  0.9235912966688316  1.0000
  C   C112      1.0  0.30990002581876297  0.04752289949085052  0.5764080880343696  1.0000
  C   C113      1.0  0.14958085990355843  0.30321363569381543  0.047278595975370784  1.0000
  C   C114      1.0  0.6967881582379576  0.8504196048517016  0.45272097317209853  1.0000
  C   C115      1.0  0.850419949440699  0.6967881828916305  0.9527201857275285  1.0000
  C   C116      1.0  0.3032118399474939  0.14958010301753438  0.5472787988513159  1.0000
  C   C117      1.0  0.16271900678339077  0.29891454225356284  0.9888149259840585  1.0000
  C   C118      1.0  0.7010848642269067  0.8372824943672228  0.511184287464445  1.0000
  C   C119      1.0  0.8372826161714997  0.7010878222095301  0.011184139010602213  1.0000
  C   C120      1.0  0.2989118711826322  0.16271737258745841  0.48881571770549914  1.0000
  C   C121      1.0  0.1050797041738747  0.38930489899606613  0.2935158944649387  1.0000
  C   C122      1.0  0.6106967052857186  0.8949210974163364  0.2064828504302056  1.0000
  C   C123      1.0  0.8949194726152854  0.6106966061400031  0.706484575082406  1.0000
  C   C124      1.0  0.3893049197166718  0.10508048545014506  0.7935162731237708  1.0000
  C   C125      1.0  0.1062341286121935  0.2904040056661898  0.3250237266159814  1.0000
  C   C126      1.0  0.7095975010872594  0.89376874611105  0.17497644399327325  1.0000
  C   C127      1.0  0.8937666850879823  0.7095946826936982  0.674977987809356  1.0000
  C   C128      1.0  0.2904041187246875  0.10623439885174699  0.8250233334378334  1.0000
  C   C129      1.0  0.1026444045913451  0.2805434756768079  0.3838788068402295  1.0000
  C   C130      1.0  0.7194592209052147  0.8973610401037678  0.11611992712285256  1.0000
  C   C131      1.0  0.8973572238149075  0.7194557596576203  0.6161224198811012  1.0000
  C   C132      1.0  0.28054239645491913  0.10264366969758505  0.8838785766959771  1.0000
  C   C133      1.0  0.10448104668841299  0.3984775846841942  0.23881150754080235  1.0000
  C   C134      1.0  0.6015226587728009  0.8955167064091613  0.2611883362406999  1.0000
  C   C135      1.0  0.8955140587612505  0.6015211877729527  0.7611898585350257  1.0000
  C   C136      1.0  0.3984789697768463  0.10448331271566506  0.738811289929792  1.0000
  C   C137      1.0  0.09744232968136403  0.5056537028564208  0.20551572887826805  1.0000
  C   C138      1.0  0.49434711072127874  0.902557782376732  0.29448462865168057  1.0000
  C   C139      1.0  0.9025560390919266  0.4943449110637347  0.7944850185531463  1.0000
  C   C140      1.0  0.5056528839169019  0.09744348923416628  0.7055146407552184  1.0000
  C   C141      1.0  0.1128351996277814  0.19879957611344423  0.30027719610065157  1.0000
  C   C142      1.0  0.8012035859921127  0.8871652830231154  0.1997226762939164  1.0000
  C   C143      1.0  0.8871656105251307  0.8012006759880989  0.6997240157081633  1.0000
  C   C144      1.0  0.19879967661240264  0.11283426740602213  0.8002757060893299  1.0000
  C   C145      1.0  0.11666409291456148  0.20468635563388196  0.24543270728337055  1.0000
  C   C146      1.0  0.7953172771406899  0.8833364671957684  0.2545675086841753  1.0000
  C   C147      1.0  0.8833334529626738  0.7953148376981575  0.7545682936147742  1.0000
  C   C148      1.0  0.204686797979015  0.11666362801412336  0.7454319279865939  1.0000
  C   C149      1.0  0.13115829698066514  0.1029725020498518  0.22007913695235704  1.0000
  C   C150      1.0  0.8970325940131403  0.868841493798513  0.27992067916881774  1.0000
  C   C151      1.0  0.8688376144373748  0.8970299432198203  0.7799218926800789  1.0000
  C   C152      1.0  0.1029714801545154  0.13115938410487626  0.7200779279468745  1.0000
  N   N1        1.0  0.5552825896037561  0.2381823980192621  0.9852273532290422  1.0000
  N   N2        1.0  0.7618162638651925  0.44471904309889976  0.5147747512305754  1.0000
  N   N3        1.0  0.44471577576565835  0.7618185634329464  0.014771291035018008  1.0000
  N   N4        1.0  0.23818045787714937  0.5552839447577329  0.4852288746808993  1.0000
  N   N5        1.0  0.16027690067290476  0.6342956325228997  0.37197103275934035  1.0000
  N   N6        1.0  0.3657023060457263  0.8397199594507826  0.12803014908977414  1.0000
  N   N7        1.0  0.8397173906184037  0.36570259350816064  0.6280304355226035  1.0000
  N   N8        1.0  0.6342960606800716  0.1602794360659844  0.8719705397823245  1.0000
  N   N9        1.0  0.168981483737042  0.8821192955316943  0.3883370608023993  1.0000
  N   N10       1.0  0.1178789892939207  0.8310193851569495  0.11166371632823766  1.0000
  N   N11       1.0  0.8310225912392682  0.1178800158878063  0.6116639764192087  1.0000
  N   N12       1.0  0.8821218343827938  0.16897696225225195  0.8883354752898851  1.0000
  N   N13       1.0  0.8052020106340266  0.24977181047766808  0.9981706835352993  1.0000
  N   N14       1.0  0.7502280844996676  0.19480123460357401  0.501829357400247  1.0000
  N   N15       1.0  0.19479881154291692  0.7502253190765846  0.0018280640256235928  1.0000
  N   N16       1.0  0.24977354212002467  0.8051972152951165  0.49817462636556076  1.0000
  Cl  Cl1       1.0  0.6735951455648036  0.4008677276709633  0.8969537697407046  1.0000
  Cl  Cl2       1.0  0.5991286720054845  0.32640715283696414  0.6030472840057539  1.0000
  Cl  Cl3       1.0  0.32641057165635345  0.5991279886664246  0.10304625793092728  1.0000
  Cl  Cl4       1.0  0.4008729753759396  0.6735850486764577  0.39695408425155415  1.0000
  Cl  Cl5       1.0  0.7634723198211688  0.009767125666265074  0.975219359503029  1.0000
  Cl  Cl6       1.0  0.9902381287373955  0.23653022538947274  0.5247842498992623  1.0000
  Cl  Cl7       1.0  0.23652850030828185  0.9902307854845913  0.024779329498578317  1.0000
  Cl  Cl8       1.0  0.009765928333329999  0.7634729863347971  0.47522189149608346  1.0000
