data_image0
_chemical_formula_structural       Fe4H80C104S8N24
_chemical_formula_sum              "Fe4 H80 C104 S8 N24"
_cell_length_a       14.457355030079436
_cell_length_b       15.60758561700023
_cell_length_c       15.8717961940868
_cell_angle_alpha    90.00000479412647
_cell_angle_beta     90.00037916269896
_cell_angle_gamma    90.00001916014295

_space_group_name_H-M_alt    "P 1"
_space_group_IT_number       1

loop_
  _space_group_symop_operation_xyz
  'x, y, z'

loop_
  _atom_site_type_symbol
  _atom_site_label
  _atom_site_symmetry_multiplicity
  _atom_site_fract_x
  _atom_site_fract_y
  _atom_site_fract_z
  _atom_site_occupancy
  Fe  Fe1       1.0  0.2500000869527669  0.2488021656610613  0.7499996839029421  1.0000
  Fe  Fe2       1.0  0.7500005191037004  0.25119785179847304  0.2499998118396363  1.0000
  Fe  Fe3       1.0  0.7499999176797661  0.7511976718538307  0.2499998324088963  1.0000
  Fe  Fe4       1.0  0.250000177220457  0.7488013450024626  0.7500003345226744  1.0000
  H   H1        1.0  0.44452959222046223  0.28264535632875715  0.7887356483486272  1.0000
  H   H2        1.0  0.05547059390684691  0.28264529278295214  0.7112643522904776  1.0000
  H   H3        1.0  0.9445304225789928  0.2173534399525394  0.2112631305210115  1.0000
  H   H4        1.0  0.5554699117212962  0.2173533829984038  0.2887371204196825  1.0000
  H   H5        1.0  0.5554690290236693  0.7173525590435474  0.21126134776531558  1.0000
  H   H6        1.0  0.9445307941156785  0.7173526225900135  0.2887383142675191  1.0000
  H   H7        1.0  0.05547096543713791  0.7826470382767001  0.7887376458918495  1.0000
  H   H8        1.0  0.44452870953244183  0.7826470952303527  0.7112623958880134  1.0000
  H   H9        1.0  0.5328794454408482  0.37756204059238746  0.8829899011422384  1.0000
  H   H10       1.0  0.9671211187288834  0.3775627372377314  0.6170106027782651  1.0000
  H   H11       1.0  0.03287921338653631  0.1224353467638224  0.117009545169374  1.0000
  H   H12       1.0  0.46712143456284155  0.12243606604067032  0.382990832540365  1.0000
  H   H13       1.0  0.46712125087575634  0.6224333119239278  0.117008355074681  1.0000
  H   H14       1.0  0.03287888591221842  0.6224338967068166  0.3829914337270992  1.0000
  H   H15       1.0  0.967121482937742  0.8775644907512046  0.8829906011929651  1.0000
  H   H16       1.0  0.5328785700743809  0.877564412188363  0.6170099438683252  1.0000
  H   H17       1.0  0.27504483624544923  0.5042952500487418  0.9436728717391745  1.0000
  H   H18       1.0  0.22495612160072656  0.5042952258129604  0.5563271471405713  1.0000
  H   H19       1.0  0.7750432587469832  0.9957044152783538  0.0563287063378155  1.0000
  H   H20       1.0  0.7249566648969721  0.995704424000806  0.4436716086477261  1.0000
  H   H21       1.0  0.724957243464253  0.4957026653243092  0.0563291647724995  1.0000
  H   H22       1.0  0.7750431913374385  0.49570268955949365  0.4436711090722767  1.0000
  H   H23       1.0  0.22495605419632622  0.004296703664607499  0.9436708099719908  1.0000
  H   H24       1.0  0.2750433397403712  0.004296694942318901  0.5563291677609924  1.0000
  H   H25       1.0  0.19665253972502947  0.40138437760091256  0.8485290202864559  1.0000
  H   H26       1.0  0.30334768927446737  0.40138438574026486  0.651470990123137  1.0000
  H   H27       1.0  0.696652201369652  0.09861498262156233  0.1514707837456584  1.0000
  H   H28       1.0  0.8033480900562823  0.09861436681398321  0.3485288273761569  1.0000
  H   H29       1.0  0.8033488482841236  0.5986154599141645  0.15146986598114148  1.0000
  H   H30       1.0  0.6966509319859072  0.5986148110604006  0.3485304163297442  1.0000
  H   H31       1.0  0.3033478032631153  0.9013861363215057  0.8485287325662371  1.0000
  H   H32       1.0  0.1966519145763712  0.9013861114149934  0.6514706889357101  1.0000
  H   H33       1.0  0.4156259412549589  0.5601168062295869  0.0062967201729904  1.0000
  H   H34       1.0  0.0843748647222284  0.5601167756677798  0.4937030635031121  1.0000
  H   H35       1.0  0.9156242329353789  0.9398796990679446  0.9937038156489139  1.0000
  H   H36       1.0  0.5843758425764064  0.9398796270346568  0.5062967345400082  1.0000
  H   H37       1.0  0.5843789052027121  0.4398772648592484  0.9937027961532151  1.0000
  H   H38       1.0  0.9156223731537382  0.4398772954199046  0.5062970828485618  1.0000
  H   H39       1.0  0.08437508001021853  0.0601214198750455  0.0062963307093042  1.0000
  H   H40       1.0  0.41562416205852776  0.0601208511943483  0.4937034118202703  1.0000
  H   H41       1.0  0.139486213893754  0.09393835137312581  0.7901170468942026  1.0000
  H   H42       1.0  0.3605139040986103  0.0939383821881705  0.7098829382170706  1.0000
  H   H43       1.0  0.6394857189763742  0.4060629132858935  0.2098811522518673  1.0000
  H   H44       1.0  0.8605146834551008  0.4060623102140255  0.2901178541200125  1.0000
  H   H45       1.0  0.860515174113573  0.9060640489982746  0.20988120932508988  1.0000
  H   H46       1.0  0.6394847171645142  0.9060633774688756  0.2901190982843289  1.0000
  H   H47       1.0  0.3605142856559312  0.5939356428008155  0.7901183640599214  1.0000
  H   H48       1.0  0.13948532117949242  0.593936245872712  0.709882292240188  1.0000
  H   H49       1.0  0.041545623830778304  0.9923219998041972  0.7095795900393114  1.0000
  H   H50       1.0  0.45845481853396564  0.9923220678062495  0.7904204689958335  1.0000
  H   H51       1.0  0.5415462615444327  0.5076801560598555  0.29041994968584117  1.0000
  H   H52       1.0  0.9584534858923066  0.5076795764690801  0.2095803251423973  1.0000
  H   H53       1.0  0.9584536891131138  0.007682322709207802  0.29041992627063  1.0000
  H   H54       1.0  0.5415465694828611  0.0076822547075324  0.2095803074171911  1.0000
  H   H55       1.0  0.4584537430900399  0.4923177593127904  0.709580196674331  1.0000
  H   H56       1.0  0.041545827054996216  0.4923183389034877  0.7904204512641044  1.0000
  H   H57       1.0  0.12864494462368006  0.1231190190689659  0.48232702488659374  1.0000
  H   H58       1.0  0.3713543201935182  0.12311903688713242  0.017673352875206695  1.0000
  H   H59       1.0  0.6286473657069251  0.37688224223276023  0.5176717389294367  1.0000
  H   H60       1.0  0.8713531982125534  0.3768816588722856  0.9823275048382456  1.0000
  H   H61       1.0  0.871354368315288  0.8768833813021147  0.5176712313264459  1.0000
  H   H62       1.0  0.6286456844463402  0.8768833634841898  0.9823280535819805  1.0000
  H   H63       1.0  0.3713547139938599  0.6231169545683602  0.48232777738863314  1.0000
  H   H64       1.0  0.12864611473258242  0.623116897214345  0.0176726415198658  1.0000
  H   H65       1.0  0.22409773902838034  0.2169721188383349  0.57172740608447  1.0000
  H   H66       1.0  0.2759024233868246  0.2169721420294906  0.9282725891506872  1.0000
  H   H67       1.0  0.7240980937170393  0.283028531312759  0.428271933432363  1.0000
  H   H68       1.0  0.7759015726043117  0.2830285241664683  0.07172769286193412  1.0000
  H   H69       1.0  0.7759029572917842  0.7830302815329875  0.42827148018115224  1.0000
  H   H70       1.0  0.7240961978718446  0.78303025834159  0.0717281872539104  1.0000
  H   H71       1.0  0.27590398598133703  0.7169700247742413  0.5717269528372738  1.0000
  H   H72       1.0  0.22409635696191543  0.7169700319199495  0.9282724534920064  1.0000
  H   H73       1.0  0.9845551007536957  0.9387545979957537  0.5751527820904769  1.0000
  H   H74       1.0  0.5154449743495775  0.9387545402262703  0.9248471379574568  1.0000
  H   H75       1.0  0.48455708179637474  0.5612483357920512  0.4248475394287397  1.0000
  H   H76       1.0  0.0154430328998956  0.5612482482675392  0.0751522443383763  1.0000
  H   H77       1.0  0.015442137124239303  0.061250365231444406  0.4248473642616446  1.0000
  H   H78       1.0  0.48455710535224483  0.061250423001645515  0.0751523783608548  1.0000
  H   H79       1.0  0.5154429228382115  0.43875022029468624  0.5751526069314606  1.0000
  H   H80       1.0  0.9845569717324028  0.4387503078191699  0.9248472719734123  1.0000
  C   C1        1.0  0.40968449274434704  0.3322475150974001  0.8248656715391434  1.0000
  C   C2        1.0  0.09031571129242622  0.3322474592696807  0.6751343331814965  1.0000
  C   C3        1.0  0.909684351169709  0.16775062967742826  0.17513415726215698  1.0000
  C   C4        1.0  0.5903159652210022  0.16775122730405204  0.32486608959697355  1.0000
  C   C5        1.0  0.5903148201914094  0.6677497595609411  0.1751319546252716  1.0000
  C   C6        1.0  0.9096849850382469  0.6677498153890652  0.32486770332597814  1.0000
  C   C7        1.0  0.0903163451545694  0.8322492078375918  0.824865989100182  1.0000
  C   C8        1.0  0.4096833477244816  0.8322492509248464  0.6751340567612233  1.0000
  C   C9        1.0  0.4584114499057322  0.38615016048844814  0.877803118391128  1.0000
  C   C10       1.0  0.041588773595655916  0.3861507257787978  0.6221975208133443  1.0000
  C   C11       1.0  0.9584109044939454  0.1138460772358414  0.12219700429710657  1.0000
  C   C12       1.0  0.5415887007468143  0.11384730498907203  0.3778038681728191  1.0000
  C   C13       1.0  0.5415878630364264  0.6138445513136193  0.12219639791841531  1.0000
  C   C14       1.0  0.958411922732502  0.613845267451744  0.3778038856456618  1.0000
  C   C15       1.0  0.0415884084514175  0.8861537602789654  0.8778031420610616  1.0000
  C   C16       1.0  0.4584106122011917  0.8861544546680307  0.622196908233839  1.0000
  C   C17       1.0  0.4117620187019426  0.449801896417256  0.9243862397782152  1.0000
  C   C18       1.0  0.0882382277816802  0.4498024721923101  0.5756144046638666  1.0000
  C   C19       1.0  0.9117618037594328  0.05019624900102571  0.0756136015531013  1.0000
  C   C20       1.0  0.5882384701867169  0.0501962137380048  0.42438663563299883  1.0000
  C   C21       1.0  0.5882386776215187  0.5501934560991444  0.07561390658393921  1.0000
  C   C22       1.0  0.9117617768547391  0.5501935210380966  0.4243863717446388  1.0000
  C   C23       1.0  0.08823889256267141  0.9498042292280574  0.9243859147608546  1.0000
  C   C24       1.0  0.4117615344503918  0.9498036237769373  0.5756141407756701  1.0000
  C   C25       1.0  0.3157665410607252  0.4560033526369693  0.9107120098407151  1.0000
  C   C26       1.0  0.18423439935134675  0.45600331859337473  0.5892886351137249  1.0000
  C   C27       1.0  0.8157650397906766  0.043996044477481205  0.0892885126034457  1.0000
  C   C28       1.0  0.6842345402273723  0.043996037783031704  0.4107117240703814  1.0000
  C   C29       1.0  0.6842341552633189  0.5439952034498744  0.0892881365215743  1.0000
  C   C30       1.0  0.8157662969750988  0.5439958782075891  0.41071214129700445  1.0000
  C   C31       1.0  0.18423427315264015  0.9560050744654733  0.9107110037063606  1.0000
  C   C32       1.0  0.31576546440997083  0.9560050811600862  0.5892890523383371  1.0000
  C   C33       1.0  0.2711419920026544  0.3991957101838963  0.8573555930461864  1.0000
  C   C34       1.0  0.22885823620659101  0.399195694501266  0.6426444171833126  1.0000
  C   C35       1.0  0.7711395152862649  0.10080431382336738  0.14264592034660953  1.0000
  C   C36       1.0  0.7288607769350719  0.10080559783868638  0.3573549510522582  1.0000
  C   C37       1.0  0.7288600876982374  0.6008041273313083  0.1426439232719119  1.0000
  C   C38       1.0  0.7711396933597573  0.6008035022992432  0.3573557291706564  1.0000
  C   C39       1.0  0.22886048934855552  0.8991955236915461  0.8573542260136408  1.0000
  C   C40       1.0  0.2711392277021574  0.8991948803903401  0.642645825356432  1.0000
  C   C41       1.0  0.45671030329236123  0.5056580787917254  0.9846397974845829  1.0000
  C   C42       1.0  0.043290655045865406  0.505657994804558  0.5153602215073009  1.0000
  C   C43       1.0  0.956709119522664  0.9943390799446022  0.015359095986937603  1.0000
  C   C44       1.0  0.5432914953155931  0.9943396766014274  0.4846405888399588  1.0000
  C   C45       1.0  0.5432910847161025  0.494337914438809  0.0153590887828585  1.0000
  C   C46       1.0  0.9567107329718639  0.4943386391401746  0.4846411849538157  1.0000
  C   C47       1.0  0.0432908851099825  0.005661398284374301  0.9846404203249293  1.0000
  C   C48       1.0  0.4567085093195758  0.005662083055753399  0.5153595575203767  1.0000
  C   C49       1.0  0.1353628058099616  0.09765000454687113  0.7218279772960869  1.0000
  C   C50       1.0  0.3646373135225431  0.09765004244952281  0.778172008120599  1.0000
  C   C51       1.0  0.6353621137102581  0.402350618120984  0.2781714570765601  1.0000
  C   C52       1.0  0.864637595696202  0.40235129194380187  0.2218288090846485  1.0000
  C   C53       1.0  0.8646371988228054  0.9023511143961968  0.2781715390158013  1.0000
  C   C54       1.0  0.6353619994230615  0.9023510764934601  0.221828138237619  1.0000
  C   C55       1.0  0.36463650754313903  0.5976479379655119  0.7218280592310579  1.0000
  C   C56       1.0  0.1353631006302436  0.5976479048571619  0.778171967326081  1.0000
  C   C57       1.0  0.0806493022835966  0.041472823520607015  0.6761253582210642  1.0000
  C   C58       1.0  0.4193514884526196  0.04147288225796331  0.8238739925267353  1.0000
  C   C59       1.0  0.5806496540021158  0.458529063629662  0.3238743762081455  1.0000
  C   C60       1.0  0.919349383996398  0.45852910979515127  0.1761252645252043  1.0000
  C   C61       1.0  0.9193493189707241  0.9585308582786  0.32387415808676684  1.0000
  C   C62       1.0  0.5806498995618058  0.9585307995416983  0.17612615383784908  1.0000
  C   C63       1.0  0.419349658940618  0.5414688517428489  0.6761251401015328  1.0000
  C   C64       1.0  0.080649928948624  0.5414688055773877  0.8238748818328787  1.0000
  C   C65       1.0  0.07362141859240981  0.04916523203211651  0.5879185595545877  1.0000
  C   C66       1.0  0.4263800666085303  0.049165941165561805  0.9120801617798834  1.0000
  C   C67       1.0  0.5736224079998563  0.450836012227505  0.41208176253746137  1.0000
  C   C68       1.0  0.92637731891044  0.45083605306430036  0.0879178775649478  1.0000
  C   C69       1.0  0.9263778943513686  0.9508384497671969  0.4120809567553252  1.0000
  C   C70       1.0  0.5736220130931713  0.9508383813482695  0.0879193545383998  1.0000
  C   C71       1.0  0.426377596632328  0.5491619031451123  0.5879177537743061  1.0000
  C   C72       1.0  0.07362268572403959  0.5491618623083456  0.912082268795224  1.0000
  C   C73       1.0  0.12831594514513972  0.1134166884564181  0.5502115897302673  1.0000
  C   C74       1.0  0.3716848715671688  0.11341610242991611  0.9497877669374404  1.0000
  C   C75       1.0  0.628317876828106  0.38658521345745106  0.4497878021484283  1.0000
  C   C76       1.0  0.8716818268859399  0.3865852341456418  0.0502124627154927  1.0000
  C   C77       1.0  0.8716833677963509  0.8865869933428742  0.44978729653123384  1.0000
  C   C78       1.0  0.628315824759966  0.886586938655576  0.0502130094734454  1.0000
  C   C79       1.0  0.3716835111853882  0.6134133426294995  0.5502123442159501  1.0000
  C   C80       1.0  0.128316794369745  0.6134133219408826  0.9497876836405367  1.0000
  C   C81       1.0  0.1817235516764768  0.16684776884957134  0.5995470639022571  1.0000
  C   C82       1.0  0.31827659264060065  0.16684716208372663  0.9004529272083772  1.0000
  C   C83       1.0  0.6817244141571666  0.33315350889152745  0.4004526500919496  1.0000
  C   C84       1.0  0.8182752702624188  0.333153517236319  0.099546980326906  1.0000
  C   C85       1.0  0.8182771446480289  0.8331533500936319  0.4004530824601388  1.0000
  C   C86       1.0  0.6817227203025951  0.8331533161451433  0.0995465891014078  1.0000
  C   C87       1.0  0.3182762821647033  0.6668456879093797  0.5995468662219495  1.0000
  C   C88       1.0  0.18172404268283066  0.6668456795643964  0.9004531660312338  1.0000
  C   C89       1.0  0.012222912054056703  0.9938257440498434  0.5408040230034247  1.0000
  C   C90       1.0  0.48777753085123277  0.9938251947802216  0.959195406107014  1.0000
  C   C91       1.0  0.5122247746981117  0.5061764027325778  0.4591965999673704  1.0000
  C   C92       1.0  0.9877749721958013  0.5061764585767038  0.0408036747371625  1.0000
  C   C93       1.0  0.9877743258239919  0.006179859891446401  0.4591961233487183  1.0000
  C   C94       1.0  0.5122252405377524  0.006179768447779602  0.0408034801649677  1.0000
  C   C95       1.0  0.48777592162581845  0.49382151264017443  0.5408035463948907  1.0000
  C   C96       1.0  0.012225032438678302  0.4938214567959421  0.9591964716230095  1.0000
  C   C97       1.0  0.08910597410221044  0.24538073293810925  0.8775972331642947  1.0000
  C   C98       1.0  0.4108948902574384  0.24538077191365912  0.6224021343621544  1.0000
  C   C99       1.0  0.5891047893377178  0.2546185939749678  0.1224069626040176  1.0000
  C   C100      1.0  0.9108948667281782  0.2546186546640712  0.3775932914009701  1.0000
  C   C101      1.0  0.910894722249971  0.7546216674335896  0.12241047377910519  1.0000
  C   C102      1.0  0.5891051143458271  0.7546216284572367  0.3775891913204319  1.0000
  C   C103      1.0  0.41089037347081364  0.745380602825108  0.8775931837416096  1.0000
  C   C104      1.0  0.08910997973053014  0.7453811828515668  0.6224062249254699  1.0000
  S   S1        1.0  0.0026574758162781  0.2409232743732517  0.9419961106968059  1.0000
  S   S2        1.0  0.4973420035596235  0.24092333464408  0.5580045165555134  1.0000
  S   S3        1.0  0.5026572084469265  0.2590792293355122  0.0580088237720346  1.0000
  S   S4        1.0  0.9973424492295425  0.2590793222786943  0.4419914306000051  1.0000
  S   S5        1.0  0.9973446039169859  0.7590784852845971  0.0580122262991551  1.0000
  S   S6        1.0  0.5026552342902876  0.7590784250123481  0.44198806921552597  1.0000
  S   S7        1.0  0.4973386460716471  0.7409199674649118  0.9419969930113936  1.0000
  S   S8        1.0  0.0026623972085815005  0.7409205152367022  0.5580024152907229  1.0000
  N   N1        1.0  0.31643503631433134  0.3365844939123405  0.815162644951755  1.0000
  N   N2        1.0  0.1835658609778221  0.3365844677916599  0.6848373601278369  1.0000
  N   N3        1.0  0.8164349636274654  0.16341554412343845  0.1848372514802392  1.0000
  N   N4        1.0  0.6835646595061606  0.16341552909154441  0.3151623649716555  1.0000
  N   N5        1.0  0.6835642766241748  0.6634153436023881  0.1848356112611711  1.0000
  N   N6        1.0  0.8164355270404827  0.6634153697235234  0.3151640463334147  1.0000
  N   N7        1.0  0.1835650410073555  0.8365842933914749  0.815162894880018  1.0000
  N   N8        1.0  0.3164346534346336  0.8365843084232126  0.6848365212896823  1.0000
  N   N9        1.0  0.1846227310274884  0.16121589608744102  0.6848991008444116  1.0000
  N   N10       1.0  0.3153774112563711  0.1612165625895088  0.8151008898028493  1.0000
  N   N11       1.0  0.6846229758009059  0.3387847418373511  0.31509937053697706  1.0000
  N   N12       1.0  0.8153767106519041  0.33878475654683643  0.18490026034525187  1.0000
  N   N13       1.0  0.8153772736055062  0.8387865042838032  0.3151004154675334  1.0000
  N   N14       1.0  0.6846219016894609  0.8387858377816572  0.1848992565554255  1.0000
  N   N15       1.0  0.31537702882910423  0.6612138142493292  0.6848995157264  1.0000
  N   N16       1.0  0.18462260229323138  0.6612137995397874  0.8150998860128665  1.0000
  N   N17       1.0  0.15298816646765806  0.24866311910400193  0.830472324864246  1.0000
  N   N18       1.0  0.3470113157003994  0.2486625015893225  0.669527672976507  1.0000
  N   N19       1.0  0.6529880143760495  0.2513394311653059  0.1695309961049105  1.0000
  N   N20       1.0  0.847011640503574  0.2513394680587595  0.3304686275818369  1.0000
  N   N21       1.0  0.8470104548046181  0.7513386405531507  0.16953223183080723  1.0000
  N   N22       1.0  0.6529886889186403  0.7513386173535822  0.3304680630449113  1.0000
  N   N23       1.0  0.3470133736443088  0.7486591249217228  0.8304710404046958  1.0000
  N   N24       1.0  0.15298698074295913  0.748659088027658  0.6695289985805388  1.0000
