data_image0
_chemical_formula_structural       Cu12H54C96N60
_chemical_formula_sum              "Cu12 H54 C96 N60"
_cell_length_a       27.633590151866603
_cell_length_b       29.207611384666972
_cell_length_c       33.47617472220148
_cell_angle_alpha    89.85526389878724
_cell_angle_beta     89.17819895736947
_cell_angle_gamma    86.46370723675273

_space_group_name_H-M_alt    "P 1"
_space_group_IT_number       1

loop_
  _space_group_symop_operation_xyz
  'x, y, z'

loop_
  _atom_site_type_symbol
  _atom_site_label
  _atom_site_symmetry_multiplicity
  _atom_site_fract_x
  _atom_site_fract_y
  _atom_site_fract_z
  _atom_site_occupancy
  Cu  Cu1       1.0  0.1023778553891148  0.18393791749031146  0.22370123288984445  1.0000
  Cu  Cu2       1.0  0.1582468552743492  0.16138698988468994  0.143728269504706  1.0000
  Cu  Cu3       1.0  0.19582263659351182  0.11317555884636478  0.22290017015337335  1.0000
  Cu  Cu4       1.0  0.9007489144536366  0.8170492875535089  0.20869623698353484  1.0000
  Cu  Cu5       1.0  0.8469472575271978  0.8279574720172532  0.1271435211103551  1.0000
  Cu  Cu6       1.0  0.7966191303458674  0.8678631907168466  0.20652174304287033  1.0000
  Cu  Cu7       1.0  0.8775763416901724  0.22327499665033196  0.7917715102335949  1.0000
  Cu  Cu8       1.0  0.8134766415467495  0.2133743792064422  0.8696947549336971  1.0000
  Cu  Cu9       1.0  0.8217714420724604  0.1323774177172865  0.808260024385554  1.0000
  Cu  Cu10      1.0  0.13641561641000519  0.7795311068353072  0.7749133090194891  1.0000
  Cu  Cu11      1.0  0.1850152077160132  0.8163430177685317  0.8524573602135066  1.0000
  Cu  Cu12      1.0  0.18803785519411054  0.8744832134437105  0.7736167163022574  1.0000
  H   H1        1.0  0.045295208077107  0.2800915432408503  0.19984783308063214  1.0000
  H   H2        1.0  0.11420437574066261  0.23937010745107298  0.0872758338519191  1.0000
  H   H3        1.0  0.18642375139343412  0.06927202470647131  0.30934028963010013  1.0000
  H   H4        1.0  0.051054398862937896  0.1518997036679579  0.30313176492817473  1.0000
  H   H5        1.0  0.22719037110766752  0.11020554308754531  0.07963311436299852  1.0000
  H   H6        1.0  0.293256208708975  0.0596008761221469  0.18912809579961734  1.0000
  H   H7        1.0  0.9726111141009639  0.7289292960829173  0.18924354193416096  1.0000
  H   H8        1.0  0.9070011004226759  0.7547750609389609  0.0739366487692763  1.0000
  H   H9        1.0  0.7910875255774316  0.9136831536227417  0.29335099220695343  1.0000
  H   H10       1.0  0.9397088851865192  0.8569555245487519  0.2894165398808398  1.0000
  H   H11       1.0  0.7719808400002464  0.8690560117799179  0.06281922519301732  1.0000
  H   H12       1.0  0.6920189944224688  0.8987487337186623  0.17295581547638514  1.0000
  H   H13       1.0  0.9394180791458523  0.30766660990261835  0.8157866120860932  1.0000
  H   H14       1.0  0.8576660959228449  0.2877838177215395  0.9252426407803329  1.0000
  H   H15       1.0  0.8542392038634504  0.07478211414246518  0.7315973799413344  1.0000
  H   H16       1.0  0.9135804887157022  0.20468395902037168  0.7018604512012419  1.0000
  H   H17       1.0  0.7175123844266267  0.1878355103218539  0.9178053600456199  1.0000
  H   H18       1.0  0.7471891683087082  0.06487818924951229  0.8473169741360282  1.0000
  H   H19       1.0  0.10552370679714324  0.6816478476084314  0.8064533945615298  1.0000
  H   H20       1.0  0.15373840800063482  0.7424760043965647  0.9157541804769809  1.0000
  H   H21       1.0  0.13815153309493414  0.9213553496698593  0.6984178494439349  1.0000
  H   H22       1.0  0.075295939400803  0.7891714106765518  0.6953581910031377  1.0000
  H   H23       1.0  0.25257678556890534  0.8708640458737306  0.9079609211364927  1.0000
  H   H24       1.0  0.2714364796419204  0.9426994073631079  0.7959163928310604  1.0000
  H   H25       1.0  0.46044304759616483  0.9782372526898012  0.921953822182566  1.0000
  H   H26       1.0  0.4610921069068468  0.013948860008945001  0.04747387258195351  1.0000
  H   H27       1.0  0.5269528094224327  0.04548790232770019  0.9375252310165508  1.0000
  H   H28       1.0  0.5263027647505678  0.9461095159216482  0.03364747954410771  1.0000
  H   H29       1.0  0.32583291064022996  0.9995809379712026  0.9877288780060809  1.0000
  H   H30       1.0  0.6602993062898719  0.0009373939853674002  0.9946552361565468  1.0000
  H   H31       1.0  0.9961468670633805  0.47555436188149264  0.9469579979526304  1.0000
  H   H32       1.0  0.04312117129509831  0.46401077919533407  0.0698460344798093  1.0000
  H   H33       1.0  0.000964163390342796  0.538475531932363  0.06783723593010652  1.0000
  H   H34       1.0  0.06011141823441331  0.5239232693369047  0.9474934563900705  1.0000
  H   H35       1.0  0.9951484688442634  0.34602925584089655  0.008475082020375196  1.0000
  H   H36       1.0  0.0478273861234868  0.6563514392744594  0.004433265068570302  1.0000
  H   H37       1.0  0.91218458492947  0.9558624748925411  0.47363899072652066  1.0000
  H   H38       1.0  0.03708084298327209  0.03799368243719669  0.4808130097213594  1.0000
  H   H39       1.0  0.008469921391657894  0.9271451133174082  0.529008909223272  1.0000
  H   H40       1.0  0.9377058315088292  0.06366126552718039  0.5338143675869846  1.0000
  H   H41       1.0  0.983075475776893  0.0005270318470707  0.3661864531370541  1.0000
  H   H42       1.0  0.9782530317405999  0.9926196802068361  0.6424319335544199  1.0000
  H   H43       1.0  0.0601571365450226  0.31244602929205456  0.050078121398875915  1.0000
  H   H44       1.0  0.9752085790830805  0.6869946745335866  0.0411940035237706  1.0000
  H   H45       1.0  0.928137106600211  0.3395984920514294  0.9652248507208301  1.0000
  H   H46       1.0  0.10178471950474938  0.6751452524171455  0.958531000533448  1.0000
  H   H47       1.0  0.012746722511508298  0.0765087141862821  0.3521508560526598  1.0000
  H   H48       1.0  0.0596456971751422  0.9556161135518266  0.6512096882979251  1.0000
  H   H49       1.0  0.9595949022855735  0.927000320972887  0.3461281034406767  1.0000
  H   H50       1.0  0.9122128112339708  0.035829643047385694  0.6673723801888942  1.0000
  H   H51       1.0  0.3009063353251377  0.05740643976267989  0.03586847323653331  1.0000
  H   H52       1.0  0.6900088125269335  0.0234402792259942  0.9251279767275451  1.0000
  H   H53       1.0  0.30962362891302314  0.9352381680798202  0.9448782595428684  1.0000
  H   H54       1.0  0.6947428667121827  0.9361788778152373  0.026319450525186014  1.0000
  C   C1        1.0  0.0653560520860452  0.2631219509023098  0.17543311006098614  1.0000
  C   C2        1.0  0.0704518349316174  0.2774397777248794  0.1356123418213144  1.0000
  C   C3        1.0  0.10016379513653821  0.24238482677576909  0.11765929750293222  1.0000
  C   C4        1.0  0.1561565351859642  0.09295167842252279  0.3017227415178213  1.0000
  C   C5        1.0  0.11175148185016327  0.10157840957659663  0.3219670777255815  1.0000
  C   C6        1.0  0.08661809808506152  0.13470288050280027  0.298433254527616  1.0000
  C   C7        1.0  0.2369899644789086  0.1013422951971492  0.1100995260202993  1.0000
  C   C8        1.0  0.2766647689036006  0.0742597380261216  0.12455653246202306  1.0000
  C   C9        1.0  0.2706093659753748  0.07578959516396817  0.16627575338462464  1.0000
  C   C10       1.0  0.9522478722861935  0.7420265120820558  0.16376738845345787  1.0000
  C   C11       1.0  0.951963217142648  0.7249883865560847  0.12461519384078203  1.0000
  C   C12       1.0  0.9191535657119445  0.7552777380686136  0.10461419313222822  1.0000
  C   C13       1.0  0.8258200518496608  0.8960939621843522  0.2861703212840753  1.0000
  C   C14       1.0  0.8691508700102448  0.8948374294371604  0.30757502895581723  1.0000
  C   C15       1.0  0.9020254480547081  0.8675791723285184  0.2841073684379013  1.0000
  C   C16       1.0  0.7593612244911015  0.8741252011407424  0.09343280566407942  1.0000
  C   C17       1.0  0.7142659389819033  0.891670347758115  0.10827859517998213  1.0000
  C   C18       1.0  0.7185548662901198  0.8886730734204562  0.14995348482658247  1.0000
  C   C19       1.0  0.9149739241223925  0.29709433964444554  0.8392173615046377  1.0000
  C   C20       1.0  0.9101800941217563  0.31254992414352495  0.8788276068325802  1.0000
  C   C21       1.0  0.8735839423785946  0.28685703488122266  0.8953995277154265  1.0000
  C   C22       1.0  0.8665457022617247  0.10935267752907407  0.7306860095938745  1.0000
  C   C23       1.0  0.8911559606962669  0.1319205256991296  0.700215549655063  1.0000
  C   C24       1.0  0.8963540619925326  0.17602287809411618  0.7154726481618284  1.0000
  C   C25       1.0  0.7317467147727258  0.1612624021004336  0.8975034624025613  1.0000
  C   C26       1.0  0.7152937826022027  0.11739239291587471  0.8911406249374139  1.0000
  C   C27       1.0  0.747102500125692  0.0980177491929553  0.8619215888363245  1.0000
  C   C28       1.0  0.11997837782916318  0.702974175903833  0.8293250523270076  1.0000
  C   C29       1.0  0.12242151900711211  0.6954391793524052  0.8706996522814523  1.0000
  C   C30       1.0  0.14417266376308646  0.7339952365563391  0.885431682201052  1.0000
  C   C31       1.0  0.1271627630630547  0.886725642579414  0.7033602489895758  1.0000
  C   C32       1.0  0.09388587616624018  0.8617417863727256  0.6825075934464736  1.0000
  C   C33       1.0  0.09549858378084508  0.8189210967497474  0.7016716958888978  1.0000
  C   C34       1.0  0.2509277654455246  0.8844881304421507  0.8777728441708634  1.0000
  C   C35       1.0  0.27728057295168895  0.9186950779035071  0.8597166400652867  1.0000
  C   C36       1.0  0.2606589114364795  0.9208235412285075  0.8202855922672612  1.0000
  C   C37       1.0  0.44151434457688055  0.9871343313830749  0.9498849173304295  1.0000
  C   C38       1.0  0.4669042928723215  0.996095943796412  0.9846481590690888  1.0000
  C   C39       1.0  0.4417136165746101  0.0062777622601899  0.020453863553733208  1.0000
  C   C40       1.0  0.3911088303267221  0.008369321609094997  0.021218902195109007  1.0000
  C   C41       1.0  0.36527926628177443  0.9986635194862855  0.9870487700775074  1.0000
  C   C42       1.0  0.39093658532625136  0.9875339849670793  0.951777148953248  1.0000
  C   C43       1.0  0.5205890989753925  0.9951693176007411  0.98495596978389  1.0000
  C   C44       1.0  0.5459402731797738  0.0230668745495493  0.9589721982861334  1.0000
  C   C45       1.0  0.5961228150578748  0.024352460021972895  0.9626063161733712  1.0000
  C   C46       1.0  0.621684515057382  0.9973436946344593  0.9907142536023489  1.0000
  C   C47       1.0  0.5959540486551588  0.9689076407963454  0.015802871139250402  1.0000
  C   C48       1.0  0.5456174617926878  0.9678397066650459  0.013225126141712501  1.0000
  C   C49       1.0  0.0035354911845075975  0.4554364377019553  0.9738445782343352  1.0000
  C   C50       1.0  0.020893454852284794  0.47573063697830514  0.008336658058596003  1.0000
  C   C51       1.0  0.02880233819904991  0.4492612221449263  0.04294852735703361  1.0000
  C   C52       1.0  0.0198330103211788  0.4027489116543207  0.042421216519400715  1.0000
  C   C53       1.0  0.002191118353898994  0.3822883693407633  0.008363432752766202  1.0000
  C   C54       1.0  0.993885027561454  0.40910129099618336  0.9742868627123331  1.0000
  C   C55       1.0  0.030040378384150294  0.5251288980137333  0.0078917362455684  1.0000
  C   C56       1.0  0.017530729117403592  0.5526798354701156  0.0412065197323841  1.0000
  C   C57       1.0  0.023947239541527696  0.5996307007376132  0.03927647954552781  1.0000
  C   C58       1.0  0.0433715542609079  0.6196127159963112  0.005196492471554802  1.0000
  C   C59       1.0  0.05621192322017521  0.5917844028595595  0.9723947668606885  1.0000
  C   C60       1.0  0.049612666805380505  0.5447760717746988  0.9734669495504847  1.0000
  C   C61       1.0  0.9406111853388238  0.9746195167562561  0.45938224115003123  1.0000
  C   C62       1.0  0.9739839970511569  0.9971999990021276  0.4820969613052243  1.0000
  C   C63       1.0  0.0106379525070537  0.0208641563311573  0.4633268424141832  1.0000
  C   C64       1.0  0.013484832842444002  0.021917027822929893  0.421680288098024  1.0000
  C   C65       1.0  0.9804701110473816  0.9996758604732533  0.39865364532381886  1.0000
  C   C66       1.0  0.9443716778130096  0.9759727082278075  0.4177135105867508  1.0000
  C   C67       1.0  0.9724598861881262  0.9953384040526957  0.5265755173334412  1.0000
  C   C68       1.0  0.992832678137539  0.9563398013268057  0.5459696799850917  1.0000
  C   C69       1.0  0.9952876543387318  0.9561708559231903  0.5875878822623763  1.0000
  C   C70       1.0  0.9760287690407878  0.9933224391088726  0.6100050826627099  1.0000
  C   C71       1.0  0.9548854359082952  0.03155015141137339  0.5903542347815005  1.0000
  C   C72       1.0  0.9534780529179799  0.0331669035041102  0.5486350432223974  1.0000
  C   C73       1.0  0.051159420347644896  0.31941709447823297  0.1171503605962343  1.0000
  C   C74       1.0  0.04897291800747179  0.330826990700487  0.07702601077780713  1.0000
  C   C75       1.0  0.9776106461709446  0.6841801094829378  0.10872201787309883  1.0000
  C   C76       1.0  0.9852367075259069  0.6709859697018317  0.06934511910648673  1.0000
  C   C77       1.0  0.9381451096089961  0.3461162594214713  0.8983027981664122  1.0000
  C   C78       1.0  0.9437261654987097  0.35429248813145625  0.9386387012764603  1.0000
  C   C79       1.0  0.1038273719634972  0.6576338656656874  0.892862037410602  1.0000
  C   C80       1.0  0.0951958457136826  0.6531936689938432  0.9334465303681087  1.0000
  C   C81       1.0  0.09410734328881182  0.07860091144296179  0.3571967357685538  1.0000
  C   C82       1.0  0.0469989735403828  0.0686977802248876  0.3667500273892514  1.0000
  C   C83       1.0  0.0630189769089569  0.8780193528979297  0.6502141246741291  1.0000
  C   C84       1.0  0.049833142208605394  0.9228709561600181  0.6397542254532669  1.0000
  C   C85       1.0  0.8789786452194124  0.9181556040063013  0.344418273869998  1.0000
  C   C86       1.0  0.9229965521123591  0.9313731509256513  0.3580758799275401  1.0000
  C   C87       1.0  0.9091520674689163  0.11309757061140856  0.6625211288199253  1.0000
  C   C88       1.0  0.9177783446481625  0.0676098515976093  0.6517651404447379  1.0000
  C   C89       1.0  0.3156603875876556  0.050643095644758794  0.10204142584903053  1.0000
  C   C90       1.0  0.3221378362740169  0.045390152081353094  0.06117257345958651  1.0000
  C   C91       1.0  0.6736186164983735  0.0983948862706043  0.910430142275608  1.0000
  C   C92       1.0  0.6668321134642453  0.05471064303745269  0.9247894999845345  1.0000
  C   C93       1.0  0.31433343218961346  0.944427830162809  0.8777931038983058  1.0000
  C   C94       1.0  0.3251823859538377  0.9488061733461491  0.917786161589696  1.0000
  C   C95       1.0  0.6722673187003777  0.9103029405288651  0.08704573123421262  1.0000
  C   C96       1.0  0.6682849832822909  0.9303523882659661  0.0496271340138463  1.0000
  N   N1        1.0  0.11193253630920451  0.20960795151617614  0.14484583649944946  1.0000
  N   N2        1.0  0.09028457294670741  0.22242355960369758  0.18065826984626915  1.0000
  N   N3        1.0  0.11405816317910221  0.14492446036589968  0.2663801975744847  1.0000
  N   N4        1.0  0.15712615835508362  0.1188416343489749  0.2683148491868508  1.0000
  N   N5        1.0  0.2301729973203237  0.1018700189898922  0.1758202276815268  1.0000
  N   N6        1.0  0.20933288411522002  0.11777094721990267  0.1409868402848389  1.0000
  N   N7        1.0  0.901111172658382  0.7879467096879297  0.1300525969739184  1.0000
  N   N8        1.0  0.921742689333108  0.7797609579446175  0.16671573900683265  1.0000
  N   N9        1.0  0.8798205956835831  0.8536461050854314  0.25109375321827804  1.0000
  N   N10       1.0  0.8326028554257049  0.8714476038282869  0.2523069947207688  1.0000
  N   N11       1.0  0.7631264816935399  0.870917395662353  0.15918334447837887  1.0000
  N   N12       1.0  0.7884437837639524  0.861681139215406  0.12415420766125614  1.0000
  N   N13       1.0  0.8577945751675814  0.2581275517114605  0.8676486755919869  1.0000
  N   N14       1.0  0.8835789440902531  0.2644165422940077  0.8328539237516994  1.0000
  N   N15       1.0  0.8764362087801134  0.17924900381617445  0.7524459746852374  1.0000
  N   N16       1.0  0.8578500689974717  0.13793131408250048  0.7618718320293285  1.0000
  N   N17       1.0  0.7801470242658368  0.12827493071979026  0.8516165977777775  1.0000
  N   N18       1.0  0.7707375739187653  0.16737021823558246  0.8739283735414177  1.0000
  N   N19       1.0  0.15376766579062456  0.7624981445251393  0.854994815761714  1.0000
  N   N20       1.0  0.138667139112755  0.7433035588867722  0.8202222190603764  1.0000
  N   N21       1.0  0.12723844223638983  0.818692905904868  0.7319549247846242  1.0000
  N   N22       1.0  0.1469657049960489  0.8607364004239455  0.7329448593417143  1.0000
  N   N23       1.0  0.226795285190768  0.8900436857885125  0.8153751103097309  1.0000
  N   N24       1.0  0.22086631927811598  0.8674436949675908  0.8510077937748336  1.0000
  N   N25       1.0  0.020186463606577797  0.39042584431728505  0.1143364874783828  1.0000
  N   N26       1.0  0.03285306964154699  0.35693513674800664  0.1386685580853708  1.0000
  N   N27       1.0  0.02992272956135621  0.37496112533305836  0.07634437538262522  1.0000
  N   N28       1.0  0.0154815984225465  0.615849631195658  0.11038122465203062  1.0000
  N   N29       1.0  0.9970879748351464  0.6494157356503151  0.1326143505644879  1.0000
  N   N30       1.0  0.008451233437867182  0.6285363508402285  0.0714489430600764  1.0000
  N   N31       1.0  0.9877574727484274  0.40179075483827387  0.9023698062791042  1.0000
  N   N32       1.0  0.9659196724915091  0.37600399306226956  0.8774486692981329  1.0000
  N   N33       1.0  0.9745503157813146  0.3889052200642595  0.9401371873738924  1.0000
  N   N34       1.0  0.0720405888198883  0.5911958373874384  0.9011345390886947  1.0000
  N   N35       1.0  0.0890694527037894  0.6187492206412487  0.8744671122146954  1.0000
  N   N36       1.0  0.07548568742815577  0.6117557740380734  0.9376257566519473  1.0000
  N   N37       1.0  0.09772477321249802  0.040078038411955695  0.4136124112423475  1.0000
  N   N38       1.0  0.12370141242949022  0.0603226671566688  0.3867667498169496  1.0000
  N   N39       1.0  0.0503923570183957  0.045020927178789784  0.4017630780057787  1.0000
  N   N40       1.0  0.014373650709316605  0.8744172018847889  0.5991167290807979  1.0000
  N   N41       1.0  0.040251731719671106  0.8497134825392151  0.6245690676369408  1.0000
  N   N42       1.0  0.019887614543861815  0.9194486399033364  0.6081131544181064  1.0000
  N   N43       1.0  0.8636084545024261  0.9528443503003103  0.4017675204379502  1.0000
  N   N44       1.0  0.8438153636234417  0.9321594356583205  0.37216555877075314  1.0000
  N   N45       1.0  0.9123321927373169  0.9525889947612072  0.39356701184276244  1.0000
  N   N46       1.0  0.9383024610259555  0.11335583746450337  0.601137852464703  1.0000
  N   N47       1.0  0.9223263602598663  0.13968556831598283  0.6305128952370184  1.0000
  N   N48       1.0  0.9357076618355863  0.0688634702009949  0.6136771600068018  1.0000
  N   N49       1.0  0.3857830777686005  0.012129217863112302  0.09336115507279173  1.0000
  N   N50       1.0  0.3554881567346585  0.029419071002628496  0.1203152714035411  1.0000
  N   N51       1.0  0.36592466949805663  0.021570368137496097  0.056817595210503724  1.0000
  N   N52       1.0  0.5998317241763405  0.1006151195057683  0.9358054175049662  1.0000
  N   N53       1.0  0.631586006870414  0.12508674784204737  0.9180526338691949  1.0000
  N   N54       1.0  0.6207597967881852  0.057082121600849696  0.9400700201974744  1.0000
  N   N55       1.0  0.37789293085574366  0.9859052289276561  0.8799865686772252  1.0000
  N   N56       1.0  0.34741968728787503  0.9679937031508031  0.8559496516902243  1.0000
  N   N57       1.0  0.36473095781102677  0.9744391689124682  0.9180682713481192  1.0000
  N   N58       1.0  0.5953595257873732  0.9317639376466929  0.08011225335852862  1.0000
  N   N59       1.0  0.6265818637157281  0.9120847146916732  0.10438758358789361  1.0000
  N   N60       1.0  0.6202124464892051  0.9432128567050811  0.046155292255598106  1.0000
