data_image0
_chemical_formula_structural       Cu12Si3H24C60N24
_chemical_formula_sum              "Cu12 Si3 H24 C60 N24"
_cell_length_a       21.581940366906082
_cell_length_b       21.644603247321598
_cell_length_c       22.302242343557182
_cell_angle_alpha    90.04370829819828
_cell_angle_beta     90.06101647566074
_cell_angle_gamma    89.69799972081395

_space_group_name_H-M_alt    "P 1"
_space_group_IT_number       1

loop_
  _space_group_symop_operation_xyz
  'x, y, z'

loop_
  _atom_site_type_symbol
  _atom_site_label
  _atom_site_symmetry_multiplicity
  _atom_site_fract_x
  _atom_site_fract_y
  _atom_site_fract_z
  _atom_site_occupancy
  Cu  Cu1       1.0  0.24525936257217038  0.7543883584839363  0.15083209600526004  1.0000
  Cu  Cu2       1.0  0.13615604735149836  0.758623139119294  0.2456801714107684  1.0000
  Cu  Cu3       1.0  0.24075029654531482  0.8632011531372188  0.2455411795800231  1.0000
  Cu  Cu4       1.0  0.24537131087381422  0.24517713155652393  0.8530944178629626  1.0000
  Cu  Cu5       1.0  0.1368378766624119  0.2436919391651813  0.7572120879556579  1.0000
  Cu  Cu6       1.0  0.239985307035063  0.1368331449846139  0.7579061316271519  1.0000
  Cu  Cu7       1.0  0.7553241557851891  0.755479749271913  0.8531621655496906  1.0000
  Cu  Cu8       1.0  0.8642014019335135  0.760326821249485  0.758147887201659  1.0000
  Cu  Cu9       1.0  0.7564721358467851  0.8629391909094365  0.7572671693144385  1.0000
  Cu  Cu10      1.0  0.7606775165765285  0.23950961745215688  0.1384135813596927  1.0000
  Cu  Cu11      1.0  0.8625609080866994  0.2427187520844356  0.2410792296182436  1.0000
  Cu  Cu12      1.0  0.7576447174495868  0.138467447373408  0.2407142090848353  1.0000
  Si  Si1       1.0  0.9973049434811541  0.002376518774831  0.500906618531431  1.0000
  Si  Si2       1.0  0.0018412485046538987  0.5015375958293407  0.0011241632534293002  1.0000
  Si  Si3       1.0  0.4980280124819815  0.9976777849381974  0.0013439239390252002  1.0000
  H   H1        1.0  0.2018733823659744  0.6434140043599965  0.0684727250135779  1.0000
  H   H2        1.0  0.04796425929205839  0.6537971582880644  0.19289987253918642  1.0000
  H   H3        1.0  0.34535327528462995  0.9516516084604658  0.19265796041258199  1.0000
  H   H4        1.0  0.35646108263569687  0.797774508246164  0.0684740872609026  1.0000
  H   H5        1.0  0.05164980596632059  0.8062365805128878  0.3525375610584973  1.0000
  H   H6        1.0  0.19308260809174976  0.947716492100056  0.3520336313630636  1.0000
  H   H7        1.0  0.2024373130507016  0.3565936558774681  0.9356232215830786  1.0000
  H   H8        1.0  0.04936856651677599  0.34976285989035455  0.809742440165337  1.0000
  H   H9        1.0  0.3434357174265728  0.04603920299899039  0.8108931408342457  1.0000
  H   H10       1.0  0.3560569781769516  0.19915293202198825  0.9357100702926147  1.0000
  H   H11       1.0  0.052308345897394304  0.19837541325336616  0.6495422000674296  1.0000
  H   H12       1.0  0.19198123959761657  0.053697861647037805  0.6507690646611409  1.0000
  H   H13       1.0  0.8012902171550633  0.6455127978583519  0.9359431842231061  1.0000
  H   H14       1.0  0.9548544319542956  0.6567732437520916  0.8112892113793394  1.0000
  H   H15       1.0  0.6497831996765767  0.9503711040893348  0.8096066080147041  1.0000
  H   H16       1.0  0.6431417831619369  0.7978898513144799  0.9354026144260105  1.0000
  H   H17       1.0  0.9469560099292452  0.8078507066017198  0.6505351623339878  1.0000
  H   H18       1.0  0.801721816913947  0.9469846853450009  0.6498897349364938  1.0000
  H   H19       1.0  0.8086839391790122  0.3467541484586576  0.0540380825023661  1.0000
  H   H20       1.0  0.9478310648018538  0.35260740320610745  0.1943030817887745  1.0000
  H   H21       1.0  0.647470268420136  0.05309546847979619  0.19397901575067075  1.0000
  H   H22       1.0  0.6526727403172076  0.19155175300853947  0.05369997687058971  1.0000
  H   H23       1.0  0.9450459575768234  0.19690719843248417  0.3502163145656212  1.0000
  H   H24       1.0  0.8032274775783678  0.05580130396159428  0.3492772912942002  1.0000
  C   C1        1.0  0.169907104881041  0.6535797705081662  0.1046788419716336  1.0000
  C   C2        1.0  0.11098714786218268  0.628424454230341  0.11596408007272171  1.0000
  C   C3        1.0  0.0910542688851805  0.6588870081528241  0.1684469163229423  1.0000
  C   C4        1.0  0.3404341571589455  0.9085410959351206  0.1682981855026213  1.0000
  C   C5        1.0  0.37100928460004917  0.8886248286056999  0.11586211800579352  1.0000
  C   C6        1.0  0.3460926362549301  0.8296986735567274  0.1046527228465735  1.0000
  C   C7        1.0  0.09167740807571079  0.8351960117299552  0.3446342925097454  1.0000
  C   C8        1.0  0.1083167059138503  0.8910509367977683  0.37267322219926063  1.0000
  C   C9        1.0  0.1641543659505373  0.9076407746021573  0.3444148703492901  1.0000
  C   C10       1.0  0.17065086823613737  0.3472567434504228  0.8990644278718634  1.0000
  C   C11       1.0  0.11199023033477568  0.3734919519387602  0.8874287653592532  1.0000
  C   C12       1.0  0.09219920934026499  0.343701202898032  0.8346200674201113  1.0000
  C   C13       1.0  0.33892403303305946  0.08910606301503779  0.8354637789505405  1.0000
  C   C14       1.0  0.3697082054792062  0.10823344128249347  0.8880070732995337  1.0000
  C   C15       1.0  0.3453734087375011  0.16759825269612352  0.8993895059311187  1.0000
  C   C16       1.0  0.09199559863373709  0.16855622999794656  0.6576226284594356  1.0000
  C   C17       1.0  0.10813351039887212  0.11239790321171475  0.6295826098051691  1.0000
  C   C18       1.0  0.1635698367125613  0.0944603814903147  0.6582308327302471  1.0000
  C   C19       1.0  0.8330802081505481  0.6559686206664422  0.899765492405315  1.0000
  C   C20       1.0  0.892350981593914  0.6311154098511125  0.8883457454655073  1.0000
  C   C21       1.0  0.9117760924924526  0.661701249481922  0.8359174047957794  1.0000
  C   C22       1.0  0.6558864396026322  0.9076746930385579  0.8344267086346522  1.0000
  C   C23       1.0  0.6261286212308192  0.8879782030956704  0.8872401647466859  1.0000
  C   C24       1.0  0.6525180892420934  0.829532554077673  0.898868253619753  1.0000
  C   C25       1.0  0.9061561392513225  0.8362384844611909  0.658218385258678  1.0000
  C   C26       1.0  0.8879843012756581  0.8914853584314032  0.6296665336411564  1.0000
  C   C27       1.0  0.8317485784057439  0.9074920946142838  0.6578431623110816  1.0000
  C   C28       1.0  0.836986337903056  0.3403334221381229  0.0937765128161132  1.0000
  C   C29       1.0  0.8922593615900566  0.370282597877427  0.1101959254021168  1.0000
  C   C30       1.0  0.908328649122673  0.3433206703182492  0.165599283726749  1.0000
  C   C31       1.0  0.6566329827887287  0.09245684385204807  0.1653023984264124  1.0000
  C   C32       1.0  0.6294957218648917  0.1082547195241759  0.10985350042658841  1.0000
  C   C33       1.0  0.6592962156982337  0.16345947601236327  0.0934708181948665  1.0000
  C   C34       1.0  0.9049655745997283  0.16802028560545068  0.34216738838722455  1.0000
  C   C35       1.0  0.8877953071521391  0.1126085103797578  0.3706239904039208  1.0000
  C   C36       1.0  0.8323543983349707  0.09571841482409134  0.3416693887833162  1.0000
  C   C37       1.0  0.07841689456964218  0.5852657050709738  0.0810728346234484  1.0000
  C   C38       1.0  0.04938490534730279  0.5492041734050445  0.04956952109470341  1.0000
  C   C39       1.0  0.07941961155969318  0.4170418192343276  0.9221852075151633  1.0000
  C   C40       1.0  0.050273658807078916  0.4534648054784043  0.9534841792483918  1.0000
  C   C41       1.0  0.9252091301355777  0.5875432763850696  0.9228180445538854  1.0000
  C   C42       1.0  0.9541223084126217  0.5507454419799841  0.9539005537938864  1.0000
  C   C43       1.0  0.9248746622957853  0.41485634585095704  0.0772648593200103  1.0000
  C   C44       1.0  0.9536586053713235  0.4524682925370057  0.0474123002771947  1.0000
  C   C45       1.0  0.4141164758626489  0.921232598593356  0.08100130734659672  1.0000
  C   C46       1.0  0.45021900332869785  0.9502753170598197  0.04962065357485561  1.0000
  C   C47       1.0  0.5848483486694961  0.0753665970449475  0.0770381034273626  1.0000
  C   C48       1.0  0.5472689648290228  0.045988569252386896  0.047527083259943495  1.0000
  C   C49       1.0  0.41273717497333706  0.0749016396698323  0.9227491157688519  1.0000
  C   C50       1.0  0.44888857239665475  0.0454386382755914  0.9541001315244558  1.0000
  C   C51       1.0  0.5825403800558888  0.9203926308754898  0.9221417094532498  1.0000
  C   C52       1.0  0.5461344516034642  0.9493055741614216  0.9536840453833406  1.0000
  C   C53       1.0  0.0753492596025183  0.9240926469561189  0.4166889489479146  1.0000
  C   C54       1.0  0.0457845983932046  0.9538845071251956  0.4536794008878218  1.0000
  C   C55       1.0  0.9201593331102628  0.9245793171658361  0.5854469899996317  1.0000
  C   C56       1.0  0.9491919413881432  0.9543274049253369  0.5483181443295777  1.0000
  C   C57       1.0  0.9201090355418201  0.0800140330011843  0.41542732907886665  1.0000
  C   C58       1.0  0.9491275094788774  0.0505724830582466  0.4530955031911148  1.0000
  C   C59       1.0  0.07500174704463089  0.07994262385270189  0.585470733561877  1.0000
  C   C60       1.0  0.045427941401854396  0.050512080431886396  0.5484013962598766  1.0000
  N   N1        1.0  0.134685751552702  0.6990154728516415  0.1864946034257713  1.0000
  N   N2        1.0  0.1835339777435081  0.6957520998361985  0.1469646313563615  1.0000
  N   N3        1.0  0.30394696103380175  0.8160344736798134  0.14695113656850373  1.0000
  N   N4        1.0  0.3004716898485356  0.8648713363246965  0.1864074320456197  1.0000
  N   N5        1.0  0.1791420562075174  0.8650618438811434  0.3028441690651889  1.0000
  N   N6        1.0  0.13422098516588218  0.8201527735158716  0.3029794608641865  1.0000
  N   N7        1.0  0.13567228692674146  0.3029351673708476  0.8166990588651544  1.0000
  N   N8        1.0  0.1842606346975941  0.30509132366655917  0.8566613873220986  1.0000
  N   N9        1.0  0.3033233887455112  0.18225239655512124  0.8570811755396833  1.0000
  N   N10       1.0  0.29936298753851526  0.13363970019855026  0.8174497431907214  1.0000
  N   N11       1.0  0.17879795551356636  0.13656415393766244  0.7000415718772645  1.0000
  N   N12       1.0  0.1344453020310326  0.1824944999208213  0.6996624920585717  1.0000
  N   N13       1.0  0.8674622005801779  0.7015661089380458  0.8179676700726405  1.0000
  N   N14       1.0  0.8187187893697185  0.6980364652453446  0.8575470281961586  1.0000
  N   N15       1.0  0.6947604627178877  0.8159517106084451  0.8564714983834846  1.0000
  N   N16       1.0  0.6968105682009309  0.8643464781502955  0.8165204224877199  1.0000
  N   N17       1.0  0.8179826556400301  0.8651862917922979  0.6998643249703491  1.0000
  N   N18       1.0  0.8641184255871507  0.8210303228606791  0.7001078908951612  1.0000
  N   N19       1.0  0.8659365064656723  0.3006538412877831  0.18053643083218424  1.0000
  N   N20       1.0  0.8217524035652984  0.298821143227606  0.1360323060750517  1.0000
  N   N21       1.0  0.700904670712916  0.17890515230579504  0.1357721794726743  1.0000
  N   N22       1.0  0.6992653473609919  0.13492453647647548  0.180277104174948  1.0000
  N   N23       1.0  0.8180818835330542  0.1377114453419779  0.2993415403697028  1.0000
  N   N24       1.0  0.8630970618741571  0.18252618818443977  0.29963850114141627  1.0000
