data_image0
_chemical_formula_structural       Na2H28C24S4N6O22
_chemical_formula_sum              "Na2 H28 C24 S4 N6 O22"
_cell_length_a       6.223004848020884
_cell_length_b       7.710218929897008
_cell_length_c       18.719420234851444
_cell_angle_alpha    99.10406132482
_cell_angle_beta     90.00024667632545
_cell_angle_gamma    90.00005415497908

_space_group_name_H-M_alt    "P 1"
_space_group_IT_number       1

loop_
  _space_group_symop_operation_xyz
  'x, y, z'

loop_
  _atom_site_type_symbol
  _atom_site_label
  _atom_site_symmetry_multiplicity
  _atom_site_fract_x
  _atom_site_fract_y
  _atom_site_fract_z
  _atom_site_occupancy
  Na  Na1       1.0  0.5612340184920157  0.8367348336336206  0.024749709617374504  1.0000
  Na  Na2       1.0  0.061234732013588214  0.16327732060028669  0.9752491282253217  1.0000
  H   H1        1.0  0.2064008351616309  0.015920713239637497  0.0975211230316901  1.0000
  H   H2        1.0  0.7064051469693525  0.9840860865679774  0.9024786755107641  1.0000
  H   H3        1.0  0.09747750133285389  0.8629800816295797  0.042934347745173795  1.0000
  H   H4        1.0  0.5974899874707803  0.1370267989181215  0.9570636680004156  1.0000
  H   H5        1.0  0.5499813435605532  0.5708289108038685  0.8856191081885283  1.0000
  H   H6        1.0  0.049985415803142495  0.429183243363731  0.1143807788984077  1.0000
  H   H7        1.0  0.3120048859572719  0.6225677838639002  0.9057532137075058  1.0000
  H   H8        1.0  0.8120029242266751  0.3774376565629112  0.0942434693480507  1.0000
  H   H9        1.0  0.9553809909015529  0.6732618413164388  0.9651930341348772  1.0000
  H   H10       1.0  0.45538700084017586  0.3267461342414535  0.034804061225173696  1.0000
  H   H11       1.0  0.9315996238454147  0.5849072918154549  0.0348976273536508  1.0000
  H   H12       1.0  0.4316045289989035  0.4150954376209057  0.9651001481011006  1.0000
  H   H13       1.0  0.36222676671843607  0.6329936086247515  0.3198636900257483  1.0000
  H   H14       1.0  0.8622453714105659  0.3669999706241072  0.6801333606307479  1.0000
  H   H15       1.0  0.5966834892607977  0.7921876074839672  0.4174997435212546  1.0000
  H   H16       1.0  0.0967059837350064  0.2078021468323499  0.5825046143325494  1.0000
  H   H17       1.0  0.06500079710744441  0.8841065734426721  0.2581885690856751  1.0000
  H   H18       1.0  0.5650109331982592  0.11588452198832751  0.7418147552906261  1.0000
  H   H19       1.0  0.8306172201316219  0.7285147620475669  0.1600918414767563  1.0000
  H   H20       1.0  0.3306234069590985  0.2714801000395752  0.839912719269222  1.0000
  H   H21       1.0  0.3363812800474548  0.15821055141377371  0.3128759765660262  1.0000
  H   H22       1.0  0.8363714704837195  0.8417909000690285  0.6871252914042145  1.0000
  H   H23       1.0  0.4729543618722687  0.21783933380164205  0.44000674639278264  1.0000
  H   H24       1.0  0.9729365335500761  0.782154159920232  0.5599926239991078  1.0000
  H   H25       1.0  0.0723472399139453  0.3999223945201819  0.3634041820848779  1.0000
  H   H26       1.0  0.5723406801230269  0.6000779527298264  0.6365906866584154  1.0000
  H   H27       1.0  0.9401715653869331  0.33679892912711296  0.23571457315577496  1.0000
  H   H28       1.0  0.4401802520479024  0.6632038202884586  0.7642794787815816  1.0000
  C   C1        1.0  0.5863865975961957  0.6692251899324048  0.23500332156610426  1.0000
  C   C2        1.0  0.08639707432371321  0.3307606158650741  0.7650028937843273  1.0000
  C   C3        1.0  0.5158230301280184  0.6870624476905858  0.3066183149693131  1.0000
  C   C4        1.0  0.0158407131258116  0.3129194991663198  0.6933821822836775  1.0000
  C   C5        1.0  0.6452400862807652  0.7758184011532593  0.3610904926251095  1.0000
  C   C6        1.0  0.14525360160337192  0.22417527352313021  0.6389126052244194  1.0000
  C   C7        1.0  0.8420485884386936  0.8416836096828462  0.3421243367240692  1.0000
  C   C8        1.0  0.3420636261486082  0.15830863622612412  0.6578773990199096  1.0000
  C   C9        1.0  0.9120224179700429  0.8277770796534228  0.270671649500656  1.0000
  C   C10       1.0  0.4120350515800483  0.17222169264947948  0.7293301039151032  1.0000
  C   C11       1.0  0.781414623232017  0.7406585608330545  0.21638548998161158  1.0000
  C   C12       1.0  0.28142016697625394  0.259333694833245  0.7836204167720524  1.0000
  C   C13       1.0  0.6287223159502773  0.24491017933605258  0.2676203543584919  1.0000
  C   C14       1.0  0.1287117801462614  0.7550979947117468  0.7323778003459153  1.0000
  C   C15       1.0  0.4957996209083079  0.21316674782618616  0.3242613391031313  1.0000
  C   C16       1.0  0.9957862413327234  0.7868293582934953  0.6757382434041332  1.0000
  C   C17       1.0  0.5712443259317511  0.2465964501044695  0.39522318542729806  1.0000
  C   C18       1.0  0.0712228020141978  0.7533959803317459  0.6047764986193087  1.0000
  C   C19       1.0  0.7789753639808908  0.3118253634543322  0.4069515003392397  1.0000
  C   C20       1.0  0.27895504305652014  0.6881722170195915  0.5930446053373544  1.0000
  C   C21       1.0  0.9122274923577862  0.3471580061083444  0.35083587776272646  1.0000
  C   C22       1.0  0.41221082209106197  0.6528329322518189  0.6491584119138594  1.0000
  C   C23       1.0  0.836755467744574  0.3125773088856647  0.2800418547969628  1.0000
  C   C24       1.0  0.33675415185015123  0.6874202199851923  0.719956482722111  1.0000
  S   S1        1.0  0.43110567848409437  0.5491214434968157  0.1644656832468243  1.0000
  S   S2        1.0  0.9311214544126898  0.45087730565381884  0.8355377037624265  1.0000
  S   S3        1.0  0.5284421994514474  0.19198194610525826  0.1775254021678734  1.0000
  S   S4        1.0  0.028442478716343096  0.8080210272169238  0.822473839551911  1.0000
  N   N1        1.0  0.55653330403441  0.3657042229869418  0.13932751798274975  1.0000
  N   N2        1.0  0.056538057003521706  0.6342974370008678  0.860669013485392  1.0000
  N   N3        1.0  0.9812117592497815  0.9305609773518242  0.4001837566554229  1.0000
  N   N4        1.0  0.48124187437373683  0.06943248558590648  0.5998193652481874  1.0000
  N   N5        1.0  0.8667260162776103  0.3357693207947251  0.48087219977455925  1.0000
  N   N6        1.0  0.3667160650833808  0.6642360699986085  0.5191267100204939  1.0000
  O   O1        1.0  0.2023466845438335  0.9617834485901965  0.046359826953874986  1.0000
  O   O2        1.0  0.7023490676679741  0.0382154690454328  0.9536399763129708  1.0000
  O   O3        1.0  0.4540312004431044  0.6025879684847197  0.9275342113095489  1.0000
  O   O4        1.0  0.9540307031181642  0.39742525111059723  0.0724648320366015  1.0000
  O   O5        1.0  0.9131906592763814  0.6990330353851492  0.01637971711068791  1.0000
  O   O6        1.0  0.41320651597273184  0.30097102664937836  0.9836170469318689  1.0000
  O   O7        1.0  0.44496702636259045  0.6417555536766528  0.1030364541689721  1.0000
  O   O8        1.0  0.944983048140834  0.35825108955639706  0.8969642745762486  1.0000
  O   O9        1.0  0.21748068049708996  0.5239270198516691  0.19323317829422848  1.0000
  O   O10       1.0  0.7174866213553841  0.47608503058020096  0.8067664530237124  1.0000
  O   O11       1.0  0.6702285169663185  0.06293868395886901  0.1367986437380253  1.0000
  O   O12       1.0  0.17022335148158868  0.9370629140665017  0.8631964746589345  1.0000
  O   O13       1.0  0.3042224713218645  0.14180847112758244  0.1841708285217223  1.0000
  O   O14       1.0  0.8042140831332601  0.8581995867768344  0.8158281516329495  1.0000
  O   O15       1.0  0.9098559338919259  0.9537204184138587  0.4627346068143297  1.0000
  O   O16       1.0  0.4098804720302596  0.046274381953850294  0.537271687448218  1.0000
  O   O17       1.0  0.16188089724283833  0.978268651822141  0.3828655844557503  1.0000
  O   O18       1.0  0.6619150305071883  0.0217302553502066  0.6171394912824651  1.0000
  O   O19       1.0  0.7417303887274401  0.330874094763331  0.5319932489911565  1.0000
  O   O20       1.0  0.2417231359959189  0.6691392609283539  0.46800544174510605  1.0000
  O   O21       1.0  0.0639820629833281  0.3562016203136126  0.4874015373405669  1.0000
  O   O22       1.0  0.5639711762155956  0.6437829154457476  0.512600281973988  1.0000
