data_image0
_chemical_formula_structural       Zn4H29C48Br5N4O16
_chemical_formula_sum              "Zn4 H29 C48 Br5 N4 O16"
_cell_length_a       9.638670250597785
_cell_length_b       11.047847392279634
_cell_length_c       21.98197424178619
_cell_angle_alpha    90.49241860705914
_cell_angle_beta     88.95041278529389
_cell_angle_gamma    90.2482469374066

_space_group_name_H-M_alt    "P 1"
_space_group_IT_number       1

loop_
  _space_group_symop_operation_xyz
  'x, y, z'

loop_
  _atom_site_type_symbol
  _atom_site_label
  _atom_site_symmetry_multiplicity
  _atom_site_fract_x
  _atom_site_fract_y
  _atom_site_fract_z
  _atom_site_occupancy
  Zn  Zn1       1.0  0.6423342587991456  0.49521411814392735  0.498336087567999  1.0000
  Zn  Zn2       1.0  0.35944111619667746  0.5013938032274083  0.4981402385289825  1.0000
  Zn  Zn3       1.0  0.3564645211505777  0.4958386299664568  0.00014013937278890018  1.0000
  Zn  Zn4       1.0  0.6397325723258476  0.5058831901230505  0.9950711369549835  1.0000
  H   H1        1.0  0.12066678732161051  0.6431081846023047  0.5606744435009786  1.0000
  H   H2        1.0  0.15011971440022626  0.35263877800181115  0.43982782898952866  1.0000
  H   H3        1.0  0.8553334730112713  0.6290785047466653  0.5576770883999627  1.0000
  H   H4        1.0  0.7257575813306475  0.897803927491232  0.49792361452487904  1.0000
  H   H5        1.0  0.2814083344006235  0.8729411936226082  0.505673467657452  1.0000
  H   H6        1.0  0.7072773524515129  0.12412280183634287  0.501341027371012  1.0000
  H   H7        1.0  0.6689077706122433  0.3393938056897382  0.860169445019295  1.0000
  H   H8        1.0  0.6712894403771942  0.33411185481765665  0.6343896854173535  1.0000
  H   H9        1.0  0.2846109717402713  0.4855572827306671  0.1931140948482692  1.0000
  H   H10       1.0  0.7269513585072005  0.5337511479718202  0.1878444590419903  1.0000
  H   H11       1.0  0.2892416770478334  0.4881850201924464  0.3072632181949473  1.0000
  H   H12       1.0  0.8841628992390511  0.6276258516466766  0.9251560367431607  1.0000
  H   H13       1.0  0.8426494323659668  0.3829457811645084  0.066902906432162  1.0000
  H   H14       1.0  0.1488520488116407  0.6132158217722151  0.9315794561384577  1.0000
  H   H15       1.0  0.2731451456463745  0.8986291853447028  0.9897647805865047  1.0000
  H   H16       1.0  0.7156743176680677  0.875149737396512  0.0035014015814382993  1.0000
  H   H17       1.0  0.2931876840847352  0.12512616834356288  0.9892290926376714  1.0000
  H   H18       1.0  0.3443248799239953  0.7693984712153252  0.6990207130117054  1.0000
  H   H19       1.0  0.3447924111833061  0.6754172910508345  0.6332398972991412  1.0000
  H   H20       1.0  0.21389957463716058  0.6583763886453794  0.6904280271861863  1.0000
  H   H21       1.0  0.21085763820132541  0.6604001589681161  0.8063871677337102  1.0000
  H   H22       1.0  0.3394292056476331  0.680400310879719  0.8626686084869136  1.0000
  H   H23       1.0  0.34147602572330976  0.7711066569598795  0.7965323062427245  1.0000
  H   H24       1.0  0.957217744127057  0.19117668566780566  0.8032602896663404  1.0000
  H   H25       1.0  0.8306039261110174  0.18530528086736098  0.8631551581787774  1.0000
  H   H26       1.0  0.8258026346269959  0.07967729166428937  0.8017345095373186  1.0000
  H   H27       1.0  0.8266653762652608  0.07694287893265538  0.6919234849116549  1.0000
  H   H28       1.0  0.8320227501856792  0.1798771578361595  0.6301217733071665  1.0000
  H   H29       1.0  0.9583125087804092  0.1882558457983023  0.6881495184935389  1.0000
  C   C1        1.0  0.509221675641129  0.7357882411239631  0.5004416648835315  1.0000
  C   C2        1.0  0.5007131041275343  0.5029103937781157  0.6158869247274125  1.0000
  C   C3        1.0  0.48865699908717636  0.2630700251604098  0.5008359319459217  1.0000
  C   C4        1.0  0.49970867390299395  0.5065607676746493  0.3802888326032629  1.0000
  C   C5        1.0  0.4879455825116991  0.7375259677907164  0.9986868539577783  1.0000
  C   C6        1.0  0.49431199374381424  0.5081971057647435  0.8795604882261185  1.0000
  C   C7        1.0  0.5124199406921477  0.2646656287461012  0.9940389722089406  1.0000
  C   C8        1.0  0.5057297859728535  0.5016748856666169  0.11565002084387999  1.0000
  C   C9        1.0  0.9387725770907379  0.40722697411626274  0.4644515951767119  1.0000
  C   C10       1.0  0.06660983595631362  0.5761785142406807  0.5330898002019919  1.0000
  C   C11       1.0  0.08387059634081602  0.4149812231410621  0.46554412414477747  1.0000
  C   C12       1.0  0.9229264095306179  0.568556930592777  0.5314198414896721  1.0000
  C   C13       1.0  0.4856256864613826  0.1270873855854688  0.5028636476291053  1.0000
  C   C14       1.0  0.5040789649118265  0.8716095725539218  0.5014853813896636  1.0000
  C   C15       1.0  0.3654032659180758  0.054283111059127996  0.5045227525254032  1.0000
  C   C16       1.0  0.6250155830126972  0.9421260619436037  0.5001113797210266  1.0000
  C   C17       1.0  0.3747908197625732  0.9285336307308469  0.5041701121946502  1.0000
  C   C18       1.0  0.6145767479356365  0.0674018502999729  0.5015624713055118  1.0000
  C   C19       1.0  0.4946912302923818  0.5074242399315948  0.8114037329833079  1.0000
  C   C20       1.0  0.58372103014932  0.4235705971907604  0.7801043460529655  1.0000
  C   C21       1.0  0.4115217428400513  0.5878646869866699  0.7804104950470644  1.0000
  C   C22       1.0  0.6695602076384333  0.340067801300421  0.8105677744943022  1.0000
  C   C23       1.0  0.7552733168657113  0.25975485438229373  0.7794881180216463  1.0000
  C   C24       1.0  0.498216516326387  0.5050393888550744  0.6840712012638973  1.0000
  C   C25       1.0  0.41328529693407745  0.5867372722934688  0.7153341111056262  1.0000
  C   C26       1.0  0.5850911404734093  0.4223014477674666  0.7150802964027604  1.0000
  C   C27       1.0  0.6714273589878275  0.3372131610285436  0.6839861536487746  1.0000
  C   C28       1.0  0.7560121627556029  0.25819884405854754  0.7143978770216107  1.0000
  C   C29       1.0  0.5090422568251326  0.5119899139778495  0.31209084025179107  1.0000
  C   C30       1.0  0.506110420761125  0.5065095789298653  0.18374246953167975  1.0000
  C   C31       1.0  0.6323544208965615  0.5274155381845489  0.27752908639083523  1.0000
  C   C32       1.0  0.38174699537820805  0.4957622111138632  0.21720532963296077  1.0000
  C   C33       1.0  0.630994685470789  0.5229522155906706  0.21413340695590927  1.0000
  C   C34       1.0  0.384524348703664  0.4976605375167297  0.28028617945950873  1.0000
  C   C35       1.0  0.05627283683845259  0.4254508127150701  0.03949811512212159  1.0000
  C   C36       1.0  0.9354950581656637  0.5706151421874992  0.9580173994337142  1.0000
  C   C37       1.0  0.9115948512520545  0.43380659737121613  0.0366885764646909  1.0000
  C   C38       1.0  0.07882250890175162  0.5624372647682421  0.9613981306720518  1.0000
  C   C39       1.0  0.5144055512523451  0.12855869366362063  0.9942074999671885  1.0000
  C   C40       1.0  0.49385661850331525  0.8732445359400457  0.9964283471283861  1.0000
  C   C41       1.0  0.6337546354158264  0.056147014786851884  0.9978453661972819  1.0000
  C   C42       1.0  0.3739233971372471  0.9433150167623764  0.992006757453538  1.0000
  C   C43       1.0  0.6232733896155054  0.9304653424639535  0.9994267491147821  1.0000
  C   C44       1.0  0.385240384306762  0.06859741667364719  0.9914904686027055  1.0000
  C   C45       1.0  0.3252276565223013  0.6767246701119517  0.6824401181498487  1.0000
  C   C46       1.0  0.3217727254480778  0.6792635883276714  0.8136192390545104  1.0000
  C   C47       1.0  0.8465225025462643  0.1749232353598131  0.8138302725999367  1.0000
  C   C48       1.0  0.8477084643386519  0.17156104823286708  0.6792429981515014  1.0000
  Br  Br1       1.0  0.8604420521152607  0.284023246907111  0.41680585909397644  1.0000
  Br  Br2       1.0  0.18012418364561  0.11560143757994719  0.5101534824762125  1.0000
  Br  Br3       1.0  0.8089409396229712  0.5630292627879498  0.3117734596754431  1.0000
  Br  Br4       1.0  0.13014193296662313  0.31977584267887943  0.09685252417270357  1.0000
  Br  Br5       1.0  0.8191257257716487  0.11783072528785252  0.0036677380975405  1.0000
  N   N1        1.0  0.8594154816069803  0.48428538013860833  0.49669293958042715  1.0000
  N   N2        1.0  0.1451740896102365  0.4993402431844911  0.4996288936959132  1.0000
  N   N3        1.0  0.1387876033940287  0.4897521375694965  0.0023302643107783005  1.0000
  N   N4        1.0  0.8538783734026437  0.5061835656063066  0.9961056974523995  1.0000
  O   O1        1.0  0.6251687661747097  0.6852223978661625  0.48910601972280426  1.0000
  O   O2        1.0  0.39406431170267103  0.6815890537613425  0.5112181415708291  1.0000
  O   O3        1.0  0.3884673142033321  0.4748897866109443  0.5893921954692799  1.0000
  O   O4        1.0  0.6156068049629226  0.5289239337166476  0.5891498296826894  1.0000
  O   O5        1.0  0.3815277500999271  0.3180195807289791  0.48271975565079106  1.0000
  O   O6        1.0  0.601795465384825  0.3139881845114303  0.5161680354185306  1.0000
  O   O7        1.0  0.608883902041775  0.47748566641480744  0.40829630369760384  1.0000
  O   O8        1.0  0.3819468072765416  0.5279843525802762  0.4051265686031796  1.0000
  O   O9        1.0  0.372128885935723  0.6853062243358394  0.989091286967543  1.0000
  O   O10       1.0  0.6017038729834709  0.6848399587099648  0.010274167321135497  1.0000
  O   O11       1.0  0.6085349557288424  0.5344480044982162  0.9050172082085052  1.0000
  O   O12       1.0  0.38095591740317764  0.48176965630424456  0.907390392888537  1.0000
  O   O13       1.0  0.6241952017570043  0.3214559035747371  0.9814945058456102  1.0000
  O   O14       1.0  0.3958598551283572  0.313533464292817  0.0065912469404451985  1.0000
  O   O15       1.0  0.3899164664335828  0.5207784753940456  0.09047096494795429  1.0000
  O   O16       1.0  0.6200607968746256  0.4787483864733488  0.08800025401860267  1.0000
