data_image0
_chemical_formula_structural       Zn4H88C156N4O16
_chemical_formula_sum              "Zn4 H88 C156 N4 O16"
_cell_length_a       15.32343214092578
_cell_length_b       15.371970360295583
_cell_length_c       23.61219058159887
_cell_angle_alpha    109.0241897899885
_cell_angle_beta     93.41511383462097
_cell_angle_gamma    90.00354640157077

_space_group_name_H-M_alt    "P 1"
_space_group_IT_number       1

loop_
  _space_group_symop_operation_xyz
  'x, y, z'

loop_
  _atom_site_type_symbol
  _atom_site_label
  _atom_site_symmetry_multiplicity
  _atom_site_fract_x
  _atom_site_fract_y
  _atom_site_fract_z
  _atom_site_occupancy
  Zn  Zn1       1.0  0.0041520241344486  0.5313497953734583  0.5637906575386256  1.0000
  Zn  Zn2       1.0  0.49580481653359937  0.9675186827381949  0.4361425611649283  1.0000
  Zn  Zn3       1.0  0.9958462527487908  0.4686566413523821  0.43621628635781223  1.0000
  Zn  Zn4       1.0  0.5041896592639574  0.032489193929834126  0.5638734483056497  1.0000
  H   H1        1.0  0.5477983683380075  0.26455256134867244  0.5895973006977897  1.0000
  H   H2        1.0  0.0016146263954866001  0.11085007352623684  0.49294456551334076  1.0000
  H   H3        1.0  0.7298855073142148  0.033332298140315623  0.4852399360655113  1.0000
  H   H4        1.0  0.5356212838477958  0.18142857160225384  0.39345018433409257  1.0000
  H   H5        1.0  0.8861135962853551  0.9924650185668891  0.48646844964522984  1.0000
  H   H6        1.0  0.7630939452619004  0.41935061408978674  0.40702696360067864  1.0000
  H   H7        1.0  0.6426032448055707  0.38666486216896345  0.32751356812776333  1.0000
  H   H8        1.0  0.528804996766901  0.26684728865317436  0.3204840355420728  1.0000
  H   H9        1.0  0.7812596505353752  0.4963334926608311  0.6031616398295938  1.0000
  H   H10       1.0  0.14550276172206367  0.4785654836130036  0.6340478281557724  1.0000
  H   H11       1.0  0.9593455133878024  0.2686048702588123  0.4980272267814315  1.0000
  H   H12       1.0  0.6719519388954679  0.5285594968136635  0.6804157377561567  1.0000
  H   H13       1.0  0.21378957031679136  0.5351104972513598  0.7391817252785348  1.0000
  H   H14       1.0  0.5544896741751444  0.41198773490978624  0.6732190516384196  1.0000
  H   H15       1.0  0.9967743155354752  0.7195734649278689  0.786983294530252  1.0000
  H   H16       1.0  0.9394076051755745  0.6570475812566697  0.6792469522155147  1.0000
  H   H17       1.0  0.18936700365851783  0.8693068052069677  0.8936350000446612  1.0000
  H   H18       1.0  0.32516337928124994  0.5982506373524501  0.861735296574537  1.0000
  H   H19       1.0  0.4677520845770715  0.5384650446613293  0.8891435804063763  1.0000
  H   H20       1.0  0.5276359387322742  0.5900354703228458  0.9952934152588072  1.0000
  H   H21       1.0  0.219704767348766  0.03678497736746773  0.9472055653356506  1.0000
  H   H22       1.0  0.054046048216242995  0.6282346231741297  0.9250190336821761  1.0000
  H   H23       1.0  0.9521507076534445  0.6750126189446917  0.41027780331682356  1.0000
  H   H24       1.0  0.49844053838872066  0.6176769033317128  0.5070647395533356  1.0000
  H   H25       1.0  0.7702592856463466  0.5481318298531335  0.5146533629021875  1.0000
  H   H26       1.0  0.9644358337634954  0.788474132534958  0.6065422206011706  1.0000
  H   H27       1.0  0.6140709833304783  0.5058147625136442  0.5134100510692576  1.0000
  H   H28       1.0  0.7366134764847914  0.012458087717064255  0.5928523752970065  1.0000
  H   H29       1.0  0.8570758655712678  0.05957776426345849  0.6723677891251185  1.0000
  H   H30       1.0  0.9710513110211492  0.9470585978502228  0.6794654213645616  1.0000
  H   H31       1.0  0.7185970409037238  0.8931826970044765  0.39688196554791955  1.0000
  H   H32       1.0  0.35461207324551214  0.8446097444203247  0.3656943550717956  1.0000
  H   H33       1.0  0.54059639204025  0.770433347676608  0.5020914681514486  1.0000
  H   H34       1.0  0.82802908773899  0.8483496862982349  0.31968935989979747  1.0000
  H   H35       1.0  0.2862795890300233  0.7962071100008072  0.2606226691784742  1.0000
  H   H36       1.0  0.9454135052939846  0.738878402386895  0.32675785801109214  1.0000
  H   H37       1.0  0.5031970569582783  0.9331074833840558  0.2129613895512322  1.0000
  H   H38       1.0  0.5605587320643153  0.9782854096360509  0.3206817630615221  1.0000
  H   H39       1.0  0.31037657637913435  0.9755706430592922  0.10653020434217815  1.0000
  H   H40       1.0  0.17466011867434622  0.7365794025934845  0.1380010607276106  1.0000
  H   H41       1.0  0.031964110830550396  0.6494915844217459  0.1105721954228045  1.0000
  H   H42       1.0  0.9722137971277078  0.5948178996420095  0.004392803084442694  1.0000
  H   H43       1.0  0.279939823379486  0.08972841606698267  0.053238166647105296  1.0000
  H   H44       1.0  0.4459456700453686  0.7030364820773085  0.07470958380543646  1.0000
  H   H45       1.0  0.4522187045577724  0.7354570948428573  0.41040386513532223  1.0000
  H   H46       1.0  0.9983824563387669  0.8891491336528432  0.5070599431462598  1.0000
  H   H47       1.0  0.27011350772910714  0.9666709039510833  0.514767900794695  1.0000
  H   H48       1.0  0.4643628044583322  0.8185624427615747  0.6065488597777603  1.0000
  H   H49       1.0  0.11388215484105048  0.007539610603451891  0.5135415205639051  1.0000
  H   H50       1.0  0.23688917605669244  0.5806531753755735  0.5929697250599874  1.0000
  H   H51       1.0  0.35736564262185777  0.6133364411955923  0.6724889389396511  1.0000
  H   H52       1.0  0.4711764890902116  0.7331487263590616  0.6795221231517206  1.0000
  H   H53       1.0  0.21875282406986682  0.5036677394999316  0.396827590409501  1.0000
  H   H54       1.0  0.8544940482892542  0.5214320269037457  0.3659383679287275  1.0000
  H   H55       1.0  0.0406572761541071  0.7313923264416785  0.5019641799110488  1.0000
  H   H56       1.0  0.3280708814648179  0.47145217072461065  0.31957983513139965  1.0000
  H   H57       1.0  0.7862033385479774  0.4648554981518558  0.2608045670198892  1.0000
  H   H58       1.0  0.44552470041533343  0.5880274796997609  0.32678425573188724  1.0000
  H   H59       1.0  0.003220584852641701  0.2803963347490707  0.21300959318929816  1.0000
  H   H60       1.0  0.06058996479188749  0.34294969746579074  0.3207452360978352  1.0000
  H   H61       1.0  0.8106287415973128  0.130693856253437  0.10636959114726352  1.0000
  H   H62       1.0  0.6748383003606478  0.40174935730690453  0.1382713824328334  1.0000
  H   H63       1.0  0.5322529171164732  0.4615309271791189  0.11086111878386624  1.0000
  H   H64       1.0  0.47236311852029184  0.40996610089837293  0.004714854885328632  1.0000
  H   H65       1.0  0.7802844171427096  0.9632180628890196  0.05280073836967608  1.0000
  H   H66       1.0  0.9459530087329782  0.37176171659797314  0.07498258490443284  1.0000
  H   H67       1.0  0.047851511675567296  0.3250080076771411  0.5897095229770245  1.0000
  H   H68       1.0  0.5015630757213287  0.38233189644269316  0.4929514950320667  1.0000
  H   H69       1.0  0.2297447628260727  0.4518711420163298  0.4853424737073271  1.0000
  H   H70       1.0  0.0355673316467886  0.21150399737755524  0.39344728244935123  1.0000
  H   H71       1.0  0.3859339568201889  0.49418987900867956  0.4866019945069199  1.0000
  H   H72       1.0  0.2633974115150011  0.9875348804825773  0.4071485994075489  1.0000
  H   H73       1.0  0.1429378203016043  0.9404082452557674  0.3276351687267863  1.0000
  H   H74       1.0  0.028954080307173096  0.05291253212973147  0.320530867054174  1.0000
  H   H75       1.0  0.2814001035631506  0.10683696436171895  0.603113389843884  1.0000
  H   H76       1.0  0.6453863384646398  0.15538728836163773  0.6343086540871923  1.0000
  H   H77       1.0  0.45940587686506956  0.22957335991558384  0.49791989412917564  1.0000
  H   H78       1.0  0.17196337570508996  0.151677680777162  0.6803096101338967  1.0000
  H   H79       1.0  0.7137227891946479  0.20378803330013534  0.7393805074598276  1.0000
  H   H80       1.0  0.054590449367623285  0.26115382987477886  0.6732307744916995  1.0000
  H   H81       1.0  0.49679996129781046  0.06689840962193477  0.7870477759856984  1.0000
  H   H82       1.0  0.43943830582874455  0.021718676007353114  0.6793262743630706  1.0000
  H   H83       1.0  0.6896126258935735  0.024431011081020363  0.8934753954309117  1.0000
  H   H84       1.0  0.8253460198096575  0.26342356818593515  0.8620023822988543  1.0000
  H   H85       1.0  0.9680408590120064  0.3505063171582776  0.8894330632716958  1.0000
  H   H86       1.0  0.027786618016449407  0.4051775835875516  0.9956107185462174  1.0000
  H   H87       1.0  0.7200461271903078  0.9102745427752693  0.9467701350829999  1.0000
  H   H88       1.0  0.5540521415702386  0.2969615966993046  0.9252979387184654  1.0000
  C   C1        1.0  0.6537087045107127  0.25104930437910866  0.44069678692520853  1.0000
  C   C2        1.0  0.756656430803318  0.1742323160982409  0.49193693563392327  1.0000
  C   C3        1.0  0.663042220621243  0.21034458711918796  0.4922729085503407  1.0000
  C   C4        1.0  0.784917582472083  0.335095819715292  0.49891960282850806  1.0000
  C   C5        1.0  0.8211878362686633  0.24033336286836954  0.4953357218588295  1.0000
  C   C6        1.0  0.7269368548420728  0.3622761658740996  0.5529394076805829  1.0000
  C   C7        1.0  0.6612727304577602  0.2958911063753931  0.5492458116991515  1.0000
  C   C8        1.0  0.5996039719233579  0.31439954730159775  0.5926469118743685  1.0000
  C   C9        1.0  0.7184166405173187  0.3182029010159581  0.44446058350104073  1.0000
  C   C10       1.0  0.9326793984142937  0.12822045937137014  0.49269264726850553  1.0000
  C   C11       1.0  0.7800045452482108  0.08523169402969434  0.4885929469048805  1.0000
  C   C12       1.0  0.5860121955767355  0.23253905911685996  0.39594961608140994  1.0000
  C   C13       1.0  0.8683151895459531  0.062253197270734965  0.4891031757000164  1.0000
  C   C14       1.0  0.7140137389248195  0.3666588098975794  0.40370482676583935  1.0000
  C   C15       1.0  0.6460535719652396  0.3478251696663861  0.3588876670006656  1.0000
  C   C16       1.0  0.8632141184634676  0.39846057513285854  0.5010413071691886  1.0000
  C   C17       1.0  0.6010135968876114  0.13047978556291892  0.4885327378542642  1.0000
  C   C18       1.0  0.5824935503758724  0.2808936828054058  0.35492322536890714  1.0000
  C   C19       1.0  0.7306346532339063  0.4453803346152156  0.6003193603482445  1.0000
  C   C20       1.0  0.11561861084648943  0.5321630437106959  0.6696533466366007  1.0000
  C   C21       1.0  0.9090344806712664  0.21739029304396235  0.4955958345973031  1.0000
  C   C22       1.0  0.6690035512911974  0.46299488828551444  0.6438885232269415  1.0000
  C   C23       1.0  0.15267130535801243  0.5634798816415197  0.7278939031560655  1.0000
  C   C24       1.0  0.6036370601456297  0.3979785262601893  0.6399614128237943  1.0000
  C   C25       1.0  0.0317184570045512  0.6663799312972144  0.7544432431675646  1.0000
  C   C26       1.0  0.999372577288071  0.6316219375728452  0.6950510272701679  1.0000
  C   C27       1.0  0.14772696025869445  0.6668360277627413  0.8316114223686742  1.0000
  C   C28       1.0  0.1809909878442966  0.6940905541347039  0.8824858395275686  1.0000
  C   C29       1.0  0.2177736637419514  0.7251086204759433  0.9437980101831303  1.0000
  C   C30       1.0  0.3069654360134351  0.6832157049141047  0.9526224152623401  1.0000
  C   C31       1.0  0.1589100755102919  0.700246433959073  0.9873835795711589  1.0000
  C   C32       1.0  0.11078542227361511  0.6326906322975103  0.7718376868859522  1.0000
  C   C33       1.0  0.21573444886556098  0.8931998743159539  0.9401606121053735  1.0000
  C   C34       1.0  0.35215433985111844  0.6208285088796541  0.908126382147458  1.0000
  C   C35       1.0  0.43198761574146266  0.5875011349439561  0.9237692200893337  1.0000
  C   C36       1.0  0.4657495329560745  0.6165981675053657  0.983313035820011  1.0000
  C   C37       1.0  0.2329005290533459  0.9869523995314322  0.9704167746944564  1.0000
  C   C38       1.0  0.07976163583732192  0.6516461643199493  0.9717123891058962  1.0000
  C   C39       1.0  0.23282145546791355  0.8301925963180706  0.9701497484105134  1.0000
  C   C40       1.0  0.8462861806162321  0.8106022205436287  0.5592686216339047  1.0000
  C   C41       1.0  0.7433685289550026  0.6823334442002389  0.5080504644524667  1.0000
  C   C42       1.0  0.8369748391779767  0.7182235961327449  0.507722080802836  1.0000
  C   C43       1.0  0.7149742695178317  0.8361499545971042  0.5010417905720885  1.0000
  C   C44       1.0  0.6787618704192154  0.744969693492493  0.5046841232877456  1.0000
  C   C45       1.0  0.7729452470615711  0.8092958689580454  0.4470129053991771  1.0000
  C   C46       1.0  0.8386930541696599  0.7467050926175175  0.4507161213141869  1.0000
  C   C47       1.0  0.9003327125338174  0.7218047134379545  0.407288667656296  1.0000
  C   C48       1.0  0.7814988982116515  0.8738738107670371  0.5554588481431111  1.0000
  C   C49       1.0  0.5673672388788586  0.6353591320048722  0.5073018111970243  1.0000
  C   C50       1.0  0.7200909963099063  0.5966124117556789  0.511323995858824  1.0000
  C   C51       1.0  0.9139656726047034  0.8370149668661283  0.6040384382045618  1.0000
  C   C52       1.0  0.631805389703345  0.5730114712580556  0.5108129995533304  1.0000
  C   C53       1.0  0.7857814683752622  0.9631722127787583  0.5961750329909918  1.0000
  C   C54       1.0  0.8536867770759288  0.9893009595024082  0.6410245538551608  1.0000
  C   C55       1.0  0.6366496239765597  0.8973156384149803  0.4989304161775723  1.0000
  C   C56       1.0  0.8990814157584309  0.6421542961969704  0.5114729738473828  1.0000
  C   C57       1.0  0.9173601026348664  0.9264852400419628  0.6450396075185483  1.0000
  C   C58       1.0  0.7692304911380105  0.8450688675238565  0.3996840474220918  1.0000
  C   C59       1.0  0.3844565797544277  0.8627699955059284  0.33015249557895043  1.0000
  C   C60       1.0  0.5909388903695573  0.7216557910023695  0.5044407707649372  1.0000
  C   C61       1.0  0.8309044295684274  0.8192142110562842  0.3561479926017982  1.0000
  C   C62       1.0  0.34734857614013487  0.8359552330864232  0.2719407598724289  1.0000
  C   C63       1.0  0.8962587458519876  0.7580937891765699  0.36001919727067405  1.0000
  C   C64       1.0  0.46823812739343396  0.9124118901606406  0.2454550098690263  1.0000
  C   C65       1.0  0.5005873310981883  0.9370412676831278  0.3048544749414291  1.0000
  C   C66       1.0  0.35221916256580954  0.8353811100558415  0.16825180106491908  1.0000
  C   C67       1.0  0.3189742265103702  0.8115334809036483  0.11736529855421911  1.0000
  C   C68       1.0  0.2822396483580361  0.7811588360593829  0.056038164839236536  1.0000
  C   C69       1.0  0.1930370727234418  0.7304151615669948  0.04713423907079324  1.0000
  C   C70       1.0  0.3411488690132173  0.7128184796108739  0.012364891169362159  1.0000
  C   C71       1.0  0.3891965455252091  0.8612434362958153  0.22801608066846063  1.0000
  C   C72       1.0  0.2839908564809832  0.953024887942604  0.060010116709598556  1.0000
  C   C73       1.0  0.14771972035487113  0.712672057564589  0.09160299907926375  1.0000
  C   C74       1.0  0.0678122411919446  0.6638172966295098  0.07596440087293395  1.0000
  C   C75       1.0  0.0341420301150706  0.6332906419092694  0.016399880518420704  1.0000
  C   C76       1.0  0.2667067158193177  0.016676177264095305  0.029928506720722208  1.0000
  C   C77       1.0  0.4202586759475508  0.6798134742289149  0.028012315292812773  1.0000
  C   C78       1.0  0.26709333128120966  0.860000359525877  0.02985221781566592  1.0000
  C   C79       1.0  0.34628373617135827  0.7489487623349047  0.5593024285940871  1.0000
  C   C80       1.0  0.24334122017449283  0.8257677748257635  0.5080636191650216  1.0000
  C   C81       1.0  0.33695805861646727  0.7896578949528886  0.5077314341290561  1.0000
  C   C82       1.0  0.21508131060070915  0.6648953169001216  0.5010657069670189  1.0000
  C   C83       1.0  0.17881102309739558  0.7596601247330098  0.5046505716210633  1.0000
  C   C84       1.0  0.27307681205643053  0.6377327170798281  0.44705268197545683  1.0000
  C   C85       1.0  0.3387351515580121  0.7041189587105449  0.4507537029470188  1.0000
  C   C86       1.0  0.4004070851031613  0.6856160212863144  0.40735398908404363  1.0000
  C   C87       1.0  0.2815778162856261  0.6817854359717684  0.5555295236716591  1.0000
  C   C88       1.0  0.0673202626443015  0.8717792233624164  0.5073102611505079  1.0000
  C   C89       1.0  0.21999312938140037  0.9147709784880717  0.5114122829790448  1.0000
  C   C90       1.0  0.4139752158605886  0.7674503375294249  0.6040505619020209  1.0000
  C   C91       1.0  0.13168250765593112  0.9377496517394234  0.5109036155801691  1.0000
  C   C92       1.0  0.2859767890851613  0.6333334545415282  0.596289932440506  1.0000
  C   C93       1.0  0.3539304282109085  0.6521699489305988  0.6411113589035298  1.0000
  C   C94       1.0  0.13678582607126089  0.6015251278145328  0.4989219252221206  1.0000
  C   C95       1.0  0.39899340004077294  0.8695191480584582  0.5114777083968891  1.0000
  C   C96       1.0  0.4174945477335683  0.7190962163085929  0.6450795331948955  1.0000
  C   C97       1.0  0.2693770009518559  0.5546322041230809  0.39967433773664873  1.0000
  C   C98       1.0  0.8843797346992659  0.46782780689856907  0.33033790259595014  1.0000
  C   C99       1.0  0.0909670295269649  0.7826057621978818  0.504395808159302  1.0000
  C   C100      1.0  0.3310126820209831  0.5370198240492384  0.35610804913795857  1.0000
  C   C101      1.0  0.8473214883168225  0.43649371034300083  0.27209519576747004  1.0000
  C   C102      1.0  0.3963758821896803  0.6020411055016551  0.36004011772278943  1.0000
  C   C103      1.0  0.9682808555287395  0.33359814421051937  0.24555036151617332  1.0000
  C   C104      1.0  0.0006237762614774005  0.3683731665595785  0.30494381596760434  1.0000
  C   C105      1.0  0.8522717577472889  0.3331418300004573  0.16838542313965385  1.0000
  C   C106      1.0  0.8190040433761252  0.30590786575701395  0.11751234435921995  1.0000
  C   C107      1.0  0.7822227256734067  0.2748889428732326  0.05620207674770233  1.0000
  C   C108      1.0  0.6930335816618297  0.31678424958315077  0.04738145954894432  1.0000
  C   C109      1.0  0.8410903366985847  0.2997470654155236  0.012617252550889219  1.0000
  C   C110      1.0  0.8892126671949825  0.3672841272580031  0.2281567315738117  1.0000
  C   C111      1.0  0.7842605900811747  0.10680209203930956  0.0598425266185174  1.0000
  C   C112      1.0  0.6478480572343344  0.37916765340647623  0.09187920424732005  1.0000
  C   C113      1.0  0.5680179778474467  0.41249830223517137  0.07623620032523354  1.0000
  C   C114      1.0  0.5342514740834542  0.3834007810628818  0.016691207034973822  1.0000
  C   C115      1.0  0.7670886572938753  0.013050219478664382  0.029589104830769493  1.0000
  C   C116      1.0  0.920237389260919  0.34835210519172927  0.028289788984970716  1.0000
  C   C117      1.0  0.7671782400736048  0.1698019090819898  0.0298486384553271  1.0000
  C   C118      1.0  0.15372196069509408  0.1893887377851584  0.4407220307491785  1.0000
  C   C119      1.0  0.2566315282715408  0.3176664304551196  0.4919374159040475  1.0000
  C   C120      1.0  0.16302399498388098  0.2817729625703861  0.49226661332970423  1.0000
  C   C121      1.0  0.28502521899229544  0.16385709411019894  0.4989602330714221  1.0000
  C   C122      1.0  0.32124082650503977  0.25503527628169553  0.49531165142612116  1.0000
  C   C123      1.0  0.22705401339730003  0.19071789386859436  0.5529841178881085  1.0000
  C   C124      1.0  0.16130359101951092  0.25330333033629415  0.5492741448319123  1.0000
  C   C125      1.0  0.09966180630509308  0.27820930918601056  0.5926989378061338  1.0000
  C   C126      1.0  0.21850663693918185  0.12612299070294597  0.4445397671821355  1.0000
  C   C127      1.0  0.4326369572411508  0.3646447764419491  0.49270396239817427  1.0000
  C   C128      1.0  0.2799123721371685  0.4033911990082544  0.48867110131871544  1.0000
  C   C129      1.0  0.08603945325415198  0.16296607071192418  0.39595468190252353  1.0000
  C   C130      1.0  0.36819946572548895  0.42699120055552  0.48919152789746806  1.0000
  C   C131      1.0  0.21422489785665283  0.03681881243220897  0.40382675883417113  1.0000
  C   C132      1.0  0.14632822292689693  0.010686245590854057  0.3589802979369665  1.0000
  C   C133      1.0  0.3633492498964229  0.10270105770724312  0.5010861658292144  1.0000
  C   C134      1.0  0.1009179892789263  0.3578398986569411  0.4885078043755798  1.0000
  C   C135      1.0  0.08264323562722349  0.07349075534615687  0.35495743186501033  1.0000
  C   C136      1.0  0.23077257101323312  0.15495391825884025  0.6003172134061003  1.0000
  C   C137      1.0  0.6155431742251662  0.1372271456032833  0.6698526963762106  1.0000
  C   C138      1.0  0.4090646161430556  0.2783456311217733  0.49555973274128473  1.0000
  C   C139      1.0  0.16909389976872546  0.18081478608864632  0.6438519189273678  1.0000
  C   C140      1.0  0.6526524468248879  0.16404275061204038  0.7280632032304271  1.0000
  C   C141      1.0  0.10374473426327309  0.2419321913678446  0.6399721347601075  1.0000
  C   C142      1.0  0.5317561821990893  0.0875992623939722  0.7545553044169112  1.0000
  C   C143      1.0  0.49940838338620347  0.06296372861821452  0.6951537894434595  1.0000
  C   C144      1.0  0.6477868182156783  0.16462585672594804  0.8317473637452013  1.0000
  C   C145      1.0  0.6810284407219811  0.18847822881284065  0.8826372630413177  1.0000
  C   C146      1.0  0.7177606223771562  0.21884292589690815  0.9439647608718716  1.0000
  C   C147      1.0  0.8069666326213891  0.2695782285832349  0.9528678622469969  1.0000
  C   C148      1.0  0.6588533892305009  0.28718269766279997  0.9876388267655473  1.0000
  C   C149      1.0  0.6108043359661293  0.13876280998434265  0.7719899760234414  1.0000
  C   C150      1.0  0.7160022371664778  0.04697603222509632  0.9399926630744276  1.0000
  C   C151      1.0  0.8522839757112451  0.2873234388176159  0.9084012231390448  1.0000
  C   C152      1.0  0.932188050259775  0.3361850630655638  0.9240405104145427  1.0000
  C   C153      1.0  0.9658570119882057  0.3667090678339805  0.9836051315090304  1.0000
  C   C154      1.0  0.7332837395133184  0.9833272843352532  0.9700761439521914  1.0000
  C   C155      1.0  0.5797455679489402  0.3201875396085472  0.971992619045999  1.0000
  C   C156      1.0  0.732905068214933  0.13999679563308823  0.9701502227352352  1.0000
  N   N1        1.0  0.04058684751981188  0.5659464697745448  0.6533935287117032  1.0000
  N   N2        1.0  0.4594714440654285  0.9128429991529784  0.34646482931441375  1.0000
  N   N3        1.0  0.9594146552554432  0.4340512704528762  0.34659981076531926  1.0000
  N   N4        1.0  0.5405256312458488  0.08715789301167133  0.6535413760656044  1.0000
  O   O1        1.0  0.8970255817312276  0.4464914269656007  0.5522691390380745  1.0000
  O   O2        1.0  0.5831748380939601  0.12081829351345863  0.5380242084717822  1.0000
  O   O3        1.0  0.8926990000240947  0.3933468636374187  0.4510608938442646  1.0000
  O   O4        1.0  0.5765867215025438  0.07534018212290046  0.4369796790642653  1.0000
  O   O5        1.0  0.6028076597807581  0.894092760667611  0.44772945829196703  1.0000
  O   O6        1.0  0.9169943534259203  0.5829912470116979  0.4619878323017448  1.0000
  O   O7        1.0  0.6071692045872297  0.9421506812278152  0.5489381008795959  1.0000
  O   O8        1.0  0.9234754372644288  0.638568392261753  0.5630246512194931  1.0000
  O   O9        1.0  0.10296226689014529  0.5535180180505817  0.44770487203869186  1.0000
  O   O10       1.0  0.4168323457559779  0.8791779619601313  0.4619939185403725  1.0000
  O   O11       1.0  0.10731853302471708  0.6066219433306513  0.5489157423733462  1.0000
  O   O12       1.0  0.423415702473349  0.9246657770610793  0.5630399234816182  1.0000
  O   O13       1.0  0.3971951790543429  0.10592769866911311  0.5522943669317613  1.0000
  O   O14       1.0  0.0829852339983717  0.41698513285624744  0.5379971735232163  1.0000
  O   O15       1.0  0.3928239321795033  0.05786430241705883  0.4510850668609336  1.0000
  O   O16       1.0  0.07653746303115128  0.36143958112427294  0.4369596050592934  1.0000
