data_image0
_chemical_formula_structural       Zn4H8C16S24N16
_chemical_formula_sum              "Zn4 H8 C16 S24 N16"
_cell_length_a       7.538866346172386
_cell_length_b       11.516313839476847
_cell_length_c       12.671042517252962
_cell_angle_alpha    90.00071319839688
_cell_angle_beta     90.00015041365444
_cell_angle_gamma    90.0007581287769

_space_group_name_H-M_alt    "P 1"
_space_group_IT_number       1

loop_
  _space_group_symop_operation_xyz
  'x, y, z'

loop_
  _atom_site_type_symbol
  _atom_site_label
  _atom_site_symmetry_multiplicity
  _atom_site_fract_x
  _atom_site_fract_y
  _atom_site_fract_z
  _atom_site_occupancy
  Zn  Zn1       1.0  0.7499911493521624  0.848582870350377  0.49999741242289264  1.0000
  Zn  Zn2       1.0  0.2500003756420668  0.6514248072793407  1.5367933769999994e-06  1.0000
  Zn  Zn3       1.0  0.24999914577193036  0.15140709367003777  0.5000025302165767  1.0000
  Zn  Zn4       1.0  0.7500061924636298  0.34857573572978134  1.829626369999996e-07  1.0000
  H   H1        1.0  0.12136190844925919  0.8598978090773173  0.3448834869180785  1.0000
  H   H2        1.0  0.6213561869244871  0.640106144500038  0.1551152696727698  1.0000
  H   H3        1.0  0.37864931524763523  0.8598827989575709  0.6551138751650639  1.0000
  H   H4        1.0  0.878653751258426  0.6401223656232985  0.8448811220224498  1.0000
  H   H5        1.0  0.8786416513847257  0.1401017067271653  0.6551251369973272  1.0000
  H   H6        1.0  0.3786500257537496  0.359889029557891  0.8448799378020764  1.0000
  H   H7        1.0  0.6213502650809345  0.14010803337770739  0.3448773862748098  1.0000
  H   H8        1.0  0.12135511446123101  0.3598840968072139  0.15511803152402587  1.0000
  C   C1        1.0  0.20313015131022635  0.6174171122297096  0.24381234338785154  1.0000
  C   C2        1.0  0.7031509975357224  0.8825753961773514  0.2561944275973431  1.0000
  C   C3        1.0  0.2968576220874937  0.6174201294825606  0.7561909326480957  1.0000
  C   C4        1.0  0.7968585145076615  0.8825756402808979  0.7438134124312725  1.0000
  C   C5        1.0  0.7968654499000111  0.382596296853194  0.7561931237966918  1.0000
  C   C6        1.0  0.29686715334356256  0.1174258562824022  0.743803147524261  1.0000
  C   C7        1.0  0.7031260411747694  0.3826132511738577  0.24380822103311314  1.0000
  C   C8        1.0  0.2031344336840775  0.11742821711231238  0.2561904762946909  1.0000
  C   C9        1.0  0.0727549390036302  0.6946376799687783  0.4078607509206265  1.0000
  C   C10       1.0  0.5727562335065244  0.8053745341254838  0.09213793294474469  1.0000
  C   C11       1.0  0.42725030587625673  0.6946274477459226  0.5921402495388719  1.0000
  C   C12       1.0  0.9272477455009067  0.8053824812993183  0.9078595556457785  1.0000
  C   C13       1.0  0.9272552531145807  0.3053618358270497  0.5921423485924251  1.0000
  C   C14       1.0  0.4272420204871352  0.19462758657042656  0.907858063764827  1.0000
  C   C15       1.0  0.572734683415753  0.30536251626747907  0.4078620606997632  1.0000
  C   C16       1.0  0.07275581436374522  0.19462224444130527  0.0921395978868063  1.0000
  S   S1        1.0  0.9908564019982009  0.7224378535526838  0.5298286724336805  1.0000
  S   S2        1.0  0.4908345132071473  0.7775813120188456  0.9701633360143944  1.0000
  S   S3        1.0  0.5091538663567334  0.7224188550519839  0.4701733938889348  1.0000
  S   S4        1.0  0.009171074665516699  0.7775893325184879  0.0298291407424784  1.0000
  S   S5        1.0  0.009148484277368103  0.27756079389737914  0.4701760054725383  1.0000
  S   S6        1.0  0.5091544556039693  0.22242428196493336  0.029831871506999594  1.0000
  S   S7        1.0  0.4908523462341279  0.27756763567190745  0.5298218135363584  1.0000
  S   S8        1.0  0.9908417704847209  0.22242233992976415  0.9701700128367037  1.0000
  S   S9        1.0  0.11746308263621331  0.5568026485509137  0.3602806452385821  1.0000
  S   S10       1.0  0.6174647168828217  0.9432134277446734  0.13970863517679527  1.0000
  S   S11       1.0  0.3825141857080823  0.5568083033257166  0.6397385122556685  1.0000
  S   S12       1.0  0.8825194862519936  0.9432099199995746  0.8602738532167676  1.0000
  S   S13       1.0  0.8825418036386948  0.4431977355123846  0.6397161406670904  1.0000
  S   S14       1.0  0.38253486352653  0.056784351289977095  0.8602873615089948  1.0000
  S   S15       1.0  0.6174588655323988  0.443187739033874  0.3602732684212526  1.0000
  S   S16       1.0  0.1174774413088215  0.056793937384149694  0.1397260895069437  1.0000
  S   S17       1.0  0.2894258481827591  0.5306633700964409  0.14602753582636296  1.0000
  S   S18       1.0  0.7894396047278249  0.9693515973503323  0.3539825212940143  1.0000
  S   S19       1.0  0.21056283212880803  0.5306617541505004  0.853980274502234  1.0000
  S   S20       1.0  0.7105610419982258  0.9693471581921284  0.6460184170360108  1.0000
  S   S21       1.0  0.7105737323528699  0.46934569730996134  0.8539739853311588  1.0000
  S   S22       1.0  0.2105692608800567  0.0306435767512809  0.6460174213890895  1.0000
  S   S23       1.0  0.7894248102552339  0.469344708230551  0.14602519263671346  1.0000
  S   S24       1.0  0.28943323256881104  0.030648884190135593  0.3539831040432162  1.0000
  N   N1        1.0  0.1213808841348083  0.770973443969069  0.3334024718949564  1.0000
  N   N2        1.0  0.6213796579828852  0.7290348514599357  0.16659628475243687  1.0000
  N   N3        1.0  0.37862457055564386  0.7709611945132764  0.6665938753381795  1.0000
  N   N4        1.0  0.8786227846442998  0.7290422331745315  0.833403489400858  1.0000
  N   N5        1.0  0.8786240022022511  0.22903041350820527  0.6666061520462137  1.0000
  N   N6        1.0  0.3786212488861764  0.270962059273863  0.8334036579346175  1.0000
  N   N7        1.0  0.6213763362352722  0.22903137445172211  0.3333910725042414  1.0000
  N   N8        1.0  0.1213807752116125  0.27096162423269016  0.16659566412678117  1.0000
  N   N9        1.0  0.1946698134668381  0.7316697704793851  0.2424453036045833  1.0000
  N   N10       1.0  0.6946830608859571  0.7683374259686602  0.2575622439923606  1.0000
  N   N11       1.0  0.30533352374281003  0.73165638157257  0.7575505950619359  1.0000
  N   N12       1.0  0.8053214993097341  0.7683559601236208  0.7424419247773741  1.0000
  N   N13       1.0  0.8053244610390351  0.2683201935690533  0.757556217439962  1.0000
  N   N14       1.0  0.3053337634673383  0.23165774813543288  0.7424329634904296  1.0000
  N   N15       1.0  0.6946634035474588  0.2683196891690045  0.2424532935084471  1.0000
  N   N16       1.0  0.19467410181280087  0.23164963393185894  0.2575595963573463  1.0000
