data_image0
_chemical_formula_structural       Cd2P4H36C28N4O12
_chemical_formula_sum              "Cd2 P4 H36 C28 N4 O12"
_cell_length_a       5.779883470016577
_cell_length_b       10.386018020000577
_cell_length_c       14.654707702223481
_cell_angle_alpha    96.97956761286781
_cell_angle_beta     90.00012426167856
_cell_angle_gamma    90.00022889817195

_space_group_name_H-M_alt    "P 1"
_space_group_IT_number       1

loop_
  _space_group_symop_operation_xyz
  'x, y, z'

loop_
  _atom_site_type_symbol
  _atom_site_label
  _atom_site_symmetry_multiplicity
  _atom_site_fract_x
  _atom_site_fract_y
  _atom_site_fract_z
  _atom_site_occupancy
  Cd  Cd1       1.0  0.9999959393684534  2.3175859100000014e-07  1.1328716880000002e-06  1.0000
  Cd  Cd2       1.0  0.5000010752007854  9.450070237008578e-07  0.5000009781872805  1.0000
  P   P1        1.0  0.5036783810154333  0.8361786331687712  0.9384336262720439  1.0000
  P   P2        1.0  0.0036873308903651  0.16382045225672925  0.5615668873327666  1.0000
  P   P3        1.0  0.49631526452340313  0.163818760175559  0.06156695763523601  1.0000
  P   P4        1.0  0.9963132352162064  0.8361808167857204  0.4384333357274102  1.0000
  H   H1        1.0  0.5050410265919538  0.8497749990157853  0.035814224273565294  1.0000
  H   H2        1.0  0.005043442713365201  0.1502224314171769  0.4641854672742483  1.0000
  H   H3        1.0  0.49495261894877973  0.15022239868442708  0.9641870423765442  1.0000
  H   H4        1.0  0.9949571233876568  0.8497769019583005  0.5358152775827278  1.0000
  H   H5        1.0  0.839108408369647  0.6404486964837303  0.9730298477385306  1.0000
  H   H6        1.0  0.3391168494331893  0.3595521535413866  0.5269697368144151  1.0000
  H   H7        1.0  0.16088696732092703  0.3595516112528471  0.026971660331540196  1.0000
  H   H8        1.0  0.6608871769487905  0.6404500724489708  0.4730285184921286  1.0000
  H   H9        1.0  0.8484345990233068  0.4001228012046596  0.9292729940885921  1.0000
  H   H10       1.0  0.3484363634096894  0.5998790237350632  0.5707239498595413  1.0000
  H   H11       1.0  0.1515676972219495  0.5998784678398579  0.0707272289725012  1.0000
  H   H12       1.0  0.6515659328354318  0.4001241679087712  0.4292737031762712  1.0000
  H   H13       1.0  0.5371698823192332  0.29191524890283205  0.8326944626779423  1.0000
  H   H14       1.0  0.0371712282971046  0.7080838775173104  0.6672999417788361  1.0000
  H   H15       1.0  0.46283414404982887  0.7080821400980425  0.1673054384920221  1.0000
  H   H16       1.0  0.9628276076687426  0.2919193097664987  0.33269702851230687  1.0000
  H   H17       1.0  0.2114456441982071  0.42198645682253755  0.7791836582641523  1.0000
  H   H18       1.0  0.7114474762337649  0.5780111469375412  0.7208107701897006  1.0000
  H   H19       1.0  0.7885583821652488  0.5780099578110194  0.2208154796899677  1.0000
  H   H20       1.0  0.28855135973025636  0.4219910746907231  0.2791868023712567  1.0000
  H   H21       1.0  0.18983893531631676  0.6587306931764871  0.8298807067567608  1.0000
  H   H22       1.0  0.6898439714057079  0.3412659149667475  0.6701177147535377  1.0000
  H   H23       1.0  0.8101616307753685  0.34126669582024494  0.17011919441137022  1.0000
  H   H24       1.0  0.3101600549744461  0.6587353453680719  0.3298811428228206  1.0000
  H   H25       1.0  0.0054082701003253  0.7564950987266739  0.2140591741999103  1.0000
  H   H26       1.0  0.5054236191459438  0.2435081657375021  0.285943048811049  1.0000
  H   H27       1.0  0.9945871055866037  0.24350327769881372  0.7859435384097821  1.0000
  H   H28       1.0  0.4945804072379972  0.75649310330909  0.7140571742509679  1.0000
  H   H29       1.0  0.7777066283858217  0.9192482627230658  0.2846735710229212  1.0000
  H   H30       1.0  0.2777123647970896  0.08075469254038838  0.2153302259607841  1.0000
  H   H31       1.0  0.22229047743600464  0.0807501049927168  0.7153277761020362  1.0000
  H   H32       1.0  0.7222864711764744  0.9192465895676419  0.7846720453269498  1.0000
  H   H33       1.0  0.7557269457268205  0.997762836389654  0.1814623090692109  1.0000
  H   H34       1.0  0.25573441382555023  0.002240066238101699  0.3185414645904032  1.0000
  H   H35       1.0  0.2442701600875594  0.0022335913032734  0.8185388771097237  1.0000
  H   H36       1.0  0.7442678824272092  0.9977621815296233  0.6814602044293566  1.0000
  C   C1        1.0  0.5134598689176356  0.6640707488833542  0.9036819161030821  1.0000
  C   C2        1.0  0.013470251255775199  0.33592737688984897  0.5963164791811837  1.0000
  C   C3        1.0  0.4865337766323563  0.33592955449525863  0.09631890922323551  1.0000
  C   C4        1.0  0.9865355052686127  0.6640758191140178  0.4036818565992847  1.0000
  C   C5        1.0  0.700935782013836  0.5917142437634836  0.9313097246342253  1.0000
  C   C6        1.0  0.200943073932379  0.40828432226868455  0.5686875041136972  1.0000
  C   C7        1.0  0.2990630539447139  0.4082850808981461  0.06868965473617551  1.0000
  C   C8        1.0  0.7990592223053666  0.5917159680526324  0.43131127298872945  1.0000
  C   C9        1.0  0.707584154195814  0.4580192279651385  0.9063447723913498  1.0000
  C   C10       1.0  0.20759081757429948  0.5419803414230272  0.5936552748558697  1.0000
  C   C11       1.0  0.2924164119014918  0.5419791353989112  0.09365589199261849  1.0000
  C   C12       1.0  0.7924132088171519  0.45802190634676515  0.40634639416480683  1.0000
  C   C13       1.0  0.5308328154614088  0.3966423337249053  0.8521418207045387  1.0000
  C   C14       1.0  0.03083675941219609  0.6033577475335291  0.6478526575016872  1.0000
  C   C15       1.0  0.4691729410499904  0.6033569865891265  0.14785687592671343  1.0000
  C   C16       1.0  0.9691672669716098  0.39664544411238  0.3521449955350421  1.0000
  C   C17       1.0  0.3468777294661649  0.4686072729745872  0.8231631680592174  1.0000
  C   C18       1.0  0.8468807134494796  0.5313916207803189  0.6768308018470535  1.0000
  C   C19       1.0  0.6531262968991172  0.5313901073145146  0.1768353676250882  1.0000
  C   C20       1.0  0.15312158279184732  0.4686115621517428  0.3231654857031074  1.0000
  C   C21       1.0  0.33578117576622196  0.6021206401600665  0.8502011359178285  1.0000
  C   C22       1.0  0.8357865083488036  0.39787727443531656  0.6497954727122348  1.0000
  C   C23       1.0  0.664219390332903  0.3978786888595209  0.14979892619631843  1.0000
  C   C24       1.0  0.16421578789442753  0.6021259128526353  0.35020149758075564  1.0000
  C   C25       1.0  0.9486748512449309  0.8324972930793066  0.1722985231788812  1.0000
  C   C26       1.0  0.4486852918347068  0.16750510597543666  0.3277060575099995  1.0000
  C   C27       1.0  0.051322254590076  0.16750206642733895  0.8277063181332311  1.0000
  C   C28       1.0  0.5513135441275665  0.832495188697621  0.6722934023334162  1.0000
  N   N1        1.0  0.8129545668880952  0.9226630277137956  0.2158596140026319  1.0000
  N   N2        1.0  0.31295892709754713  0.07733805451471908  0.28414132846840806  1.0000
  N   N3        1.0  0.18704253891878855  0.0773324212559316  0.7841401262176292  1.0000
  N   N4        1.0  0.6870399088741196  0.9226632232374286  0.7158602600765036  1.0000
  O   O1        1.0  0.7251829810905761  0.8981114985851875  0.9060816901474099  1.0000
  O   O2        1.0  0.22518993213763855  0.101889078605204  0.5939177735061635  1.0000
  O   O3        1.0  0.2748089343151818  0.10188686912438531  0.09391965697479782  1.0000
  O   O4        1.0  0.7748106339708231  0.8981121947931284  0.4060831322968426  1.0000
  O   O5        1.0  0.27792653390141453  0.8916563139708701  0.905363773543023  1.0000
  O   O6        1.0  0.7779363953745316  0.10834246693595866  0.5946383161092611  1.0000
  O   O7        1.0  0.7220653815025171  0.10834108808315789  0.0946381758489991  1.0000
  O   O8        1.0  0.2220641707432662  0.8916607508411188  0.4053634333825897  1.0000
  O   O9        1.0  0.0149412468791468  0.8268428966584761  0.09006676267602388  1.0000
  O   O10       1.0  0.5149619610957856  0.17315649317279738  0.4099324175908876  1.0000
  O   O11       1.0  0.9850541287964842  0.17315449233203847  0.9099331384893505  1.0000
  O   O12       1.0  0.48504725569489426  0.8268428315012671  0.5900669617850199  1.0000
