data_image0
_chemical_formula_structural       Zn8H112C136N16O24
_chemical_formula_sum              "Zn8 H112 C136 N16 O24"
_cell_length_a       7.489085247709229
_cell_length_b       22.468490230992813
_cell_length_c       24.35287992285771
_cell_angle_alpha    89.99918371420083
_cell_angle_beta     96.98587322027267
_cell_angle_gamma    90.00079263727139

_space_group_name_H-M_alt    "P 1"
_space_group_IT_number       1

loop_
  _space_group_symop_operation_xyz
  'x, y, z'

loop_
  _atom_site_type_symbol
  _atom_site_label
  _atom_site_symmetry_multiplicity
  _atom_site_fract_x
  _atom_site_fract_y
  _atom_site_fract_z
  _atom_site_occupancy
  Zn  Zn1       1.0  0.2951864060780878  0.29252925356529147  0.603292763325882  1.0000
  Zn  Zn2       1.0  0.7048185632119083  0.7925334890284649  0.8967034937758311  1.0000
  Zn  Zn3       1.0  0.7048233729903969  0.7074670990236456  0.3967091066457867  1.0000
  Zn  Zn4       1.0  0.2951667802592794  0.20746731423242445  0.10329180118105089  1.0000
  Zn  Zn5       1.0  0.1733845627351798  0.1640427223237637  0.8461724522581731  1.0000
  Zn  Zn6       1.0  0.8266079113482903  0.6640428071483768  0.6538336798929905  1.0000
  Zn  Zn7       1.0  0.8266091697264883  0.8359545203489844  0.15383133937459087  1.0000
  Zn  Zn8       1.0  0.17338847973105934  0.3359588862134474  0.34616938024072386  1.0000
  H   H1        1.0  0.8998803365232387  0.41485896569367503  0.6450980530639682  1.0000
  H   H2        1.0  0.10013315057034329  0.9148601799163953  0.8548956666514086  1.0000
  H   H3        1.0  0.10011174861539016  0.585137386900442  0.3548978804077833  1.0000
  H   H4        1.0  0.8998904873547457  0.08514729958093169  0.1450824427875901  1.0000
  H   H5        1.0  0.12428202035078326  0.4522111244040872  0.7223429879366846  1.0000
  H   H6        1.0  0.8757263149149919  0.9522117499306618  0.7776549990811004  1.0000
  H   H7        1.0  0.8757021687988953  0.5477910140196443  0.27765719589525156  1.0000
  H   H8        1.0  0.12432811888359648  0.0478006254028926  0.22232045512308923  1.0000
  H   H9        1.0  0.07045499325089107  0.4358851657305324  0.8196728568525413  1.0000
  H   H10       1.0  0.9295486224452887  0.9358870946827978  0.6803231300122404  1.0000
  H   H11       1.0  0.9295400049777593  0.5641178628411581  0.18032892422920097  1.0000
  H   H12       1.0  0.07050039889580258  0.06412661584927551  0.3196513199590001  1.0000
  H   H13       1.0  0.7918894876134388  0.3839388001526841  0.8405315755720864  1.0000
  H   H14       1.0  0.20810930734239008  0.8839395192117865  0.6594595864132555  1.0000
  H   H15       1.0  0.20811606509823113  0.616056217262468  0.1594652236897076  1.0000
  H   H16       1.0  0.791921294811459  0.11605994903301564  0.3405249182934469  1.0000
  H   H17       1.0  0.5664340768344402  0.3495622952921664  0.7628377037964711  1.0000
  H   H18       1.0  0.43356749654738985  0.8495646311567668  0.7371544104671982  1.0000
  H   H19       1.0  0.4335823325796326  0.6504291615842134  0.23716192632673475  1.0000
  H   H20       1.0  0.5664400309405974  0.15043172160813612  0.26282397592309786  1.0000
  H   H21       1.0  0.05480112200557128  0.32205089056849806  0.49359484323731795  1.0000
  H   H22       1.0  0.9452212367674446  0.8220502335036387  0.006398268713390094  1.0000
  H   H23       1.0  0.9452088797808144  0.6779503577216133  0.5064127834374119  1.0000
  H   H24       1.0  0.054772082367243485  0.17795368526661554  0.9935948318065823  1.0000
  H   H25       1.0  0.9294764578086898  0.41191510803891157  0.4463822428198581  1.0000
  H   H26       1.0  0.07053881724644374  0.9119137127754585  0.05361849378184048  1.0000
  H   H27       1.0  0.07054707523268179  0.5880888106692906  0.5536278944018774  1.0000
  H   H28       1.0  0.929445228843413  0.08809154115061088  0.9463779892755467  1.0000
  H   H29       1.0  0.15614934261415667  0.5132434606743104  0.5907318923170023  1.0000
  H   H30       1.0  0.843838844698929  0.013248595851656799  0.9092748270462322  1.0000
  H   H31       1.0  0.8438703615613575  0.48675600730759777  0.4092834540915644  1.0000
  H   H32       1.0  0.1561290116336309  0.9867557679155112  0.09071987692652778  1.0000
  H   H33       1.0  0.27411526823784266  0.4180857146258958  0.6309600129359935  1.0000
  H   H34       1.0  0.7258784471453409  0.9180926988894454  0.8690403883885549  1.0000
  H   H35       1.0  0.7258855080612105  0.5819088575914506  0.3690522299087107  1.0000
  H   H36       1.0  0.274110931834592  0.0819081043796572  0.13095504294444987  1.0000
  H   H37       1.0  0.8995890291908635  0.08304320960566972  0.6973716174668495  1.0000
  H   H38       1.0  0.10042492872855038  0.5830425609529684  0.8026432768745974  1.0000
  H   H39       1.0  0.10041538520013658  0.9169584837819827  0.3026304818336882  1.0000
  H   H40       1.0  0.8995904059561536  0.4169546817479031  0.19736329807312808  1.0000
  H   H41       1.0  0.6622614193603055  0.0428794152201846  0.6257128127049824  1.0000
  H   H42       1.0  0.33773892878732426  0.5428778605367911  0.874301734169009  1.0000
  H   H43       1.0  0.3377376461892183  0.9571240584211793  0.3742899271405236  1.0000
  H   H44       1.0  0.6622749493317669  0.4571149315059628  0.12570191698026886  1.0000
  H   H45       1.0  0.37676989550964624  0.003199862187877  0.6541364191643665  1.0000
  H   H46       1.0  0.6232329233728106  0.5032000566084207  0.8458762640543325  1.0000
  H   H47       1.0  0.6232358004101853  0.9968000509441166  0.34586408082482467  1.0000
  H   H48       1.0  0.3767700342712814  0.4967873946309922  0.1541229115053966  1.0000
  H   H49       1.0  0.3287317709566722  0.0031157593973745  0.753303211674762  1.0000
  H   H50       1.0  0.6712829923917097  0.5031199294615901  0.7467057696876862  1.0000
  H   H51       1.0  0.6712698099199627  0.9968828185388862  0.24669509597049444  1.0000
  H   H52       1.0  0.3287131599606709  0.49687108232167526  0.25329112258189207  1.0000
  H   H53       1.0  0.5692349953056632  0.043240844508119394  0.8244007827046714  1.0000
  H   H54       1.0  0.4307678976023722  0.5432423367575012  0.6756097388623202  1.0000
  H   H55       1.0  0.43076122075339635  0.9567555080753963  0.1755977543139977  1.0000
  H   H56       1.0  0.5692270527226666  0.45675001019801453  0.3243908086968972  1.0000
  H   H57       1.0  0.4145007122420734  0.17047455780142684  0.954673130312457  1.0000
  H   H58       1.0  0.585489357621789  0.6704872262267402  0.5453340687102538  1.0000
  H   H59       1.0  0.5855102846733045  0.8295160089348103  0.04532549559090168  1.0000
  H   H60       1.0  0.41449518156848336  0.3295255937536012  0.4546751613517656  1.0000
  H   H61       1.0  0.5569782191332989  0.10162784909627484  0.025338606324027096  1.0000
  H   H62       1.0  0.4429800684973414  0.6016385813819555  0.47467040556730206  1.0000
  H   H63       1.0  0.4429980737142855  0.8983631625832377  0.9746658279676479  1.0000
  H   H64       1.0  0.5569736112940546  0.3983737934520306  0.5253398349227822  1.0000
  H   H65       1.0  0.34662494696608087  0.9561928070877531  0.918271556001052  1.0000
  H   H66       1.0  0.6533567279119409  0.4562012302637228  0.5817279420909429  1.0000
  H   H67       1.0  0.6533726141142253  0.0437955342793117  0.08172702652348109  1.0000
  H   H68       1.0  0.3466153389331764  0.5438075841545  0.41827142137820766  1.0000
  H   H69       1.0  0.21337542752740998  0.032687256126628504  0.8523549166689717  1.0000
  H   H70       1.0  0.7866254750190788  0.5326917034435327  0.6476491045477883  1.0000
  H   H71       1.0  0.7866275460186287  0.967300195109651  0.1476446700858958  1.0000
  H   H72       1.0  0.21338965305569957  0.4673117702463543  0.3523521248265168  1.0000
  H   H73       1.0  0.9350834224006801  0.23130784809559654  0.5776298025354264  1.0000
  H   H74       1.0  0.0649045466371092  0.7313189865648867  0.9223683200236079  1.0000
  H   H75       1.0  0.0648994534574854  0.7686982959287222  0.42237115820449117  1.0000
  H   H76       1.0  0.935085007231265  0.2686800363987984  0.07763163446635699  1.0000
  H   H77       1.0  0.67999964252067  0.20136405791639334  0.627263952680124  1.0000
  H   H78       1.0  0.3199872653943956  0.7013771330468118  0.8727357559828944  1.0000
  H   H79       1.0  0.3199846103109606  0.7986420861043941  0.37273787590876845  1.0000
  H   H80       1.0  0.6800091097005989  0.29862010964082236  0.1272668929818792  1.0000
  H   H81       1.0  0.9862078741690251  0.267474851403982  0.7777279553784309  1.0000
  H   H82       1.0  0.013770449861645795  0.7674674786015103  0.7222636210918052  1.0000
  H   H83       1.0  0.013801920867336994  0.7325250617236847  0.22227432576740813  1.0000
  H   H84       1.0  0.9862285519482511  0.23252887396867553  0.27773747401508325  1.0000
  H   H85       1.0  0.22075708871346214  0.2992762997865555  0.7199675773605774  1.0000
  H   H86       1.0  0.7792278573082282  0.7992715500140193  0.7800254513092779  1.0000
  H   H87       1.0  0.7792526426821522  0.7007218330827171  0.28003305901520986  1.0000
  H   H88       1.0  0.2207670612953194  0.2007252476250869  0.21997427383347204  1.0000
  H   H89       1.0  0.8121998386515299  0.23190563198790676  0.8220720170357507  1.0000
  H   H90       1.0  0.18779489407303626  0.7319059729872207  0.6779267370377651  1.0000
  H   H91       1.0  0.18778712038825057  0.7680987317642901  0.1779303136761712  1.0000
  H   H92       1.0  0.8122055007276427  0.2680966105245445  0.32207563707655845  1.0000
  H   H93       1.0  0.5581919134562199  0.20536661329204964  0.8715946656889669  1.0000
  H   H94       1.0  0.4418113639748141  0.7053662138943083  0.6284075974111971  1.0000
  H   H95       1.0  0.4418031642986405  0.7946373053994333  0.12840917136320937  1.0000
  H   H96       1.0  0.5581904554557297  0.2946336991981298  0.37159687815321957  1.0000
  H   H97       1.0  0.23834035591444547  0.1572676300511446  0.7275578556750303  1.0000
  H   H98       1.0  0.7616559662964304  0.657262471485865  0.7724501374272064  1.0000
  H   H99       1.0  0.7616668920074047  0.8427380689233602  0.272448035275545  1.0000
  H   H100      1.0  0.2383485275466198  0.3427361064119836  0.2275540178673481  1.0000
  H   H101      1.0  0.47371416168707725  0.18669961396460624  0.6692539099232278  1.0000
  H   H102      1.0  0.5262695602807098  0.6866982613755469  0.8307471141380699  1.0000
  H   H103      1.0  0.5262822453271809  0.813303859665005  0.3307495613951373  1.0000
  H   H104      1.0  0.4737295687694781  0.31329942637275116  0.16925727052203135  1.0000
  H   H105      1.0  0.46750028133985916  0.2389159160356016  0.5434956498199809  1.0000
  H   H106      1.0  0.532505472440988  0.7389215534855539  0.956503385359511  1.0000
  H   H107      1.0  0.5324918673983206  0.7610799914782403  0.45650192843492476  1.0000
  H   H108      1.0  0.4674974854915347  0.2610814751245059  0.04349579010852269  1.0000
  H   H109      1.0  0.1459904057007293  0.2615522223149115  0.8885236351582575  1.0000
  H   H110      1.0  0.8540095875917616  0.7615517510437116  0.6114781958261871  1.0000
  H   H111      1.0  0.8540153538268881  0.7384476908045486  0.11147850961146587  1.0000
  H   H112      1.0  0.1460003347096119  0.23845083246526855  0.3885273748650064  1.0000
  C   C1        1.0  0.5903492107901229  0.35686676056290884  0.6527764674637239  1.0000
  C   C2        1.0  0.4096567640236372  0.856869959264678  0.8472181643458967  1.0000
  C   C3        1.0  0.4096512474535243  0.6431269215816685  0.34722755148352746  1.0000
  C   C4        1.0  0.5903575848557805  0.143133514578814  0.15276291646681975  1.0000
  C   C5        1.0  0.7198614444351674  0.38057901582502046  0.6995390927617321  1.0000
  C   C6        1.0  0.28012928231608203  0.8805805610071078  0.8004551255825234  1.0000
  C   C7        1.0  0.28012673245149233  0.6194195620744622  0.3004599938818728  1.0000
  C   C8        1.0  0.7198971413186396  0.119424693138221  0.19952554195779013  1.0000
  C   C9        1.0  0.8769273313359063  0.4095320102946616  0.6881547887052901  1.0000
  C   C10       1.0  0.12307116159176695  0.909531323632173  0.811838493690068  1.0000
  C   C11       1.0  0.12306480154152408  0.5904661225609759  0.3118423783413816  1.0000
  C   C12       1.0  0.8769632536248791  0.09047793615484784  0.18814039060322327  1.0000
  C   C13       1.0  0.0023047647787634924  0.4295608342065833  0.7311900142169917  1.0000
  C   C14       1.0  0.997689120943775  0.9295585956341059  0.7688036729424467  1.0000
  C   C15       1.0  0.997676654546751  0.5704426394305457  0.2688080227140047  1.0000
  C   C16       1.0  0.002358602875894199  0.07045199941169498  0.2311719651738358  1.0000
  C   C17       1.0  0.9718125368270801  0.4203421677851154  0.7861123332511679  1.0000
  C   C18       1.0  0.028187717451039894  0.9203394411153244  0.7138812785414286  1.0000
  C   C19       1.0  0.028178266898088094  0.5796621960129115  0.21388519949525175  1.0000
  C   C20       1.0  0.9718532328643262  0.0796738243325947  0.28609289868020227  1.0000
  C   C21       1.0  0.8153445179840302  0.3914603836398243  0.7977410603448049  1.0000
  C   C22       1.0  0.18465330573543778  0.8914603349284179  0.7022524348051178  1.0000
  C   C23       1.0  0.18465438845539234  0.6085381942878314  0.20225756757817237  1.0000
  C   C24       1.0  0.8153838792888948  0.10854669950973769  0.2977285963943643  1.0000
  C   C25       1.0  0.6891313606359188  0.37208529295574516  0.7546149819662844  1.0000
  C   C26       1.0  0.31086441631680367  0.8720847133351698  0.7453791070272686  1.0000
  C   C27       1.0  0.31086752989331495  0.6279128399073102  0.24538323476418358  1.0000
  C   C28       1.0  0.6891539521034884  0.1279151999778065  0.2546016989873933  1.0000
  C   C29       1.0  0.07257512068462549  0.36523658500400547  0.5141560580414435  1.0000
  C   C30       1.0  0.9274366083093993  0.865236906905189  0.9858403018620407  1.0000
  C   C31       1.0  0.9274282665262703  0.6347624379118101  0.4858542197188028  1.0000
  C   C32       1.0  0.07255408406094688  0.13476523157611808  0.014154352531541297  1.0000
  C   C33       1.0  0.0015343357705007036  0.41642430990526696  0.4878386737268626  1.0000
  C   C34       1.0  0.9984650596605319  0.916423808457928  0.012163931448817791  1.0000
  C   C35       1.0  0.9984772496816916  0.5835751580696212  0.5121751663440647  1.0000
  C   C36       1.0  0.001510899460441788  0.08357877504846563  0.9878318676769238  1.0000
  C   C37       1.0  0.03267691634626149  0.47199889915616927  0.5137511436894826  1.0000
  C   C38       1.0  0.9673136214516231  0.9719993978605856  0.9862537866520993  1.0000
  C   C39       1.0  0.9673400179968465  0.5280014589714099  0.48626205582075943  1.0000
  C   C40       1.0  0.03263551379569659  0.028003630643119896  0.013743159272578997  1.0000
  C   C41       1.0  0.13027061994586825  0.47235966339431457  0.5668714556144465  1.0000
  C   C42       1.0  0.8697253119215913  0.9723618686988121  0.9331336523046188  1.0000
  C   C43       1.0  0.8697396680260994  0.527638914432977  0.43314357258842756  1.0000
  C   C44       1.0  0.13024661166591758  0.027639379596166698  0.06686201045286569  1.0000
  C   C45       1.0  0.19598405076013845  0.4192327893338188  0.5901834945006426  1.0000
  C   C46       1.0  0.8040124133123637  0.9192381680743155  0.9098173954413225  1.0000
  C   C47       1.0  0.8040114244115272  0.5807640081955654  0.4098306224718157  1.0000
  C   C48       1.0  0.19597152136498147  0.0807617450609115  0.09017620928155877  1.0000
  C   C49       1.0  0.8855235086338096  0.09123201480383608  0.8080781216083537  1.0000
  C   C50       1.0  0.11447043180229596  0.5912277976231124  0.6919322937100318  1.0000
  C   C51       1.0  0.11447948106964387  0.9087692335290142  0.19192187626043017  1.0000
  C   C52       1.0  0.8855327327566297  0.4087698901333994  0.3080722273261927  1.0000
  C   C53       1.0  0.74771870239757  0.0651746506895918  0.7649373419878742  1.0000
  C   C54       1.0  0.25228637971070356  0.5651752964298  0.7350737892050956  1.0000
  C   C55       1.0  0.25228705708885  0.9348230370911994  0.23506480279494466  1.0000
  C   C56       1.0  0.7477194592442373  0.4348201659966549  0.2649304115665032  1.0000
  C   C57       1.0  0.7744020540667191  0.0650215953714053  0.7089527171356308  1.0000
  C   C58       1.0  0.2256072168094576  0.5650172493797854  0.7910626642161133  1.0000
  C   C59       1.0  0.22559704327021987  0.934980988128217  0.2910508451053815  1.0000
  C   C60       1.0  0.7744054274619143  0.434975987706018  0.20894381983777777  1.0000
  C   C61       1.0  0.6414802305865165  0.042634244272150616  0.6692757429500559  1.0000
  C   C62       1.0  0.35853354430662426  0.5426343471449684  0.8307388501925103  1.0000
  C   C63       1.0  0.35852282271648045  0.9573665589804321  0.3307258997018819  1.0000
  C   C64       1.0  0.6414857304092224  0.45735933504106197  0.1692653939814903  1.0000
  C   C65       1.0  0.4810816110308663  0.0204146367501892  0.6852145019341335  1.0000
  C   C66       1.0  0.5189338565545184  0.5204201725582893  0.8147959205401207  1.0000
  C   C67       1.0  0.5189267433912761  0.9795834961226222  0.31478526659267897  1.0000
  C   C68       1.0  0.4810784696614546  0.4795721744547449  0.18520233961632468  1.0000
  C   C69       1.0  0.45394893593245894  0.0203349220761098  0.7410094143103618  1.0000
  C   C70       1.0  0.5460597868787073  0.5203365473639678  0.759000370636734  1.0000
  C   C71       1.0  0.5460553353163035  0.979665436136557  0.25898898424182437  1.0000
  C   C72       1.0  0.4539404169090844  0.47965579962757243  0.24099706919623287  1.0000
  C   C73       1.0  0.5874080257365789  0.042376011731008106  0.7806840142596839  1.0000
  C   C74       1.0  0.4125961485135078  0.5423776363348551  0.7193257405566982  1.0000
  C   C75       1.0  0.4125922735947467  0.957623456325436  0.21931589270216986  1.0000
  C   C76       1.0  0.5874028532634199  0.45761693596439573  0.28067535456067105  1.0000
  C   C77       1.0  0.4055856805659487  0.12247091927587657  0.94788377570039  1.0000
  C   C78       1.0  0.5943890326794019  0.6224804084128338  0.5521202443425323  1.0000
  C   C79       1.0  0.594402527968029  0.8775192023304257  0.052116133383265185  1.0000
  C   C80       1.0  0.4055913596308186  0.37752929610712044  0.44788597099576316  1.0000
  C   C81       1.0  0.48551992650509124  0.0832207191905781  0.9874673251278306  1.0000
  C   C82       1.0  0.5144481116073578  0.5832313420565214  0.5125410871198355  1.0000
  C   C83       1.0  0.5144578069402285  0.9167711826083218  0.012539621788121699  1.0000
  C   C84       1.0  0.4855148889264667  0.4167792525445009  0.48746700442085694  1.0000
  C   C85       1.0  0.46314157846887827  0.021741303303088  0.9788178077153088  1.0000
  C   C86       1.0  0.5368307338760799  0.5217510053803169  0.521187032485578  1.0000
  C   C87       1.0  0.5368628357160999  0.9782492633912412  0.021184291650726494  1.0000
  C   C88       1.0  0.4631160927941521  0.47825825399093697  0.4788196911682404  1.0000
  C   C89       1.0  0.3662560178553916  0.0031790280938465997  0.9286285914970945  1.0000
  C   C90       1.0  0.6337209559848984  0.5031892908978648  0.571375826679798  1.0000
  C   C91       1.0  0.6337323655835119  0.9968102033425056  0.07137584073828408  1.0000
  C   C92       1.0  0.36625258327008936  0.496820858701213  0.4286268718012777  1.0000
  C   C93       1.0  0.2919619325168199  0.0455264510405655  0.8911759835123544  1.0000
  C   C94       1.0  0.7080247122892016  0.5455342518592872  0.60882903126285  1.0000
  C   C95       1.0  0.7080371168340986  0.9544610001655587  0.10882634523233747  1.0000
  C   C96       1.0  0.2919595405424289  0.4544718921615002  0.39117279732604254  1.0000
  C   C97       1.0  0.9397274114863519  0.23881313837909351  0.622051490954014  1.0000
  C   C98       1.0  0.06027423948609818  0.7388249408021963  0.8779457642425467  1.0000
  C   C99       1.0  0.060268900091507795  0.7611890000661321  0.3779495132014077  1.0000
  C   C100      1.0  0.939734162691323  0.2611758624676028  0.12205523785394937  1.0000
  C   C101      1.0  0.7989648229293419  0.221105576286817  0.6504778696466927  1.0000
  C   C102      1.0  0.20102541085302053  0.7211122324439361  0.8495192303826754  1.0000
  C   C103      1.0  0.20102207248616819  0.7788978973424536  0.34952281628992665  1.0000
  C   C104      1.0  0.7989775787515399  0.2788836750761305  0.15048076751754988  1.0000
  C   C105      1.0  0.8112338067783965  0.2306532002766559  0.7078157490350278  1.0000
  C   C106      1.0  0.1887594549867017  0.7306589043253101  0.7921809183174844  1.0000
  C   C107      1.0  0.18876655621839686  0.7693493832413837  0.2921858026890262  1.0000
  C   C108      1.0  0.8112395151593927  0.26934501440259606  0.20781935435459073  1.0000
  C   C109      1.0  0.9669008939215612  0.2587994437850655  0.7333852631532806  1.0000
  C   C110      1.0  0.0330812557721956  0.7587977065330805  0.7666094301619211  1.0000
  C   C111      1.0  0.03310492917263729  0.7411982439831917  0.2666185264100847  1.0000
  C   C112      1.0  0.9669110361411837  0.24120131642667536  0.23339184883085545  1.0000
  C   C113      1.0  0.0996787847753779  0.276283072569349  0.7018286334450393  1.0000
  C   C114      1.0  0.9003053893361822  0.776281269222153  0.7981667218837458  1.0000
  C   C115      1.0  0.9003297445187285  0.7237123898625841  0.2981756582439701  1.0000
  C   C116      1.0  0.09969236276525346  0.22371775373287767  0.20183679491952936  1.0000
  C   C117      1.0  0.6650776418739637  0.21316011920340833  0.7400342012746606  1.0000
  C   C118      1.0  0.3349285668892961  0.7131647658728612  0.7599668273744056  1.0000
  C   C119      1.0  0.33493223266388833  0.7868393488408574  0.2599701358494713  1.0000
  C   C120      1.0  0.6650744864631405  0.2868387077861172  0.24003481526181494  1.0000
  C   C121      1.0  0.6864109666568297  0.21782848153836917  0.7980086019020403  1.0000
  C   C122      1.0  0.3135859986541404  0.7178254682610828  0.7019920536202732  1.0000
  C   C123      1.0  0.31358278184688243  0.7821763272827059  0.20199560088132523  1.0000
  C   C124      1.0  0.6864156935608464  0.2821744448564304  0.29800913238306487  1.0000
  C   C125      1.0  0.544294069954361  0.20219582107227302  0.8265690676396956  1.0000
  C   C126      1.0  0.45569559063581977  0.7021943458392954  0.6734315446242646  1.0000
  C   C127      1.0  0.4556915598260288  0.797808987741782  0.17343362880603047  1.0000
  C   C128      1.0  0.5443115300045348  0.2978077926184284  0.3265710567862072  1.0000
  C   C129      1.0  0.36661933407078345  0.1754728329712094  0.7459767191340133  1.0000
  C   C130      1.0  0.6333787371457333  0.6754678147554358  0.7540241147778983  1.0000
  C   C131      1.0  0.6333877071175207  0.8245324209763182  0.25402382628243453  1.0000
  C   C132      1.0  0.3666177015817737  0.3245307631228514  0.24598017895955585  1.0000
  C   C133      1.0  0.5005670495848163  0.1911615789207488  0.7140840685237247  1.0000
  C   C134      1.0  0.49943027343723384  0.6911616847588178  0.7859169463899389  1.0000
  C   C135      1.0  0.4994360514569819  0.8088410045933545  0.28591880770314043  1.0000
  C   C136      1.0  0.5005701689868756  0.3088364480662236  0.21408666133598328  1.0000
  N   N1        1.0  0.17037789990978064  0.3663183820566119  0.56434517462462  1.0000
  N   N2        1.0  0.8296352143616514  0.8663212545097212  0.9356512179864892  1.0000
  N   N3        1.0  0.8296362486660056  0.6336810859488368  0.43566546680264645  1.0000
  N   N4        1.0  0.17035009734684786  0.13368177409609674  0.0643432545670279  1.0000
  N   N5        1.0  0.3088247929549296  0.10439018438398762  0.9007097121253053  1.0000
  N   N6        1.0  0.6911679399680039  0.6043984999646809  0.599291456455738  1.0000
  N   N7        1.0  0.6911781329099895  0.8955986020648937  0.09928864103629557  1.0000
  N   N8        1.0  0.3088270742367597  0.3956085342134657  0.4007107357975599  1.0000
  N   N9        1.0  0.08812246303032367  0.2659801508490319  0.6470091778363026  1.0000
  N   N10       1.0  0.9118761424575013  0.7659860112384893  0.8529872099851588  1.0000
  N   N11       1.0  0.9118820308209619  0.7340188721165432  0.3529949774556299  1.0000
  N   N12       1.0  0.08812554974923609  0.2340134568112973  0.14701397602080138  1.0000
  N   N13       1.0  0.38587348298862867  0.18195041061514416  0.8013906156844752  1.0000
  N   N14       1.0  0.6141222173779183  0.6819510545304441  0.6986121069914758  1.0000
  N   N15       1.0  0.6141229080742434  0.8180503926112123  0.19861244445447565  1.0000
  N   N16       1.0  0.38588368527545913  0.318049303628527  0.3013937385318427  1.0000
  O   O1        1.0  0.4478867025237958  0.33111470522497644  0.6669510664964517  1.0000
  O   O2        1.0  0.5521155487944541  0.831117441396913  0.8330417216032586  1.0000
  O   O3        1.0  0.5521137716382822  0.6688798670519276  0.33305336364069393  1.0000
  O   O4        1.0  0.4479071891248906  0.16888514226484116  0.16694785586961555  1.0000
  O   O5        1.0  0.6238175404711298  0.36234243898567087  0.6037213894710262  1.0000
  O   O6        1.0  0.376198069187552  0.8623447273500274  0.8962739072845378  1.0000
  O   O7        1.0  0.3761802273179881  0.6376450122051762  0.3962825385954928  1.0000
  O   O8        1.0  0.6237825548676025  0.1376494000214663  0.10370356994474857  1.0000
  O   O9        1.0  0.37714015015041713  0.2262840640743207  0.5664745144871758  1.0000
  O   O10       1.0  0.6228542631316427  0.7262869102690247  0.9335214273886976  1.0000
  O   O11       1.0  0.6228533597087349  0.7737145138455191  0.4335235204058561  1.0000
  O   O12       1.0  0.3771527621464727  0.2737178986139029  0.06647870683524099  1.0000
  O   O13       1.0  0.02247140750339579  0.11654073277327366  0.7896502347846164  1.0000
  O   O14       1.0  0.9775315411729578  0.6165366328949915  0.7103601553242953  1.0000
  O   O15       1.0  0.9775342088984612  0.8834587353066681  0.21034820923151892  1.0000
  O   O16       1.0  0.022478412858141894  0.38346194499812464  0.2896462377807509  1.0000
  O   O17       1.0  0.8631391027341733  0.08852022399131698  0.8582288670875684  1.0000
  O   O18       1.0  0.13684522561523235  0.588512432504352  0.6417787947961812  1.0000
  O   O19       1.0  0.13684505466105884  0.9114845848450771  0.14177049433838107  1.0000
  O   O20       1.0  0.8631471140369411  0.4114883707169242  0.35822371777151557  1.0000
  O   O21       1.0  0.062407685453486295  0.2297725068758325  0.8764931196002408  1.0000
  O   O22       1.0  0.9375965594082626  0.7297740140027712  0.623510500937229  1.0000
  O   O23       1.0  0.9375929478022227  0.7702260709793125  0.12351542246467766  1.0000
  O   O24       1.0  0.06241877540828969  0.2702303497818193  0.3764960739685818  1.0000
