data_image0
_chemical_formula_structural       In4H44C36I8
_chemical_formula_sum              "In4 H44 C36 I8"
_cell_length_a       7.62790346503337
_cell_length_b       8.127995952671293
_cell_length_c       19.536283847207326
_cell_angle_alpha    90.0002860285817
_cell_angle_beta     90.00043217969696
_cell_angle_gamma    90.67057053891855

_space_group_name_H-M_alt    "P 1"
_space_group_IT_number       1

loop_
  _space_group_symop_operation_xyz
  'x, y, z'

loop_
  _atom_site_type_symbol
  _atom_site_label
  _atom_site_symmetry_multiplicity
  _atom_site_fract_x
  _atom_site_fract_y
  _atom_site_fract_z
  _atom_site_occupancy
  In  In1       1.0  0.2559413326192299  0.4443464324874924  0.45707902274851625  1.0000
  In  In2       1.0  0.24411396732739377  0.5555918529420155  0.9570605795387338  1.0000
  In  In3       1.0  0.7440320214342647  0.5556446882087228  0.5429124707229533  1.0000
  In  In4       1.0  0.755842774209384  0.4444203040758552  0.042936032607016714  1.0000
  H   H1        1.0  0.07819067366538947  0.9402194570152037  0.30671590415414585  1.0000
  H   H2        1.0  0.42182140863635437  0.0597921090051798  0.8067078585184576  1.0000
  H   H3        1.0  0.9218005534779506  0.059748157480179004  0.6932832673446045  1.0000
  H   H4        1.0  0.5781751613557303  0.9402443782326912  0.19329182491888736  1.0000
  H   H5        1.0  0.3257647930512205  0.3304088526789855  0.19224257991453442  1.0000
  H   H6        1.0  0.17418863524112985  0.6695941544837892  0.6922399963513755  1.0000
  H   H7        1.0  0.6742294083427751  0.6695759684621619  0.8077576153404991  1.0000
  H   H8        1.0  0.8257644006097564  0.33042910361901795  0.30776941250059764  1.0000
  H   H9        1.0  0.9792465995393227  0.15721164947310484  0.4499992020699325  1.0000
  H   H10       1.0  0.5207613101059964  0.8427780699253732  0.9499949252295397  1.0000
  H   H11       1.0  0.02073565333623859  0.8427658726154162  0.5500020168963149  1.0000
  H   H12       1.0  0.47926336761614147  0.1572225334915629  0.05000168701003101  1.0000
  H   H13       1.0  0.18888984094840566  0.08140163122575218  0.4719591082478021  1.0000
  H   H14       1.0  0.31112230231980925  0.9185925393885271  0.9719573955346165  1.0000
  H   H15       1.0  0.8110978063060655  0.9185832360853966  0.5280390395249202  1.0000
  H   H16       1.0  0.6889061315781149  0.08139942376178061  0.028039216702900705  1.0000
  H   H17       1.0  0.04020087255895529  0.9564702625445849  0.42485194098499335  1.0000
  H   H18       1.0  0.45982375132690106  0.04353547178079251  0.9248649691677503  1.0000
  H   H19       1.0  0.9597736413077198  0.04351346679770531  0.5751503017111332  1.0000
  H   H20       1.0  0.5402167571301958  0.9564699423324401  0.07514290419811691  1.0000
  H   H21       1.0  0.20790058131729686  0.10088384912717882  0.13150750866697086  1.0000
  H   H22       1.0  0.2921094647163541  0.8991216076735001  0.6315057023479158  1.0000
  H   H23       1.0  0.792102896557438  0.8991058287958184  0.8684896153982536  1.0000
  H   H24       1.0  0.7079102719702063  0.1008937971008663  0.36849500484206044  1.0000
  H   H25       1.0  0.026803754180029702  0.9992455046586247  0.1707452907894336  1.0000
  H   H26       1.0  0.47320170572965736  0.000756837513762302  0.6707495809043779  1.0000
  H   H27       1.0  0.973198412861059  0.0007441824941523024  0.8292508095376336  1.0000
  H   H28       1.0  0.5268139474450776  0.9992512128328243  0.3292588042938008  1.0000
  H   H29       1.0  0.23864564073132039  0.9135098356430121  0.17636431422739926  1.0000
  H   H30       1.0  0.2613641334998817  0.08650609001058743  0.6763568481001344  1.0000
  H   H31       1.0  0.7613578371673029  0.0864798422975781  0.8236353691781917  1.0000
  H   H32       1.0  0.7386558298153219  0.9135203880221355  0.3236397641556082  1.0000
  H   H33       1.0  0.42611420668053757  0.5923805779273225  0.34504275742363444  1.0000
  H   H34       1.0  0.07388419745644369  0.4076328470561422  0.8450404155724274  1.0000
  H   H35       1.0  0.5738563495191258  0.4076019487532108  0.6549584615291837  1.0000
  H   H36       1.0  0.9261076089658216  0.5923630658521831  0.15496080342511934  1.0000
  H   H37       1.0  0.3074769886547841  0.6279111818785452  0.2684778927272049  1.0000
  H   H38       1.0  0.19251864980170544  0.3720999692856141  0.7684748270285128  1.0000
  H   H39       1.0  0.6924934164384027  0.3720639626144974  0.7315238380867799  1.0000
  H   H40       1.0  0.8074894154180541  0.6279216704635289  0.23152843948956564  1.0000
  H   H41       1.0  0.5138362187379784  0.5301387704702806  0.265246697847374  1.0000
  H   H42       1.0  0.9861651145703404  0.4698878081845522  0.765244198639124  1.0000
  H   H43       1.0  0.4861396562945187  0.46984741034441413  0.7347524736446119  1.0000
  H   H44       1.0  0.013845849306214597  0.5301473470866896  0.2347559966871771  1.0000
  C   C1        1.0  0.24302751919515939  0.3067365928089387  0.36262027951580234  1.0000
  C   C2        1.0  0.25698341354986803  0.6932966765656375  0.8626190166255441  1.0000
  C   C3        1.0  0.7569624223093141  0.6932322612884294  0.6373788919821025  1.0000
  C   C4        1.0  0.743030222407391  0.30674092100805683  0.13738783299204022  1.0000
  C   C5        1.0  0.16116239508998825  0.1505792647411752  0.3653871713862743  1.0000
  C   C6        1.0  0.33884195963947406  0.8494503977604497  0.8653854186294723  1.0000
  C   C7        1.0  0.8388158497433621  0.849394593951729  0.6346125119662815  1.0000
  C   C8        1.0  0.6611779785335373  0.15057484993877782  0.1346158004377997  1.0000
  C   C9        1.0  0.14239270114302363  0.061073457912776526  0.3047358134201233  1.0000
  C   C10       1.0  0.3576143275736428  0.9389491911303268  0.8047296734329167  1.0000
  C   C11       1.0  0.8575894005782699  0.9388966819530682  0.6952607987265368  1.0000
  C   C12       1.0  0.6424111812412858  0.06109201432308003  0.1952648913723607  1.0000
  C   C13       1.0  0.19797055882531817  0.125023999846583  0.24160624319523555  1.0000
  C   C14       1.0  0.3020229396142184  0.8749707963343597  0.7416008405645942  1.0000
  C   C15       1.0  0.8020092738503022  0.8749633836122827  0.758391392699693  1.0000
  C   C16       1.0  0.6979899658907344  0.12503112058963953  0.25839730726232096  1.0000
  C   C17       1.0  0.27920474402858275  0.27969067836033196  0.2408269327417827  1.0000
  C   C18       1.0  0.22078004263811826  0.7203275487228142  0.7408245839467895  1.0000
  C   C19       1.0  0.720786709772085  0.7202880094145315  0.7591712150311878  1.0000
  C   C20       1.0  0.7792161999749181  0.27969294378898013  0.2591781706840309  1.0000
  C   C21       1.0  0.3041121150202314  0.37307989193074326  0.30072432196813287  1.0000
  C   C22       1.0  0.1958893940800479  0.6269328960335161  0.800725310817363  1.0000
  C   C23       1.0  0.6958766415814283  0.626895123225765  0.6992743376654504  1.0000
  C   C24       1.0  0.8041172848364652  0.37308506191323704  0.19928614558445196  1.0000
  C   C25       1.0  0.08920314086958567  0.0828347402303322  0.4312106747121121  1.0000
  C   C26       1.0  0.41081386260663066  0.9171772886754328  0.9312102891811666  1.0000
  C   C27       1.0  0.9107819351023634  0.9171526062812633  0.5687869611908241  1.0000
  C   C28       1.0  0.5892175959266976  0.08283434186152762  0.06878888241916313  1.0000
  C   C29       1.0  0.16678833004091587  0.03014694191094951  0.1766633593789777  1.0000
  C   C30       1.0  0.3332147949347472  0.9698641125936336  0.6766582241856014  1.0000
  C   C31       1.0  0.8332085685329742  0.9698415518344704  0.8233342765431504  1.0000
  C   C32       1.0  0.6667972027142426  0.03015749941339151  0.32334043552581454  1.0000
  C   C33       1.0  0.3920966562600512  0.5392746839074078  0.2950085765934816  1.0000
  C   C34       1.0  0.1079100901395051  0.46074290997736267  0.7950084827554705  1.0000
  C   C35       1.0  0.6078830001525617  0.46070408701991283  0.7049926423699093  1.0000
  C   C36       1.0  0.8920939922567044  0.5392762967659694  0.20499683122659465  1.0000
  I   I1        1.0  0.10151608880524782  0.38883914946647746  0.5861733995506385  1.0000
  I   I2        1.0  0.3985017576309743  0.6111397817329944  0.0861746668488834  1.0000
  I   I3        1.0  0.8985001447078174  0.6111332109689657  0.4138227007823403  1.0000
  I   I4        1.0  0.6015574045236463  0.3888802674010848  0.9138265522738822  1.0000
  I   I5        1.0  0.4172820623478656  0.7489183640527913  0.48603797041774743  1.0000
  I   I6        1.0  0.08272633572526188  0.2510723367046382  0.9860302537293749  1.0000
  I   I7        1.0  0.5827147606465031  0.2510664385795281  0.5139571061605466  1.0000
  I   I8        1.0  0.9173134411006599  0.7489613849950133  0.013970453507930403  1.0000
