data_image0
_chemical_formula_structural       Cd4H16C16N32
_chemical_formula_sum              "Cd4 H16 C16 N32"
_cell_length_a       8.67950380516486
_cell_length_b       8.80005718300036
_cell_length_c       10.136219302664927
_cell_angle_alpha    90.00000021657169
_cell_angle_beta     91.37484080061232
_cell_angle_gamma    90.00003286326385

_space_group_name_H-M_alt    "P 1"
_space_group_IT_number       1

loop_
  _space_group_symop_operation_xyz
  'x, y, z'

loop_
  _atom_site_type_symbol
  _atom_site_label
  _atom_site_symmetry_multiplicity
  _atom_site_fract_x
  _atom_site_fract_y
  _atom_site_fract_z
  _atom_site_occupancy
  Cd  Cd1       1.0  0.0060769371002323  0.6845160093093199  0.6300792773501129  1.0000
  Cd  Cd2       1.0  0.49392286843406213  0.18451598786599993  0.8699210552651593  1.0000
  Cd  Cd3       1.0  0.9939231876784123  0.31548345944416667  0.36992097151171066  1.0000
  Cd  Cd4       1.0  0.5060761038762251  0.8154834808871599  0.1300791721730121  1.0000
  H   H1        1.0  0.3399204744228115  0.17043762584739136  0.4113388223022412  1.0000
  H   H2        1.0  0.1600796856894746  0.670437734405411  0.08866081153779248  1.0000
  H   H3        1.0  0.6600808028241971  0.829561842906422  0.5886614479832344  1.0000
  H   H4        1.0  0.8399192839879177  0.3295617343477489  0.9113384292877311  1.0000
  H   H5        1.0  0.4826800575833443  0.16132636206002354  0.5288138484760694  1.0000
  H   H6        1.0  0.017318584639944797  0.6613252546796601  0.9711874489587371  1.0000
  H   H7        1.0  0.5173189173601714  0.8386742430493898  0.4711873655747638  1.0000
  H   H8        1.0  0.9826815401387067  0.3386742140738264  0.028812799903086293  1.0000
  H   H9        1.0  0.22521612305008182  0.47021746427782324  0.8417525750153485  1.0000
  H   H10       1.0  0.2747826960336682  0.9702176380626997  0.6582477407281286  1.0000
  H   H11       1.0  0.774784009627581  0.5297831408319238  0.1582506336844389  1.0000
  H   H12       1.0  0.7252174208466258  0.029782967047033503  0.3417495482957448  1.0000
  H   H13       1.0  0.8263246101885288  0.8967103178234694  0.8936916097472147  1.0000
  H   H14       1.0  0.6736755156430833  0.39671125038957195  0.6063082685935796  1.0000
  H   H15       1.0  0.17367551459012276  0.10328915093001712  0.1063086391146086  1.0000
  H   H16       1.0  0.32632460913589517  0.6032893547201682  0.393691980268258  1.0000
  C   C1        1.0  0.29548794386415983  0.2806357611133308  0.582704720172579  1.0000
  C   C2        1.0  0.20451191752424336  0.7806358959664976  0.9172956139740974  1.0000
  C   C3        1.0  0.7045133386489653  0.7193648439967434  0.417297523338206  1.0000
  C   C4        1.0  0.7954870495205881  0.2193647091429085  0.08270264023878579  1.0000
  C   C5        1.0  0.22969571559675472  0.4172200824899761  0.7450904507736738  1.0000
  C   C6        1.0  0.27030422515887403  0.9172191177103741  0.7549098855490824  1.0000
  C   C7        1.0  0.7703067193840737  0.5827782499079176  0.2549118141607423  1.0000
  C   C8        1.0  0.7296947418852966  0.08277921468653197  0.24508836866378655  1.0000
  C   C9        1.0  0.6370848512816139  0.5893236252864681  0.9040843114914237  1.0000
  C   C10       1.0  0.8629139434625445  0.08932352868134791  0.5959155405283667  1.0000
  C   C11       1.0  0.36291411839577853  0.4106758434666915  0.0959149293341  1.0000
  C   C12       1.0  0.13708502884807672  0.9106770764280655  0.40408468690981875  1.0000
  C   C13       1.0  0.776037915615639  0.7843394428450311  0.8837415928994757  1.0000
  C   C14       1.0  0.7239621449185806  0.28434040393683807  0.6162582836510068  1.0000
  C   C15       1.0  0.22396105406175343  0.21566002590812872  0.11625764792605509  1.0000
  C   C16       1.0  0.27603798249361944  0.7156613375291556  0.3837429518234856  1.0000
  N   N1        1.0  0.13429601552228118  0.45418913324900256  0.6458968251970203  1.0000
  N   N2        1.0  0.36570394671596773  0.9541893592160663  0.85410351171474  1.0000
  N   N3        1.0  0.8657052696234118  0.545810335504818  0.35410640492640505  1.0000
  N   N4        1.0  0.6342950176956351  0.0458101095370935  0.1458937558854814  1.0000
  N   N5        1.0  0.17673031154572527  0.3663567612833347  0.5388897543716311  1.0000
  N   N6        1.0  0.32326959965415375  0.8663569635724429  0.9611105811407652  1.0000
  N   N7        1.0  0.8232698211316034  0.633642707470159  0.46111345432814216  1.0000
  N   N8        1.0  0.6767293647577831  0.1336436415369633  0.03888668645947039  1.0000
  N   N9        1.0  0.33212536170611884  0.3081992289669487  0.7118067841605294  1.0000
  N   N10       1.0  0.1678733658636204  0.8081993426213856  0.7881945156142931  1.0000
  N   N11       1.0  0.6678759208063455  0.6917991034306183  0.28819545935023416  1.0000
  N   N12       1.0  0.8321256038134451  0.19179898977552065  0.21180472521122334  1.0000
  N   N13       1.0  0.3675464552965479  0.1706103599913291  0.5095083667287028  1.0000
  N   N14       1.0  0.13245218968901176  0.6706104542662601  0.990491944241377  1.0000
  N   N15       1.0  0.6324536694824303  0.8293902451184112  0.4904918821331279  1.0000
  N   N16       1.0  0.8675467826216023  0.32939015084315326  0.00950828319680849  1.0000
  N   N17       1.0  0.8134449636526356  0.6855900949565311  0.7865067058063386  1.0000
  N   N18       1.0  0.6865538870308044  0.18558989882887286  0.7134931477471936  1.0000
  N   N19       1.0  0.18655400865765162  0.3144093737966287  0.21349352163183963  1.0000
  N   N20       1.0  0.3134462377481739  0.8144107062808673  0.2865071011146441  1.0000
  N   N21       1.0  0.7244404469382459  0.5603977014543703  0.7993467625967694  1.0000
  N   N22       1.0  0.7755583309977113  0.060398692067991505  0.700653088962177  1.0000
  N   N23       1.0  0.27555967784039853  0.43960176729911643  0.20065348626505397  1.0000
  N   N24       1.0  0.22444179378159393  0.9396030493980023  0.29934715989966065  1.0000
  N   N25       1.0  0.6658570821009349  0.7280806864250379  0.9597690669828651  1.0000
  N   N26       1.0  0.8341417932736448  0.22808170968438193  0.5402307872476442  1.0000
  N   N27       1.0  0.33414189020935237  0.27191878232812167  0.040231160455313386  1.0000
  N   N28       1.0  0.1658571790373031  0.7719200317812847  0.4597694401905557  1.0000
  N   N29       1.0  0.5372907595750718  0.4805629401898841  0.9490475703607686  1.0000
  N   N30       1.0  0.9627082625137575  0.9805632200851594  0.5509522878923221  1.0000
  N   N31       1.0  0.46270821010232044  0.5194365285632756  0.05095167046475518  1.0000
  N   N32       1.0  0.0372918648981155  0.019437385024588097  0.4490489475821632  1.0000
