data_image0
_chemical_formula_structural       Cu2H16C20N8Cl2O8
_chemical_formula_sum              "Cu2 H16 C20 N8 Cl2 O8"
_cell_length_a       4.763061708867029
_cell_length_b       5.078878731591531
_cell_length_c       26.437286184694923
_cell_angle_alpha    89.9758448378009
_cell_angle_beta     90.00314715048651
_cell_angle_gamma    89.21861887707051

_space_group_name_H-M_alt    "P 1"
_space_group_IT_number       1

loop_
  _space_group_symop_operation_xyz
  'x, y, z'

loop_
  _atom_site_type_symbol
  _atom_site_label
  _atom_site_symmetry_multiplicity
  _atom_site_fract_x
  _atom_site_fract_y
  _atom_site_fract_z
  _atom_site_occupancy
  Cu  Cu1       1.0  0.43769209489580163  0.1814214620673624  0.500792469925031  1.0000
  Cu  Cu2       1.0  0.0628364136207722  0.8185316650850823  0.0008334418627598001  1.0000
  H   H1        1.0  0.21073586065357117  0.330049955513367  0.4011212517665896  1.0000
  H   H2        1.0  0.7756512863043455  0.3153778967424259  0.5959683326491074  1.0000
  H   H3        1.0  0.7248965979073317  0.6845005132589891  0.09595977490624111  1.0000
  H   H4        1.0  0.2897823995386943  0.6699356805123742  0.9011386729517242  1.0000
  H   H5        1.0  0.8629216540706182  0.6132979367413753  0.36290869063734743  1.0000
  H   H6        1.0  0.15096230829330182  0.6028297994765737  0.6414130639851265  1.0000
  H   H7        1.0  0.3483428191388853  0.39776182990540593  0.1413948609306885  1.0000
  H   H8        1.0  0.6368877215382512  0.38635025370862763  0.8629029012301288  1.0000
  H   H9        1.0  0.8139869194385128  0.7904407638209822  0.45197072454154613  1.0000
  H   H10       1.0  0.194178579032851  0.7535343373567545  0.5510808351552754  1.0000
  H   H11       1.0  0.3062749869404868  0.24656870852000884  0.051115153767838706  1.0000
  H   H12       1.0  0.6869124072255489  0.20962098444609725  0.9520093029669923  1.0000
  H   H13       1.0  0.19234989950950174  0.172343509906149  0.22638963248871147  1.0000
  H   H14       1.0  0.7998013257462661  0.18940711924452816  0.771712063193533  1.0000
  H   H15       1.0  0.6995652388704984  0.8103008516731481  0.2716662700571888  1.0000
  H   H16       1.0  0.306881523282442  0.827710528097775  0.7263782723719034  1.0000
  C   C1        1.0  0.36256298179972657  0.17458838478057004  0.39229505544946625  1.0000
  C   C2        1.0  0.6315444478284816  0.1594667918744435  0.6062233753566559  1.0000
  C   C3        1.0  0.8687759802809296  0.8405067418639761  0.10620910152829313  1.0000
  C   C4        1.0  0.13780456112825593  0.8253800000653372  0.8923113922827213  1.0000
  C   C5        1.0  0.4003884524537754  0.08235881816830933  0.3429997828909208  1.0000
  C   C6        1.0  0.600409051314287  0.0773231754091341  0.6562759547727667  1.0000
  C   C7        1.0  0.8994354749056798  0.9227857971296061  0.1562549146853627  1.0000
  C   C8        1.0  0.09958781223901518  0.9175056851191669  0.8430103103739199  1.0000
  C   C9        1.0  0.7219085109020539  0.778231036568613  0.37167825308257113  1.0000
  C   C10       1.0  0.2874524443393653  0.7650178044833994  0.6310408567080615  1.0000
  C   C11       1.0  0.2122492631400306  0.23530851097680033  0.1310361323816807  1.0000
  C   C12       1.0  0.7781384422065543  0.22162296277652874  0.871690354740501  1.0000
  C   C13       1.0  0.6930193966590253  0.8748865474569597  0.4207563069049982  1.0000
  C   C14       1.0  0.3117109976112076  0.848494665522331  0.5813006179693474  1.0000
  C   C15       1.0  0.18849201283703113  0.15167559686933174  0.08130890658846823  1.0000
  C   C16       1.0  0.8075591908577308  0.12511028257016935  0.9207853890777501  1.0000
  C   C17       1.0  0.22831230624453272  0.2034116218688453  0.3009315639538883  1.0000
  C   C18       1.0  0.7688480030829866  0.20551546465627982  0.697461574265411  1.0000
  C   C19       1.0  0.7307171555727621  0.7945913540639182  0.1974177629408445  1.0000
  C   C20       1.0  0.27133188766333655  0.7964967244815  0.8009197337667615  1.0000
  N   N1        1.0  0.5100731399074975  0.07270791096998863  0.43123310479496985  1.0000
  N   N2        1.0  0.48261229408325335  0.04914857826987169  0.5683851555425576  1.0000
  N   N3        1.0  0.0179545089215694  0.9508690156924543  0.0683938129627606  1.0000
  N   N4        1.0  0.9906039090344692  0.9273202902237829  0.931263086983755  1.0000
  N   N5        1.0  0.5783122204157323  0.8818771861661928  0.33271520106870167  1.0000
  N   N6        1.0  0.42831942899756104  0.8799835609783034  0.6688171939297123  1.0000
  N   N7        1.0  0.07117379125014621  0.12031481214077638  0.1687906203784522  1.0000
  N   N8        1.0  0.9214400315262026  0.11786921677224883  0.8327248330886476  1.0000
  Cl  Cl1       1.0  0.010881426895494402  0.40648361576919717  0.4976386824485033  1.0000
  Cl  Cl2       1.0  0.48988542506383936  0.5934465384886638  0.9977102832429952  1.0000
  O   O1        1.0  0.0147191021315152  0.33346332881286145  0.31056243560833263  1.0000
  O   O2        1.0  0.9809880475336357  0.33098638462217883  0.6875735184984891  1.0000
  O   O3        1.0  0.5184578366756939  0.6693812190522266  0.1874887207556029  1.0000
  O   O4        1.0  0.4848529084166557  0.6662334491008012  0.8105351721490166  1.0000
  O   O5        1.0  0.3310679984036895  0.14752183186376305  0.25613170370154853  1.0000
  O   O6        1.0  0.6638610927212554  0.16015700859900767  0.7426347046063099  1.0000
  O   O7        1.0  0.8355878373326321  0.8395490961234484  0.24260150266395902  1.0000
  O   O8        1.0  0.1683150468625669  0.8524186528358443  0.7561370201643315  1.0000
