data_image0
_chemical_formula_structural       Zn4H22C48S4N2Cl4O16
_chemical_formula_sum              "Zn4 H22 C48 S4 N2 Cl4 O16"
_cell_length_a       7.528389429794645
_cell_length_b       12.537443831197315
_cell_length_c       34.93185200526707
_cell_angle_alpha    89.82690234969166
_cell_angle_beta     89.90030418575486
_cell_angle_gamma    89.78071272737027

_space_group_name_H-M_alt    "P 1"
_space_group_IT_number       1

loop_
  _space_group_symop_operation_xyz
  'x, y, z'

loop_
  _atom_site_type_symbol
  _atom_site_label
  _atom_site_symmetry_multiplicity
  _atom_site_fract_x
  _atom_site_fract_y
  _atom_site_fract_z
  _atom_site_occupancy
  Zn  Zn1       1.0  0.7849836519269643  1.1619725164300216e-05  0.4998838365662195  1.0000
  Zn  Zn2       1.0  0.4268379233074384  4.571869346389974e-05  0.500061434604696  1.0000
  Zn  Zn3       1.0  0.12421109670815161  0.9989749928064527  2.9475996669199755e-05  1.0000
  Zn  Zn4       1.0  0.48228273250462195  0.9974678319607406  0.9998877405016202  1.0000
  H   H1        1.0  0.660564803914319  0.9968023986577063  0.8821897839498689  1.0000
  H   H2        1.0  0.6789616685695136  0.9971278815356255  0.8118144090256364  1.0000
  H   H3        1.0  0.1051986546590342  0.9958562202790304  0.8072560453304902  1.0000
  H   H4        1.0  0.804956107786623  0.9981136356425607  0.6925808532907496  1.0000
  H   H5        1.0  0.23116198039452476  0.9967795519838064  0.6882212261269629  1.0000
  H   H6        1.0  0.24903618464559676  0.9965798851643652  0.6178444337106441  1.0000
  H   H7        1.0  0.2509620809083016  0.9964453768105557  0.750007306950245  1.0000
  H   H8        1.0  0.6595514390825981  0.9980999313998423  0.7499122942928977  1.0000
  H   H9        1.0  0.6601032910299194  0.9966132358513491  0.1175205252997529  1.0000
  H   H10       1.0  0.678674123089003  0.9974408524781777  0.1878924790472283  1.0000
  H   H11       1.0  0.1049209469573498  0.998757989686233  0.1929178036627235  1.0000
  H   H12       1.0  0.804414273280436  0.0026156200534685997  0.30711120639315936  1.0000
  H   H13       1.0  0.23067875778664163  0.999845301661459  0.3119551004740089  1.0000
  H   H14       1.0  0.24875316379816328  0.00024731207843589983  0.3823344247882119  1.0000
  H   H15       1.0  0.2505821372040912  0.9988360867444966  0.2500377265671929  1.0000
  H   H16       1.0  0.6591362123171719  0.0007346504876650999  0.2499170265125628  1.0000
  H   H17       1.0  0.4052879281138999  0.6460621264453579  0.5014662211499539  1.0000
  H   H18       1.0  0.5031896868374588  0.6434872171858215  0.9982838763489993  1.0000
  H   H19       1.0  0.10369992036829957  0.39707408327672067  0.4952748586826345  1.0000
  H   H20       1.0  0.021028283902317903  0.2675512615871866  0.4987415970135842  1.0000
  H   H21       1.0  0.8051805238314954  0.39704506844066156  0.0048015796159362  1.0000
  H   H22       1.0  0.8882495080469112  0.2673393663588115  0.0012655587526779995  1.0000
  C   C1        1.0  0.6808988481203073  0.7985956735355725  0.4998221501772449  1.0000
  C   C2        1.0  0.5284835141088706  0.9975223043002045  0.5720131668078492  1.0000
  C   C3        1.0  0.6758493601194216  0.20225972578511883  0.500578716433253  1.0000
  C   C4        1.0  0.5283746893335034  0.0012114246244863  0.427945766030092  1.0000
  C   C5        1.0  0.2274994062439291  0.7971295651302696  0.99998842927576  1.0000
  C   C6        1.0  0.38084726096037963  0.9964561609700409  0.9279237871129951  1.0000
  C   C7        1.0  0.23332341068091003  0.20079641765593692  0.9994335475759827  1.0000
  C   C8        1.0  0.3802719414764439  0.9972723551424989  0.0719993205857534  1.0000
  C   C9        1.0  0.37729969655696033  0.996222286212152  0.8852684514210765  1.0000
  C   C10       1.0  0.5397675685880756  0.996612349868144  0.8651625392085975  1.0000
  C   C11       1.0  0.5489628596221222  0.9968353497540363  0.8255938355582373  1.0000
  C   C12       1.0  0.3916116493246165  0.9966829265580088  0.803663559384347  1.0000
  C   C13       1.0  0.22905554385772578  0.9961426414709177  0.8233940392349268  1.0000
  C   C14       1.0  0.22005190614630973  0.9958824532433327  0.8632338409614204  1.0000
  C   C15       1.0  0.38500966577990425  0.9969124273923169  0.7620429515478122  1.0000
  C   C16       1.0  0.5254336154624326  0.9975651185496301  0.7379010589910564  1.0000
  C   C17       1.0  0.680999421968508  0.9978248588129831  0.6764881112295028  1.0000
  C   C18       1.0  0.5185884315231846  0.9974869699896018  0.6962736260905018  1.0000
  C   C19       1.0  0.36107218331402885  0.9970147867549103  0.6743995012658887  1.0000
  C   C20       1.0  0.36998049472296657  0.9969182156954376  0.6348217016710507  1.0000
  C   C21       1.0  0.5322918098013998  0.9973140663053569  0.614664857037063  1.0000
  C   C22       1.0  0.6897134079097071  0.997759884304365  0.6366483799584444  1.0000
  C   C23       1.0  0.3768644356294714  0.9974942064667472  0.11467915909732078  1.0000
  C   C24       1.0  0.5393537160814786  0.997228704473997  0.1346587773278216  1.0000
  C   C25       1.0  0.5486459161451832  0.9976675915388498  0.1742294118677989  1.0000
  C   C26       1.0  0.3913663416573242  0.9983504264996056  0.19629517445527253  1.0000
  C   C27       1.0  0.22877554658199975  0.9983699105091546  0.1766891025230137  1.0000
  C   C28       1.0  0.21968070527109518  0.9980085269034261  0.13685413001880417  1.0000
  C   C29       1.0  0.384672112440427  0.9991077372441876  0.2379290937624319  1.0000
  C   C30       1.0  0.524985893965848  0.00028760504361000013  0.2620043633778124  1.0000
  C   C31       1.0  0.6804675206826045  0.0021392176291855003  0.32329836063827594  1.0000
  C   C32       1.0  0.5180605894558922  0.0010299699809977  0.3036400575285541  1.0000
  C   C33       1.0  0.36061943918912215  0.0005939477578493997  0.3256639502868595  1.0000
  C   C34       1.0  0.369622485483049  0.0009206311259290996  0.3652378923757595  1.0000
  C   C35       1.0  0.5319690022462495  0.0018061589178444  0.38526770943776256  1.0000
  C   C36       1.0  0.6892829261206828  0.0026244821070307  0.3631372781011777  1.0000
  C   C37       1.0  0.8314136236025219  0.38314699057412577  0.5004961085953568  1.0000
  C   C38       1.0  0.5404363772388551  0.6151250167200429  0.5009789946496142  1.0000
  C   C39       1.0  0.6805739189590341  0.3171131143876735  0.5010246544937473  1.0000
  C   C40       1.0  0.6867911697668703  0.6815349418748154  0.5002282201392844  1.0000
  C   C41       1.0  0.5922194988641891  0.5069624618486941  0.5010441271335893  1.0000
  C   C42       1.0  0.777518105215762  0.49250157626538277  0.5003810245772229  1.0000
  C   C43       1.0  0.07743411973007139  0.3822982044740826  0.9994264941318888  1.0000
  C   C44       1.0  0.36805855386706543  0.6131067734914026  0.9988086650834518  1.0000
  C   C45       1.0  0.228422956017539  0.31568929940281265  0.9988787290640457  1.0000
  C   C46       1.0  0.22162194732723606  0.680103639314346  0.9996160096853117  1.0000
  C   C47       1.0  0.3164165951894162  0.5051600207425297  0.9987701716581158  1.0000
  C   C48       1.0  0.13112358886678516  0.49143308125735524  0.9995058669280397  1.0000
  S   S1        1.0  0.4796968041458952  0.38768733485859025  0.5020086349796955  1.0000
  S   S2        1.0  0.8880416847274544  0.612732785320759  0.4998270885014762  1.0000
  S   S3        1.0  0.4291577432957964  0.38546137332739516  0.9977894299265913  1.0000
  S   S4        1.0  0.020497328043084895  0.6121463100928111  0.00010096587882909961  1.0000
  N   N1        1.0  0.0015527437602926998  0.3475097434072936  0.5010185925149742  1.0000
  N   N2        1.0  0.907400049107302  0.3472657876376814  0.9989316468094672  1.0000
  Cl  Cl1       1.0  0.007871128781829396  0.9948523696739782  0.8822214691454846  1.0000
  Cl  Cl2       1.0  0.901752759993897  0.9983307500768317  0.6175939315279493  1.0000
  Cl  Cl3       1.0  0.007424551854796796  0.9981920299136959  0.11806593240736159  1.0000
  Cl  Cl4       1.0  0.9014197516015798  0.004410343992198301  0.3819731913803182  1.0000
  O   O1        1.0  0.8318102082693031  0.8479995662476227  0.49965573370192123  1.0000
  O   O2        1.0  0.5286289345006877  0.8425550962617406  0.4996718207611579  1.0000
  O   O3        1.0  0.3754460231205812  0.997705230154196  0.5551851378404393  1.0000
  O   O4        1.0  0.6752987949702528  0.9974827934990956  0.5542454209084156  1.0000
  O   O5        1.0  0.5245572164237939  0.1564050020092296  0.5005523912272238  1.0000
  O   O6        1.0  0.8285773569514062  0.1516995214529189  0.5001390815102127  1.0000
  O   O7        1.0  0.6752852730505764  0.00041662079090800015  0.4455424346975363  1.0000
  O   O8        1.0  0.3754181399788051  0.0011705400478802998  0.4449272040262358  1.0000
  O   O9        1.0  0.0766019038983927  0.8472448493009566  0.00014717634298479972  1.0000
  O   O10       1.0  0.37973869797574616  0.8404196658912252  0.0001093021961863999  1.0000
  O   O11       1.0  0.5338401591031355  0.9957420223497239  0.9447866711419053  1.0000
  O   O12       1.0  0.23395695866955177  0.9973907068277582  0.9456563619766525  1.0000
  O   O13       1.0  0.3846732931188227  0.154313411236302  0.9995592008211318  1.0000
  O   O14       1.0  0.0806488923539419  0.1508793376759172  0.9998813182268335  1.0000
  O   O15       1.0  0.23331929887422825  0.9975854158991171  0.054420856727375594  1.0000
  O   O16       1.0  0.5332293853403981  0.9967373642730947  0.0550146965148599  1.0000
