data_image0
_chemical_formula_structural       Zn4H32C72N24O18
_chemical_formula_sum              "Zn4 H32 C72 N24 O18"
_cell_length_a       20.535280960930987
_cell_length_b       20.960484071083478
_cell_length_c       19.3960492080441
_cell_angle_alpha    68.75338392594642
_cell_angle_beta     76.05443471256571
_cell_angle_gamma    112.2207992868055

_space_group_name_H-M_alt    "P 1"
_space_group_IT_number       1

loop_
  _space_group_symop_operation_xyz
  'x, y, z'

loop_
  _atom_site_type_symbol
  _atom_site_label
  _atom_site_symmetry_multiplicity
  _atom_site_fract_x
  _atom_site_fract_y
  _atom_site_fract_z
  _atom_site_occupancy
  Zn  Zn1       1.0  0.10278018431775862  0.5921545662814085  0.9879013006477705  1.0000
  Zn  Zn2       1.0  0.8705687408799676  0.4231046766105638  0.9877377902362239  1.0000
  Zn  Zn3       1.0  0.9981495840067043  0.6233597523078631  0.8789089208536678  1.0000
  Zn  Zn4       1.0  0.005921618973346197  0.3902489992109963  0.06869839272567191  1.0000
  H   H1        1.0  0.13056543072438842  0.7471890797432791  0.024263435878126  1.0000
  H   H2        1.0  0.8765539049332107  0.20204265191529935  0.9819340197298487  1.0000
  H   H3        1.0  0.7074972426712094  0.2609420355648453  0.14556506284492332  1.0000
  H   H4        1.0  0.24630082965654063  0.6438430257323093  0.8360664084428463  1.0000
  H   H5        1.0  0.8534760196661614  0.6744808981284935  0.8912210739557406  1.0000
  H   H6        1.0  0.1603626072487998  0.3753299390880187  0.04150366662084077  1.0000
  H   H7        1.0  0.03814478342313524  0.35596604629176914  0.23971956955870158  1.0000
  H   H8        1.0  0.09858926311570594  0.6244505740703516  0.7240840423409906  1.0000
  H   H9        1.0  0.7306915644028892  0.4275281333522187  0.08589274523102117  1.0000
  H   H10       1.0  0.26175113999079974  0.6107703760956013  0.013902217795973087  1.0000
  H   H11       1.0  0.06720931583108584  0.5911923648753756  0.1527263789915523  1.0000
  H   H12       1.0  0.9367050595975785  0.36894463847095  0.8590341947773793  1.0000
  H   H13       1.0  0.8768568086950663  0.2866756384916513  0.2460789529756439  1.0000
  H   H14       1.0  0.16862312686408412  0.7852037789793371  0.6923691580821795  1.0000
  H   H15       1.0  0.9457352677093811  0.7192181578754817  0.9462957672795439  1.0000
  H   H16       1.0  0.10639373472918119  0.3503247275262852  0.9560622989975087  1.0000
  H   H17       1.0  0.05379270156825564  0.5671136923810495  0.4157399137316774  1.0000
  H   H18       1.0  0.15856993926231427  0.40880081426787745  0.5472261298952786  1.0000
  H   H19       1.0  0.969832680196113  0.43056079806800823  0.5765807051154326  1.0000
  H   H20       1.0  0.24195324811132937  0.5448146868995637  0.3873579291309638  1.0000
  H   H21       1.0  0.18437238332282407  0.6256690371147968  0.4495398701989828  1.0000
  H   H22       1.0  0.02819811401570873  0.3499484227371426  0.5137638987314901  1.0000
  H   H23       1.0  0.5121690323509823  0.07393577063603379  0.48965319281317926  1.0000
  H   H24       1.0  0.5308649975536072  0.8489900487494636  0.4827796264294618  1.0000
  H   H25       1.0  0.5100204013964813  0.9511551252176461  0.619375296820891  1.0000
  H   H26       1.0  0.5340770721059727  0.9718873206715911  0.35274229064728485  1.0000
  H   H27       1.0  0.5737351074601664  0.6103669167012034  0.9532418129988682  1.0000
  H   H28       1.0  0.3840950794529263  0.4094229236611894  0.24228958348625437  1.0000
  H   H29       1.0  0.9459764280238048  0.9356671960325401  0.07262508701525404  1.0000
  H   H30       1.0  0.16696148512539127  0.14396644228944677  0.7984476361214162  1.0000
  H   H31       1.0  0.4710620119207007  0.4060809861693926  0.011722010415929985  1.0000
  H   H32       1.0  0.4937375302233065  0.6175945324929799  0.17730585849309216  1.0000
  C   C1        1.0  0.08533153862282461  0.7290002340106623  0.004037565685280205  1.0000
  C   C2        1.0  0.9268159492798773  0.24415450205920325  0.9831123128862699  1.0000
  C   C3        1.0  0.758979831814017  0.27883446949990554  0.15688960127916118  1.0000
  C   C4        1.0  0.21467358718469876  0.6705362802748454  0.8125078114308053  1.0000
  C   C5        1.0  0.8349215268987538  0.6131141026066587  0.9328069735847533  1.0000
  C   C6        1.0  0.17573736611496577  0.435324215836161  0.02894074132525759  1.0000
  C   C7        1.0  0.04169474666630186  0.41259719517830007  0.2075378756893116  1.0000
  C   C8        1.0  0.05171586275187697  0.5633955522723896  0.7684251241864216  1.0000
  C   C9        1.0  0.7720036175780435  0.48677181436885053  0.032639426981688695  1.0000
  C   C10       1.0  0.22725093196864074  0.5555163965625596  0.015843805737496598  1.0000
  C   C11       1.0  0.05635869873755444  0.5329004343689759  0.16297675510603676  1.0000
  C   C12       1.0  0.9690052482339555  0.4324282369738913  0.8368359661628728  1.0000
  C   C13       1.0  0.8459645665216797  0.2919127596823544  0.2080429909345726  1.0000
  C   C14       1.0  0.17467832990654136  0.7430611931355673  0.7393205372229944  1.0000
  C   C15       1.0  0.9902810105793591  0.7140545367636977  0.9645176749378236  1.0000
  C   C16       1.0  0.045085770331766695  0.3195609214211433  0.969408405842529  1.0000
  C   C17       1.0  0.03932181599820689  0.7626368585774589  0.9866630734060708  1.0000
  C   C18       1.0  0.00555073385024244  0.2619683670680715  0.9506646336854772  1.0000
  C   C19       1.0  0.7667023482878648  0.24255225897765348  0.22882745477794214  1.0000
  C   C20       1.0  0.23987605020921177  0.733445092260844  0.7337591332583671  1.0000
  C   C21       1.0  0.76381217992121  0.5539784814628846  0.004166570384576399  1.0000
  C   C22       1.0  0.23307507364492608  0.4866738673778953  0.04193744752896578  1.0000
  C   C23       1.0  0.06319750891922385  0.47645372645943235  0.2231556073993417  1.0000
  C   C24       1.0  0.03352071752372163  0.49472026589501905  0.7613717953525947  1.0000
  C   C25       1.0  0.03006760986403384  0.45587567667359963  0.5334294222133168  1.0000
  C   C26       1.0  0.18137625159056373  0.5195169730436859  0.42973861599405433  1.0000
  C   C27       1.0  0.07671532693257896  0.5319369994653087  0.4462233493199008  1.0000
  C   C28       1.0  0.13500903787086588  0.4438885816959584  0.5179553553733739  1.0000
  C   C29       1.0  0.08503101711808382  0.48145287190401126  0.28523637467446855  1.0000
  C   C30       1.0  0.06690298489817802  0.4913548561156136  0.6911458781166502  1.0000
  C   C31       1.0  0.06245137296796351  0.4111283228042666  0.5004296985408843  1.0000
  C   C32       1.0  0.14939107327221995  0.5644175304670681  0.4633866487601991  1.0000
  C   C33       1.0  0.1083572582189874  0.4868936247308539  0.41078292692598944  1.0000
  C   C34       1.0  0.10234970418692779  0.48870078721048343  0.5532319040303193  1.0000
  C   C35       1.0  0.10262196044340043  0.4851323463956659  0.3400872389303089  1.0000
  C   C36       1.0  0.09016244413682978  0.48983237666521984  0.6278730472003176  1.0000
  C   C37       1.0  0.46028691748433226  0.9617746627348324  0.47371925204200943  1.0000
  C   C38       1.0  0.5830347074381381  0.9614947990635088  0.49781363702562936  1.0000
  C   C39       1.0  0.5163412081902623  0.023809436548376233  0.4888757202549171  1.0000
  C   C40       1.0  0.5260036786652834  0.8986512296920638  0.4841410245945283  1.0000
  C   C41       1.0  0.7079402823495684  0.17049208082820405  0.30112299932887504  1.0000
  C   C42       1.0  0.31501521039346164  0.7807394999436923  0.6677010695881123  1.0000
  C   C43       1.0  0.5283953815100232  0.9666506828139135  0.4122212082360406  1.0000
  C   C44       1.0  0.5148701601445894  0.9564320847063852  0.5600441161794548  1.0000
  C   C45       1.0  0.5876618953557654  0.0324628290362768  0.42378365504202975  1.0000
  C   C46       1.0  0.4548865156160673  0.8909538029219133  0.5487573157312724  1.0000
  C   C47       1.0  0.6544216977074983  0.10573330951400106  0.3593155454541872  1.0000
  C   C48       1.0  0.38143199721849913  0.8250163983024735  0.6122624984386176  1.0000
  C   C49       1.0  0.5311032039518935  0.5648769070550018  0.016767059931339492  1.0000
  C   C50       1.0  0.42572790365561985  0.453747138219711  0.17807687146749637  1.0000
  C   C51       1.0  0.4658492320018155  0.4774142071624182  0.048175706725245966  1.0000
  C   C52       1.0  0.4926674586626588  0.5412071779361368  0.14675086441661017  1.0000
  C   C53       1.0  0.2854430295893948  0.47638170441501143  0.07305656227991618  1.0000
  C   C54       1.0  0.6956537878663553  0.5549786152951555  0.03787730924496918  1.0000
  C   C55       1.0  0.4730625587495468  0.5747115276275636  0.0735560739300566  1.0000
  C   C56       1.0  0.4839499234659499  0.443474912501827  0.12233289351743076  1.0000
  C   C57       1.0  0.40369447493124977  0.48697246472062966  0.10505803520003099  1.0000
  C   C58       1.0  0.5546574521980716  0.5315087614688635  0.08801738151841933  1.0000
  C   C59       1.0  0.33286506322080106  0.4735800970409159  0.10006066853231492  1.0000
  C   C60       1.0  0.6323150701034379  0.548306923806969  0.06850037380610259  1.0000
  C   C61       1.0  0.06575727100925384  0.0584211871906319  0.9933485156398164  1.0000
  C   C62       1.0  0.04724658769271167  0.021082491173004266  0.8777512366551791  1.0000
  C   C63       1.0  0.9946770587374586  0.9815420912386659  0.012234477644625298  1.0000
  C   C64       1.0  0.11798628800317358  0.09853202434865706  0.8588159532306392  1.0000
  C   C65       1.0  0.04472116123661622  0.8326256248442975  0.9832097402192872  1.0000
  C   C66       1.0  0.03289204124357067  0.2206275158110459  0.9217294122891176  1.0000
  C   C67       1.0  0.12465877520999431  0.04932835941055915  0.9361388270636298  1.0000
  C   C68       1.0  0.9880111721699691  0.029950768277906464  0.9347768241357741  1.0000
  C   C69       1.0  0.05293350897662218  0.967921575652021  0.9570595069460383  1.0000
  C   C70       1.0  0.05939837976536235  0.11161091715461446  0.9141830026729422  1.0000
  C   C71       1.0  0.04976963907650158  0.8952121560333951  0.9745669523884644  1.0000
  C   C72       1.0  0.05305503911089472  0.1787833911209376  0.9032341716272683  1.0000
  N   N1        1.0  0.06544151416740367  0.6667908697386481  0.9916439769644114  1.0000
  N   N2        1.0  0.9195761699955228  0.28626571536918993  0.018745056108471585  1.0000
  N   N3        1.0  0.8287969316464938  0.34310504826972726  0.09891221814632443  1.0000
  N   N4        1.0  0.1409295473561087  0.6455345870316122  0.8608973229134947  1.0000
  N   N5        1.0  0.881080865205526  0.5830219335550242  0.9198512285892663  1.0000
  N   N6        1.0  0.13786788862128693  0.4701588656997586  0.9987024566294663  1.0000
  N   N7        1.0  0.024169343052449194  0.43087119771836774  0.14342376429100775  1.0000
  N   N8        1.0  0.0010030769079919385  0.5438791874545712  0.8414888920163008  1.0000
  N   N9        1.0  0.8415830181926723  0.5045845661885338  0.9818104198122908  1.0000
  N   N10       1.0  0.1707373854526114  0.5446158366821763  0.9904524805686492  1.0000
  N   N11       1.0  0.03310640973757738  0.5050806041233287  0.11493412871293873  1.0000
  N   N12       1.0  0.9502096584715503  0.4629638187268698  0.8835791430189843  1.0000
  N   N13       1.0  0.8829696963951433  0.3517512414367871  0.12940905128909452  1.0000
  N   N14       1.0  0.11643517103190265  0.6906506150085792  0.8156753703123911  1.0000
  N   N15       1.0  0.006694724142221426  0.6570155711527903  0.9673477817840137  1.0000
  N   N16       1.0  0.9926969159892778  0.3323823729658458  0.010416106586262392  1.0000
  N   N17       1.0  0.3886471201715692  0.954247675469844  0.4675021893290037  1.0000
  N   N18       1.0  0.6539823381979134  0.9670111382825373  0.5052809143034976  1.0000
  N   N19       1.0  0.49485477753201224  0.3757267702864767  0.14539181602243179  1.0000
  N   N20       1.0  0.4614195281130407  0.6420566936965953  0.05089145503742281  1.0000
  N   N21       1.0  0.07958899699698921  0.0875404348984787  0.04939821824519442  1.0000
  N   N22       1.0  0.03426730485205111  0.9926471641599834  0.8208005126791563  1.0000
  N   N23       1.0  0.9177868655750956  0.028314118480217847  0.9287307351400855  1.0000
  N   N24       1.0  0.19609070436018794  0.05304737455272606  0.9412714307385668  1.0000
  O   O1        1.0  0.34826811995517903  0.9665484282094639  0.5141226354553297  1.0000
  O   O2        1.0  0.3713929483015336  0.9319384695070952  0.4199307748441825  1.0000
  O   O3        1.0  0.6790212979958669  0.003204987190983514  0.5400875140326917  1.0000
  O   O4        1.0  0.685372949632793  0.9383362300064206  0.47306319665922547  1.0000
  O   O5        1.0  0.4505904707120791  0.4424291063237574  0.002305279831020466  1.0000
  O   O6        1.0  0.5056140276150387  0.574502806415218  0.1944747724632591  1.0000
  O   O7        1.0  0.4844319768115711  0.337636236101119  0.21674211052264522  1.0000
  O   O8        1.0  0.5170009212923645  0.3623782015792755  0.0886340772960423  1.0000
  O   O9        1.0  0.4525954357157858  0.6670362494319376  0.9876742766099725  1.0000
  O   O10       1.0  0.45794730580088583  0.6683386134773173  0.09964128787477484  1.0000
  O   O11       1.0  0.0246340526660731  0.05417341125822621  0.1176738164247624  1.0000
  O   O12       1.0  0.1450338963896058  0.14694556410314868  0.020613828854045814  1.0000
  O   O13       1.0  0.08781992419313414  0.02974418251887573  0.7507920568168984  1.0000
  O   O14       1.0  0.9707935193854098  0.9305747059564452  0.8503422180554946  1.0000
  O   O15       1.0  0.9225210619902171  0.05700609108235715  0.8583013028372048  1.0000
  O   O16       1.0  0.8620646754271847  0.0030892956528133955  0.9933185733981704  1.0000
  O   O17       1.0  0.189601171776161  0.018333341159895204  0.011720880411729698  1.0000
  O   O18       1.0  0.25473818958619193  0.08694830035204161  0.8758719110424238  1.0000
