data_image0
_chemical_formula_structural       Zn2H88C72N2O36
_chemical_formula_sum              "Zn2 H88 C72 N2 O36"
_cell_length_a       10.755168630686635
_cell_length_b       18.533570327647197
_cell_length_c       19.003241487256865
_cell_angle_alpha    90.89231924950309
_cell_angle_beta     90.77269739989586
_cell_angle_gamma    90.95059090344078

_space_group_name_H-M_alt    "P 1"
_space_group_IT_number       1

loop_
  _space_group_symop_operation_xyz
  'x, y, z'

loop_
  _atom_site_type_symbol
  _atom_site_label
  _atom_site_symmetry_multiplicity
  _atom_site_fract_x
  _atom_site_fract_y
  _atom_site_fract_z
  _atom_site_occupancy
  Zn  Zn1       1.0  0.48694269388577976  0.5746604638317052  0.506614047989018  1.0000
  Zn  Zn2       1.0  0.49411114666694533  0.41262629546318413  0.5045072639384287  1.0000
  H   H1        1.0  0.026142246576114296  0.33315767094846643  0.5150305839083487  1.0000
  H   H2        1.0  0.7346059133730948  0.7871107747772756  0.2096637700167605  1.0000
  H   H3        1.0  0.8089475434089339  0.7973920810895336  0.29302885923482347  1.0000
  H   H4        1.0  0.3162414629993719  0.865824462041147  0.5940796943405856  1.0000
  H   H5        1.0  0.3027330848481995  0.9434498225377369  0.6504587480584832  1.0000
  H   H6        1.0  0.4163666960907264  0.7990500903703222  0.6926850337274999  1.0000
  H   H7        1.0  0.40359405002180176  0.8760195262487541  0.7483838878195073  1.0000
  H   H8        1.0  0.16722972363307056  0.8683588334125715  0.7337861830791255  1.0000
  H   H9        1.0  0.22856576253473554  0.7896879665258609  0.7717223135086897  1.0000
  H   H10       1.0  0.18338246650403525  0.7885612844587442  0.681683479434156  1.0000
  H   H11       1.0  0.44565566070222934  0.12980525588177022  0.30322742390474383  1.0000
  H   H12       1.0  0.7780744779225159  0.37835923636173874  0.5333989502442762  1.0000
  H   H13       1.0  0.3667819692800833  0.12504634261512143  0.3851086670075716  1.0000
  H   H14       1.0  0.377923026029002  0.003171516892493301  0.2737849700184327  1.0000
  H   H15       1.0  0.3046323749027664  0.9956404054381663  0.3557980654213821  1.0000
  H   H16       1.0  0.1575329031313117  0.09566425464115011  0.3237383474231237  1.0000
  H   H17       1.0  0.1477594543490355  0.023452481297141503  0.2614380310542828  1.0000
  H   H18       1.0  0.23028677715876714  0.1039162424283688  0.2408680530089597  1.0000
  H   H19       1.0  0.5667178556207375  0.1293578131334314  0.7030238155389911  1.0000
  H   H20       1.0  0.6444025541249517  0.12735694080245  0.6206386045692867  1.0000
  H   H21       1.0  0.6356792472529237  0.0041011399514517  0.7270857153052148  1.0000
  H   H22       1.0  0.7064679928525096  0.9985573165933131  0.6440777411067415  1.0000
  H   H23       1.0  0.7598076342394933  0.7953364859417819  0.5766518645369771  1.0000
  H   H24       1.0  0.8551562954441677  0.10063402921445433  0.6782992181819978  1.0000
  H   H25       1.0  0.8661037354324038  0.0284810827708526  0.7382127710946023  1.0000
  H   H26       1.0  0.7849710979856184  0.1075602748418234  0.7620986529589615  1.0000
  H   H27       1.0  0.36694230990720206  0.11794617518762611  0.6108670580323975  1.0000
  H   H28       1.0  0.6447084556255049  0.12202137595289031  0.3951675666685546  1.0000
  H   H29       1.0  0.2872885888408375  0.2641217679334888  0.6054682809593857  1.0000
  H   H30       1.0  0.7185662721790463  0.2695231611206098  0.4044688890136783  1.0000
  H   H31       1.0  0.1471920754144875  0.5868581522343562  0.46230646485300764  1.0000
  H   H32       1.0  0.9813653973467423  0.5713532961540296  0.5287921073754163  1.0000
  H   H33       1.0  0.5452897710681555  0.40942996344649174  0.6607399055721643  1.0000
  H   H34       1.0  0.2543496415618449  0.7938714504051846  0.41783183348926667  1.0000
  H   H35       1.0  0.6706104005417258  0.39688670743767324  0.3528557895887445  1.0000
  H   H36       1.0  0.8066166814057709  0.5199913972264056  0.8340349780593215  1.0000
  H   H37       1.0  0.8227356201007084  0.45055652012024455  0.7682114601570262  1.0000
  H   H38       1.0  0.8667791808586002  0.43100205857577834  0.9265920421275878  1.0000
  H   H39       1.0  0.8986918335713411  0.3667588974144351  0.859569984696911  1.0000
  H   H40       1.0  0.0574351887165534  0.455573482942384  0.8083048618190531  1.0000
  H   H41       1.0  0.09651244741404952  0.433056816794597  0.8963130034574718  1.0000
  H   H42       1.0  0.026367431627257097  0.516834587796147  0.8782936984425902  1.0000
  H   H43       1.0  0.7457014886779234  0.3112000408754554  0.0913864816550358  1.0000
  H   H44       1.0  0.5937726094054271  0.3480299003111398  0.0957020145075802  1.0000
  H   H45       1.0  0.6944173611456108  0.8706162387243309  0.3924209006044492  1.0000
  H   H46       1.0  0.719517091231708  0.26079195140550837  0.2119388144651779  1.0000
  H   H47       1.0  0.5689149216829961  0.2968430369542432  0.21619712498311833  1.0000
  H   H48       1.0  0.49992891258784056  0.2199327681486238  0.1110792779390479  1.0000
  H   H49       1.0  0.5575568874508575  0.16511781554408603  0.1796383143414744  1.0000
  H   H50       1.0  0.65118043064723  0.1835300534895907  0.1057319183195347  1.0000
  H   H51       1.0  0.47313417424538773  0.7263054906106065  0.9153054990225514  1.0000
  H   H52       1.0  0.394755771359982  0.7456271775409106  0.8350775975141715  1.0000
  H   H53       1.0  0.6495967522615588  0.6743909492849909  0.8457976126919107  1.0000
  H   H54       1.0  0.5725613374777724  0.696747210327523  0.766642169459324  1.0000
  H   H55       1.0  0.5819361609793815  0.8288766734809343  0.8009430464765686  1.0000
  H   H56       1.0  0.6962858544212978  0.9464235084653865  0.3350831151638758  1.0000
  H   H57       1.0  0.7323816406774384  0.7915033734543613  0.8012749780372204  1.0000
  H   H58       1.0  0.6557225330534918  0.8075008221567543  0.8819778210313133  1.0000
  H   H59       1.0  0.5429390233738332  0.6740960679474953  0.140554898739353  1.0000
  H   H60       1.0  0.39977386758090455  0.6853280241905396  0.18575929819422754  1.0000
  H   H61       1.0  0.42960644545675564  0.654435017649398  0.0273028110489619  1.0000
  H   H62       1.0  0.2858831343229157  0.6547441806667962  0.0706522824852911  1.0000
  H   H63       1.0  0.31791429743896055  0.7855890244195436  0.1056112751248222  1.0000
  H   H64       1.0  0.32529771410631264  0.7740888358806473  0.0128859247798303  1.0000
  H   H65       1.0  0.4642534321309668  0.78699904406686  0.0633846201011821  1.0000
  H   H66       1.0  0.30411148537014304  0.6467938757202489  0.7698688886066947  1.0000
  H   H67       1.0  0.5732104879557126  0.7983284384443295  0.3028761059142369  1.0000
  H   H68       1.0  0.47220148506647763  0.6058484244314999  0.3401369002594166  1.0000
  H   H69       1.0  0.8408937799978347  0.6947764204476387  0.9228538840359661  1.0000
  H   H70       1.0  0.8787355808224577  0.649216164958311  0.001961152085066001  1.0000
  H   H71       1.0  0.6349453524780414  0.7279399742151113  0.9739448670055424  1.0000
  H   H72       1.0  0.6752611588675492  0.6834581836583951  0.0523619899083627  1.0000
  H   H73       1.0  0.8586054159519206  0.7686137640873625  0.0711649182394112  1.0000
  H   H74       1.0  0.7171801396831938  0.8162030538685414  0.0658023202941962  1.0000
  H   H75       1.0  0.8183459008223227  0.8142855543086538  0.9927786586595957  1.0000
  H   H76       1.0  0.9339221079127427  0.5391815056805456  0.0297247267433107  1.0000
  H   H77       1.0  0.8636848582657493  0.4718658955478788  0.0841520033229628  1.0000
  H   H78       1.0  0.5678366829753969  0.8733091088813156  0.24670455434466024  1.0000
  H   H79       1.0  0.9231557701123733  0.5400651868620443  0.1912011370744509  1.0000
  H   H80       1.0  0.0549276398255074  0.5208289232550527  0.14011978503270234  1.0000
  H   H81       1.0  0.05381637628743619  0.6485953602178114  0.0933382991634488  1.0000
  H   H82       1.0  0.0702080413393347  0.6474746885518172  0.1863299627026223  1.0000
  H   H83       1.0  0.9239130636367746  0.6676043428250154  0.14719563053428428  1.0000
  H   H84       1.0  0.342372693525526  0.4087307383638219  0.0316696465752315  1.0000
  H   H85       1.0  0.3813293292942106  0.4604079568289663  0.8806343669817807  1.0000
  H   H86       1.0  0.6946945403040914  0.6350156718851281  0.5572105395954239  1.0000
  H   H87       1.0  0.3113771904962235  0.6339673971972032  0.44094494318045463  1.0000
  H   H88       1.0  0.8018670318366219  0.8717437605350182  0.23524656100821767  1.0000
  C   C1        1.0  0.5681527544587937  0.5032710146675187  0.3766129875581896  1.0000
  C   C2        1.0  0.4782873404947737  0.4815904972609744  0.9646216746346994  1.0000
  C   C3        1.0  0.5977127869360358  0.7218670839915617  0.5304159445502208  1.0000
  C   C4        1.0  0.40857707810442195  0.7215589317844434  0.4692083764011272  1.0000
  C   C5        1.0  0.6041104953348295  0.797601362338  0.5297303250292417  1.0000
  C   C6        1.0  0.4081538030706611  0.7968259106739239  0.4674439320371633  1.0000
  C   C7        1.0  0.5074826047059063  0.8358632874389755  0.4985395298779379  1.0000
  C   C8        1.0  0.5181660451030012  0.9536230194396752  0.436389774863052  1.0000
  C   C9        1.0  0.4955735701799284  0.9530572466549428  0.5633285899199763  1.0000
  C   C10       1.0  0.5162560960329118  0.029270776161638402  0.43802581927266715  1.0000
  C   C11       1.0  0.4962673080327846  0.0286596772411301  0.5644702390002649  1.0000
  C   C12       1.0  0.4341074414724986  0.5089093721293948  0.6353057338586225  1.0000
  C   C13       1.0  0.5059219766423624  0.0684692970650929  0.5019716167547088  1.0000
  C   C14       1.0  0.7229969053776345  0.4917850069440492  0.5483730307721687  1.0000
  C   C15       1.0  0.26027144947794056  0.486207950659285  0.46817899078998687  1.0000
  C   C16       1.0  0.5082551462807173  0.9154279751468264  0.4992865084255698  1.0000
  C   C17       1.0  0.41760979775843765  0.1872526731929227  0.5432537272149958  1.0000
  C   C18       1.0  0.5896028916292337  0.18965781410522453  0.46431819630623744  1.0000
  C   C19       1.0  0.41963941325223414  0.2629118441778573  0.5426003539802977  1.0000
  C   C20       1.0  0.5841525885179664  0.265032154442082  0.4664943206167891  1.0000
  C   C21       1.0  0.5042553865128454  0.1483105539227054  0.5032717834465429  1.0000
  C   C22       1.0  0.0531260780700151  0.43165317407314774  0.5015624435061667  1.0000
  C   C23       1.0  0.460966052008935  0.5157843748510658  0.7115864333402016  1.0000
  C   C24       1.0  0.9236821184383216  0.4366830977200493  0.5229374911373128  1.0000
  C   C25       1.0  0.12626572194716354  0.4875663330445263  0.4784406373266208  1.0000
  C   C26       1.0  0.8584526666871568  0.4970968957103993  0.5442467251966221  1.0000
  C   C27       1.0  0.547526420479791  0.46761342953404755  0.7422552569230305  1.0000
  C   C28       1.0  0.6449997853880446  0.44423702716718333  0.2663934224002489  1.0000
  C   C29       1.0  0.5901684094998955  0.479168792777088  0.811913841412462  1.0000
  C   C30       1.0  0.6539874557513699  0.44299153097936284  0.192646693654261  1.0000
  C   C31       1.0  0.5405865380566937  0.5342840991115451  0.8542680921338643  1.0000
  C   C32       1.0  0.58673367704192  0.49286851959663375  0.15323790707751783  1.0000
  C   C33       1.0  0.4556291283644427  0.5819576273433569  0.8239504947037376  1.0000
  C   C34       1.0  0.579181609812899  0.5006988251784962  0.3000942194611795  1.0000
  C   C35       1.0  0.5111116719242333  0.5441173917645729  0.1862221983697196  1.0000
  C   C36       1.0  0.41634785519906353  0.5729527849757899  0.7534973210399514  1.0000
  C   C37       1.0  0.5141953625913942  0.5520503539990146  0.2594902253496443  1.0000
  C   C38       1.0  0.6438021912179012  0.8971230989455494  0.3492807513593448  1.0000
  C   C39       1.0  0.6258678355801236  0.846454736147301  0.2863152313760224  1.0000
  C   C40       1.0  0.7496579153875301  0.8245934007096096  0.2543965312212961  1.0000
  C   C41       1.0  0.35740598092587555  0.8945044363703332  0.6403362773288849  1.0000
  C   C42       1.0  0.3587084292085266  0.8462526559633048  0.7040556712508987  1.0000
  C   C43       1.0  0.22729652738405545  0.8219495469839728  0.7237018613062176  1.0000
  C   C44       1.0  0.4136717171511677  0.0930155059473208  0.344277953655606  1.0000
  C   C45       1.0  0.6617901255299898  0.5592702140539103  0.9707505541913761  1.0000
  C   C46       1.0  0.32815541413548033  0.0339673330491621  0.3141695771599942  1.0000
  C   C47       1.0  0.2095197584520676  0.0661233660261189  0.2833619018554785  1.0000
  C   C48       1.0  0.5982079617674786  0.0938223247167755  0.6602832441041073  1.0000
  C   C49       1.0  0.6843526997213729  0.0361133610744275  0.6873966877541875  1.0000
  C   C50       1.0  0.8040975885946154  0.07015149144390882  0.7182063685819244  1.0000
  C   C51       1.0  0.8034270159071609  0.461168031142975  0.8243346160877678  1.0000
  C   C52       1.0  0.8972802853298062  0.425001898175303  0.8717692565240895  1.0000
  C   C53       1.0  0.0265534597199633  0.4592656533732296  0.8632201766928631  1.0000
  C   C54       1.0  0.674932779021475  0.33193677305741437  0.12742817793580496  1.0000
  C   C55       1.0  0.6375088736155375  0.2743350667028325  0.1798230953417459  1.0000
  C   C56       1.0  0.6769407035796461  0.5412097030496313  0.0419946417487367  1.0000
  C   C57       1.0  0.5835797183856286  0.20712793739411955  0.14208260305915132  1.0000
  C   C58       1.0  0.46178478828684166  0.7091058159954572  0.85989581270681  1.0000
  C   C59       1.0  0.5854372646834562  0.7130475101146561  0.8222498020165432  1.0000
  C   C60       1.0  0.6415621093946625  0.7894552664416352  0.826986018330395  1.0000
  C   C61       1.0  0.4431803590447245  0.6589044152285553  0.1400723802955213  1.0000
  C   C62       1.0  0.3798027704104356  0.6793732192674186  0.07144348395141262  1.0000
  C   C63       1.0  0.3715272605763786  0.7609113418508784  0.0628818675575005  1.0000
  C   C64       1.0  0.8014975343397879  0.665460907930367  0.9675391999718386  1.0000
  C   C65       1.0  0.7136479939518238  0.7136112347937384  0.008174238791681901  1.0000
  C   C66       1.0  0.7806771664208368  0.7818836300445683  0.035881118060515894  1.0000
  C   C67       1.0  0.5886830219529527  0.4966567874414308  0.0752241397319295  1.0000
  C   C68       1.0  0.8875534009844868  0.5296504218253446  0.0805165072216312  1.0000
  C   C69       1.0  0.9705417513055251  0.5536868299508697  0.1420286927943266  1.0000
  C   C70       1.0  0.006459382510122712  0.6338551455537528  0.142232940535564  1.0000
  C   C71       1.0  0.5611469143083597  0.5288288749740745  0.9316557163225883  1.0000
  C   C72       1.0  0.49015103016601796  0.46630713933131324  0.0361108987417254  1.0000
  N   N1        1.0  0.5002674307133929  0.6851228937882466  0.5012153980237102  1.0000
  N   N2        1.0  0.500746936445509  0.3014413319143046  0.5045408196978229  1.0000
  O   O1        1.0  0.5443710429652738  0.5645789144135591  0.406045683994563  1.0000
  O   O2        1.0  0.8689680139939143  0.36980478940706973  0.5207662744316579  1.0000
  O   O3        1.0  0.7056846941304117  0.8328961674530931  0.5583222663875347  1.0000
  O   O4        1.0  0.30997200491282934  0.8315148414563325  0.43758438476161393  1.0000
  O   O5        1.0  0.5215931142071497  0.9172147551095474  0.3732470476942709  1.0000
  O   O6        1.0  0.4844307710857052  0.9160140257696981  0.6249968127626957  1.0000
  O   O7        1.0  0.5288449544762983  0.06476082467252553  0.3745574989050482  1.0000
  O   O8        1.0  0.48280226760388695  0.06355399247250662  0.6291467217773956  1.0000
  O   O9        1.0  0.3261823256986034  0.15714324615788666  0.5837392438698075  1.0000
  O   O10       1.0  0.6833321517598705  0.1622345198482336  0.4240443863896672  1.0000
  O   O11       1.0  0.3385563249450101  0.3002339016461448  0.5814770540818586  1.0000
  O   O12       1.0  0.4072189059509625  0.5648022834603524  0.6004986876031069  1.0000
  O   O13       1.0  0.6664868384095755  0.3042289612246876  0.42963353762664275  1.0000
  O   O14       1.0  0.0741292093515256  0.5544453124358597  0.466660472166069  1.0000
  O   O15       1.0  0.9067431567877621  0.5637603881411196  0.5589214829895681  1.0000
  O   O16       1.0  0.5931428520074462  0.41076292578635093  0.7065741680953934  1.0000
  O   O17       1.0  0.7021678089926411  0.3924419507679815  0.3039659604248754  1.0000
  O   O18       1.0  0.6788820434443181  0.4345532299379826  0.8395741522667066  1.0000
  O   O19       1.0  0.7330696527055096  0.3948621436016068  0.16055273885073262  1.0000
  O   O20       1.0  0.4010749074884359  0.6374523972985884  0.8618680704043913  1.0000
  O   O21       1.0  0.4296416263821711  0.5817941690904362  0.1450330434168947  1.0000
  O   O22       1.0  0.33046018047545545  0.6194904338272025  0.7280104207908735  1.0000
  O   O23       1.0  0.5804895658522612  0.4453243606274172  0.4118532574749594  1.0000
  O   O24       1.0  0.4493533328306469  0.6066130860317144  0.2891066375245543  1.0000
  O   O25       1.0  0.7433452747026124  0.6024815646020301  0.934033349614701  1.0000
  O   O26       1.0  0.7736908399779239  0.5705778668109218  0.0825340273791326  1.0000
  O   O27       1.0  0.4042596766063794  0.42236177053679563  0.0678054407618092  1.0000
  O   O28       1.0  0.3791617211179741  0.4477505677651905  0.9303870031369215  1.0000
  O   O29       1.0  0.694361265714484  0.6895509053984767  0.5618506291049101  1.0000
  O   O30       1.0  0.3105502482300366  0.687724925221474  0.43662313011560633  1.0000
  O   O31       1.0  0.4480865492476056  0.4459540382853077  0.6068421086579718  1.0000
  O   O32       1.0  0.6596231430880408  0.5498485159762156  0.5502952106019522  1.0000
  O   O33       1.0  0.3109528443470282  0.5496385932380008  0.4591365725300847  1.0000
  O   O34       1.0  0.6719648348053511  0.4282440880007811  0.5474541779265678  1.0000
  O   O35       1.0  0.31956377258484986  0.4280118088297655  0.47044545693627526  1.0000
  O   O36       1.0  0.09810103758015029  0.36371470152464275  0.502420661977233  1.0000
