data_image0
_chemical_formula_structural       Cu4H40C68N8O24
_chemical_formula_sum              "Cu4 H40 C68 N8 O24"
_cell_length_a       9.297158719912616
_cell_length_b       12.466957403888943
_cell_length_c       13.22042057980809
_cell_angle_alpha    89.9984943755202
_cell_angle_beta     102.36277388858997
_cell_angle_gamma    90.00349713175372

_space_group_name_H-M_alt    "P 1"
_space_group_IT_number       1

loop_
  _space_group_symop_operation_xyz
  'x, y, z'

loop_
  _atom_site_type_symbol
  _atom_site_label
  _atom_site_symmetry_multiplicity
  _atom_site_fract_x
  _atom_site_fract_y
  _atom_site_fract_z
  _atom_site_occupancy
  Cu  Cu1       1.0  0.3471445065823602  0.9759986577854677  0.5431876987746165  1.0000
  Cu  Cu2       1.0  0.6528347200617545  0.4759933181343855  0.9567981012326641  1.0000
  Cu  Cu3       1.0  0.652844671559663  0.024026484451866306  0.456810486768063  1.0000
  Cu  Cu4       1.0  0.3472051972519594  0.5239828958725424  0.0432045551588729  1.0000
  H   H1        1.0  0.598737756120208  0.05456934245004421  0.8393397562619213  1.0000
  H   H2        1.0  0.401242545465287  0.5546187588955435  0.6606432073401506  1.0000
  H   H3        1.0  0.4013017953659457  0.9453795998672448  0.1606340931080581  1.0000
  H   H4        1.0  0.5987877559529055  0.44541360349601433  0.33934653645631124  1.0000
  H   H5        1.0  0.7396246407634663  0.873242804003951  0.12630733672494188  1.0000
  H   H6        1.0  0.26036728438987916  0.37327702349067243  0.37368722064204  1.0000
  H   H7        1.0  0.2603612714602619  0.1267358152077236  0.8736888051484754  1.0000
  H   H8        1.0  0.7396329033875587  0.6267489210961302  0.6263127556338401  1.0000
  H   H9        1.0  0.3156319444943279  0.1478136848096057  0.6992073208242147  1.0000
  H   H10       1.0  0.6843863690694717  0.647828892663455  0.8007779660575166  1.0000
  H   H11       1.0  0.6843580043429965  0.8521873936507446  0.3008038512623584  1.0000
  H   H12       1.0  0.3156135078159039  0.35217298813461184  0.19923406431682616  1.0000
  H   H13       1.0  0.1323444978783854  0.2918533050913581  0.7067799650909448  1.0000
  H   H14       1.0  0.8677102173597505  0.7918547478386629  0.793206104439605  1.0000
  H   H15       1.0  0.867660132025989  0.7081606078044516  0.293219220813448  1.0000
  H   H16       1.0  0.13229406342898636  0.20814873729172237  0.20680664221986683  1.0000
  H   H17       1.0  0.9108558630690949  0.30950004700544304  0.5562513501920705  1.0000
  H   H18       1.0  0.0891708247807443  0.8095125291951248  0.9437592207166359  1.0000
  H   H19       1.0  0.08915004246117061  0.690521887217166  0.44374123439079927  1.0000
  H   H20       1.0  0.9108311958447574  0.19048774737458976  0.05625542793035986  1.0000
  H   H21       1.0  0.8923808455265103  0.18717120159054448  0.4051192294501432  1.0000
  H   H22       1.0  0.10759623480792162  0.6871976783557158  0.0949002923400855  1.0000
  H   H23       1.0  0.1076261799991514  0.812841909342488  0.5948727808909808  1.0000
  H   H24       1.0  0.8923926325342749  0.3128058064538878  0.9051099472857728  1.0000
  H   H25       1.0  0.9150534416314998  0.0946618646349151  0.2727066879912954  1.0000
  H   H26       1.0  0.0849034718187482  0.594697158369364  0.2273065861823369  1.0000
  H   H27       1.0  0.08490863340215779  0.9053111388398775  0.7273135681166776  1.0000
  H   H28       1.0  0.9150528097220131  0.4053255762838647  0.7727240748147179  1.0000
  H   H29       1.0  0.9600241157684907  0.9781242583184949  0.13151307558941744  1.0000
  H   H30       1.0  0.03994053914409789  0.47811393985695366  0.36847743312404896  1.0000
  H   H31       1.0  0.0399483528519866  0.021864788048475203  0.8684899577910699  1.0000
  H   H32       1.0  0.9600259987730551  0.5218831273529717  0.6315412790116212  1.0000
  H   H33       1.0  0.17557274141877596  0.8476439226405718  0.16875300471906476  1.0000
  H   H34       1.0  0.8244514474328567  0.3475746961468076  0.33120054160217893  1.0000
  H   H35       1.0  0.8244510315753361  0.15238442905653926  0.8312326511734793  1.0000
  H   H36       1.0  0.17556003824015678  0.6523910898118006  0.6687899252199825  1.0000
  H   H37       1.0  0.3369656761054642  0.8459053311395124  0.34612694155600104  1.0000
  H   H38       1.0  0.6630571824473179  0.34585695105759134  0.15383021449824238  1.0000
  H   H39       1.0  0.6630713669025  0.15413264631006743  0.6538586030465652  1.0000
  H   H40       1.0  0.3369763998044988  0.6541056269226363  0.8461608203344679  1.0000
  C   C1        1.0  0.5114542696115834  0.9003332756147345  0.8501043041833255  1.0000
  C   C2        1.0  0.48855089386222517  0.40040206769214154  0.6498951832080662  1.0000
  C   C3        1.0  0.4885669694133128  0.09962448925737989  0.14989380132706026  1.0000
  C   C4        1.0  0.5114604198507707  0.599626283551821  0.35010206356120926  1.0000
  C   C5        1.0  0.5994886156508841  0.9843552725332357  0.8880045670171554  1.0000
  C   C6        1.0  0.4005077100923343  0.4844082377230309  0.6119860727078715  1.0000
  C   C7        1.0  0.400555049326428  0.0156000866707657  0.11198129918142999  1.0000
  C   C8        1.0  0.5995114847941493  0.5156225201428768  0.38800564721849895  1.0000
  C   C9        1.0  0.6909791421009785  0.9822543628185726  0.9912907158587387  1.0000
  C   C10       1.0  0.30901914629954763  0.48228839025073  0.5087033223034965  1.0000
  C   C11       1.0  0.30905899891609306  0.017706611102021  0.008695008306659686  1.0000
  C   C12       1.0  0.6910065183690507  0.5177327422304571  0.4912947457281972  1.0000
  C   C13       1.0  0.6781574111807346  0.8839652529478242  0.04721695089329364  1.0000
  C   C14       1.0  0.32182990898420644  0.38400968912296213  0.45277356137142977  1.0000
  C   C15       1.0  0.3218352807333816  0.11600213681723663  0.95277348514999  1.0000
  C   C16       1.0  0.6781770393564485  0.6160114429687056  0.5472214624051686  1.0000
  C   C17       1.0  0.5860055865679072  0.804042870979849  0.004177382795035081  1.0000
  C   C18       1.0  0.41402621340122897  0.30410879380882255  0.4958238885369538  1.0000
  C   C19       1.0  0.41400338712218604  0.19592050839317215  0.9958247798403902  1.0000
  C   C20       1.0  0.5859817778113127  0.6959131403925767  0.5041735744231914  1.0000
  C   C21       1.0  0.4128322915144551  0.8987595552822614  0.7434378599892709  1.0000
  C   C22       1.0  0.5871311267916468  0.3987985886409362  0.7565465556851763  1.0000
  C   C23       1.0  0.5871526748566608  0.1012222724772158  0.25655207581712597  1.0000
  C   C24       1.0  0.4128645211017457  0.6012161260913517  0.24345797796792107  1.0000
  C   C25       1.0  0.5656943186177943  0.7025035622731721  0.06266170545921311  1.0000
  C   C26       1.0  0.43434310225354983  0.20254722418420104  0.4373354707969383  1.0000
  C   C27       1.0  0.43428396505145633  0.2974927034701125  0.9373301692989314  1.0000
  C   C28       1.0  0.5656452074053249  0.7974779181642975  0.5626534952126788  1.0000
  C   C29       1.0  0.2208685209958077  0.16050755362239505  0.63585055350093  1.0000
  C   C30       1.0  0.7791450863097894  0.6605189236687464  0.86414045716036  1.0000
  C   C31       1.0  0.7791248082768404  0.839495129192045  0.3641581423105293  1.0000
  C   C32       1.0  0.2208581904147735  0.3394853636149194  0.1358683435621728  1.0000
  C   C33       1.0  0.1168213932176769  0.23996875573936902  0.6391130928925361  1.0000
  C   C34       1.0  0.883202592920469  0.7399834272383997  0.8608821450656521  1.0000
  C   C35       1.0  0.8831776930459084  0.7600427506585351  0.3608867044012029  1.0000
  C   C36       1.0  0.11679403923358932  0.2600192556447851  0.139127087967303  1.0000
  C   C37       1.0  0.996483429407121  0.24972401418234824  0.5559312808225272  1.0000
  C   C38       1.0  0.003533384703310102  0.7497389434728775  0.9440708668069461  1.0000
  C   C39       1.0  0.003518033381340004  0.7502939093246043  0.44406209423369336  1.0000
  C   C40       1.0  0.9964666471362095  0.25026213529424274  0.05593513659966478  1.0000
  C   C41       1.0  0.9866493224176909  0.1824367350860996  0.4703230121719031  1.0000
  C   C42       1.0  0.0133464018860607  0.6824623127751649  0.029688313435784198  1.0000
  C   C43       1.0  0.0133565245935827  0.8175747715386664  0.5296718325919868  1.0000
  C   C44       1.0  0.9866457100952316  0.317537963588329  0.9703247235467458  1.0000
  C   C45       1.0  0.0976484323169942  0.107056170444217  0.47013620450663035  1.0000
  C   C46       1.0  0.9023375549411271  0.607069120856643  0.029858034719481535  1.0000
  C   C47       1.0  0.9023372870057073  0.892944105904704  0.529867470945291  1.0000
  C   C48       1.0  0.09765467343254391  0.39293516617554763  0.970150482007959  1.0000
  C   C49       1.0  0.106218276150436  0.0362175549362789  0.38264639459099203  1.0000
  C   C50       1.0  0.8937669169630452  0.5362220032285518  0.1173404202200174  1.0000
  C   C51       1.0  0.8937708429807002  0.9637843257779084  0.6173540512142139  1.0000
  C   C52       1.0  0.10622741615858187  0.4637742625902774  0.8826722215640359  1.0000
  C   C53       1.0  0.008582665520833598  0.03977888244499891  0.2864698815238852  1.0000
  C   C54       1.0  0.9913915200415389  0.539790722967318  0.21352564447323635  1.0000
  C   C55       1.0  0.9914017781144934  0.960211768336464  0.7135403952597555  1.0000
  C   C56       1.0  0.008579557698176603  0.46021596985644925  0.7864885102954061  1.0000
  C   C57       1.0  0.0335316104930072  0.9725590965468315  0.20760050530120816  1.0000
  C   C58       1.0  0.9664527062761578  0.4725472762270187  0.2923827502293292  1.0000
  C   C59       1.0  0.9664542056644977  0.027440377737619304  0.7923994032977929  1.0000
  C   C60       1.0  0.0335217126915097  0.5274489891235207  0.7076304350838142  1.0000
  C   C61       1.0  0.15181883939982296  0.9016099924370308  0.2276793234563286  1.0000
  C   C62       1.0  0.8482036723882446  0.40156519944922314  0.2722846958833358  1.0000
  C   C63       1.0  0.8481948696885198  0.09841113988149171  0.7723107477904207  1.0000
  C   C64       1.0  0.15179775011683463  0.598412618018763  0.7277101861707748  1.0000
  C   C65       1.0  0.24379501052280264  0.9004893567531697  0.3259250622092722  1.0000
  C   C66       1.0  0.756219670144965  0.4004511277048125  0.17403922454789006  1.0000
  C   C67       1.0  0.7562286848558912  0.0995357864179311  0.6740636071900638  1.0000
  C   C68       1.0  0.2438026704552669  0.5995226795968592  0.8259590599344477  1.0000
  N   N1        1.0  0.21028165166902824  0.09576453508645241  0.5535945229462769  1.0000
  N   N2        1.0  0.7897215846261859  0.5957708441948667  0.9463926477969054  1.0000
  N   N3        1.0  0.7896963027188446  0.9042333347075628  0.4464101591189262  1.0000
  N   N4        1.0  0.21028491767179958  0.40423825583484074  0.05361970360296199  1.0000
  N   N5        1.0  0.2215226743517461  0.9669618962006441  0.40064404059400255  1.0000
  N   N6        1.0  0.7784724167305866  0.4669508876780314  0.09933354304160247  1.0000
  N   N7        1.0  0.778479908616575  0.0330520167387292  0.599348760189919  1.0000
  N   N8        1.0  0.22154538484641506  0.5330341491384305  0.9006692986753321  1.0000
  O   O1        1.0  0.5031969839509358  0.8100127346760005  0.9061975759740547  1.0000
  O   O2        1.0  0.4968138315924834  0.3100835060960492  0.5937869474259044  1.0000
  O   O3        1.0  0.49680779875554754  0.1899442277656078  0.09379558331917083  1.0000
  O   O4        1.0  0.5031898331783963  0.6899360216973847  0.40620678576778596  1.0000
  O   O5        1.0  0.7720755189712065  0.0589933331125181  0.02951365077943545  1.0000
  O   O6        1.0  0.2278938249815994  0.5590227019732127  0.47046925605378925  1.0000
  O   O7        1.0  0.2279742899981017  0.940958818093428  0.9704482495457823  1.0000
  O   O8        1.0  0.7721197293063257  0.4410032429779208  0.529526842135219  1.0000
  O   O9        1.0  0.43308460500049506  0.9822558983005577  0.6898419031642433  1.0000
  O   O10       1.0  0.5668648334741064  0.482265196276977  0.8101600766906925  1.0000
  O   O11       1.0  0.566871252808575  0.017745179471838003  0.31016221089041096  1.0000
  O   O12       1.0  0.4331172537165529  0.5177374861742622  0.18985586884171107  1.0000
  O   O13       1.0  0.32375915909293695  0.8243620238428734  0.7162397459542615  1.0000
  O   O14       1.0  0.6762083294269842  0.3244044028234967  0.7837524998599077  1.0000
  O   O15       1.0  0.6762301719434235  0.17560857430125765  0.28375241296196657  1.0000
  O   O16       1.0  0.32378538786124267  0.6756127183803855  0.2162411284278036  1.0000
  O   O17       1.0  0.4758939372031889  0.6345835328824094  0.007562682050597376  1.0000
  O   O18       1.0  0.5241810414991548  0.1346570524397137  0.4924491208666737  1.0000
  O   O19       1.0  0.5240550439577162  0.3654263679197456  0.9924509047074962  1.0000
  O   O20       1.0  0.47577711537308426  0.8653512445173632  0.5075515844317806  1.0000
  O   O21       1.0  0.6360614350623094  0.6944466022093467  0.1531887709750848  1.0000
  O   O22       1.0  0.36395249568937516  0.1944671264547111  0.34683807463037647  1.0000
  O   O23       1.0  0.36391205638058466  0.3055255996088705  0.8468174550726104  1.0000
  O   O24       1.0  0.6360666218276378  0.8055668398478351  0.653156658762036  1.0000
