data_image0
_chemical_formula_structural       Zn2H24C38N4O8
_chemical_formula_sum              "Zn2 H24 C38 N4 O8"
_cell_length_a       10.866103570942157
_cell_length_b       12.431934006191616
_cell_length_c       13.522860960845163
_cell_angle_alpha    76.04672231614272
_cell_angle_beta     86.94915250772007
_cell_angle_gamma    71.53916353947595

_space_group_name_H-M_alt    "P 1"
_space_group_IT_number       1

loop_
  _space_group_symop_operation_xyz
  'x, y, z'

loop_
  _atom_site_type_symbol
  _atom_site_label
  _atom_site_symmetry_multiplicity
  _atom_site_fract_x
  _atom_site_fract_y
  _atom_site_fract_z
  _atom_site_occupancy
  Zn  Zn1       1.0  0.45929679718798877  0.6178995190481444  0.5037616732975181  1.0000
  Zn  Zn2       1.0  0.5387090213204999  0.38247479118695793  0.4964311911125849  1.0000
  H   H1        1.0  0.10407272728950548  0.483957961936568  0.33450652822794075  1.0000
  H   H2        1.0  0.8700061472133953  0.6600398839143934  0.3592560504856196  1.0000
  H   H3        1.0  0.6308466547506486  0.9455014804257756  0.3562147534534931  1.0000
  H   H4        1.0  0.7335256393704127  0.09702868283550001  0.2759202995038238  1.0000
  H   H5        1.0  0.4156222667134274  0.24385072597050347  0.6121453575375642  1.0000
  H   H6        1.0  0.9891025010816606  0.691631377659313  0.5289671547790251  1.0000
  H   H7        1.0  0.8916588884464289  0.520944221949037  0.6589482571212176  1.0000
  H   H8        1.0  0.12575995649996935  0.3458187449234346  0.634173386425623  1.0000
  H   H9        1.0  0.006424643932383794  0.3133024834673535  0.4657106531094045  1.0000
  H   H10       1.0  0.4417743391403307  0.24392649064715496  0.8171989195451703  1.0000
  H   H11       1.0  0.3939321243516432  0.2111373009935846  0.000992522432142108  1.0000
  H   H12       1.0  0.5010564369539098  0.5663259776276919  0.8209061800573852  1.0000
  H   H13       1.0  0.4962626965510211  0.6846617074175544  0.8942359552637671  1.0000
  H   H14       1.0  0.5551263517332855  0.8829183972543149  0.027689864436240486  1.0000
  H   H15       1.0  0.5562139133729006  0.8499603168795957  0.9141005193860396  1.0000
  H   H16       1.0  0.3162363616101729  0.26296925278273864  0.24493416524103406  1.0000
  H   H17       1.0  0.2936281733250682  0.23694380810655247  0.13263378505586593  1.0000
  H   H18       1.0  0.5010850878264889  0.7673947292630107  0.18489197715692285  1.0000
  H   H19       1.0  0.3920781471851881  0.4136645098055568  0.2614644069570177  1.0000
  H   H20       1.0  0.2943722705809791  0.7330350224709433  0.6520267752490841  1.0000
  H   H21       1.0  0.30043388260196485  0.10502735816544369  0.6966178888454949  1.0000
  H   H22       1.0  0.2561658922765205  0.9160649950200792  0.7143957222698635  1.0000
  H   H23       1.0  0.5444650450225696  0.8245069173521103  0.4323832013306659  1.0000
  H   H24       1.0  0.6908160888891572  0.2742515134002517  0.3467671222379424  1.0000
  C   C1        1.0  0.47714096649144017  0.5744845035693515  0.3026591862914359  1.0000
  C   C2        1.0  0.4622208116705693  0.5571610697935085  0.024593969948739428  1.0000
  C   C3        1.0  0.44884978305355366  0.5288189951681304  0.13257593097722525  1.0000
  C   C4        1.0  0.7398668862505886  0.493800930339411  0.4924954169966329  1.0000
  C   C5        1.0  0.451761934191353  0.47436937813325397  0.9680649361504339  1.0000
  C   C6        1.0  0.4190933863132856  0.3722036587555096  0.018849040891261402  1.0000
  C   C7        1.0  0.3915343117371535  0.35464126681081615  0.12604891557271716  1.0000
  C   C8        1.0  0.40999237864587473  0.4293613817273397  0.17991359792097947  1.0000
  C   C9        1.0  0.47616903780227193  0.4900418381524432  0.8632271977612904  1.0000
  C   C10       1.0  0.44267164571117945  0.30773781384589677  0.859866975604675  1.0000
  C   C11       1.0  0.4683939554691462  0.6061197066766796  0.18855271812440585  1.0000
  C   C12       1.0  0.06739465068628193  0.41511317577464263  0.5727873990843693  1.0000
  C   C13       1.0  0.31964605521509526  0.8997714943148625  0.6507888752053007  1.0000
  C   C14       1.0  0.6489824855528283  0.2052014352194149  0.3807308675581425  1.0000
  C   C15       1.0  0.6715694838771498  0.10632435992356191  0.34132470658767755  1.0000
  C   C16       1.0  0.49915732860653605  0.43290493155577553  0.6977027868350734  1.0000
  C   C17       1.0  0.6135421495753874  0.022884222541875908  0.386011204815823  1.0000
  C   C18       1.0  0.5317403435924747  0.03879448596022429  0.4694173338859217  1.0000
  C   C19       1.0  0.5126883818580198  0.14199808690328547  0.5045701516247194  1.0000
  C   C20       1.0  0.46567780188876645  0.9568733556716538  0.5202832710976255  1.0000
  C   C21       1.0  0.3823061461059183  0.9815966899691377  0.6025326429778631  1.0000
  C   C22       1.0  0.3652420112484265  0.0870219395033658  0.6339822891976256  1.0000
  C   C23       1.0  0.00386333760058481  0.3973078230367052  0.4792156372365002  1.0000
  C   C24       1.0  0.42809250018779466  0.16414447355401054  0.5873192753826191  1.0000
  C   C25       1.0  0.48002475339114165  0.851536736597609  0.4926085678990477  1.0000
  C   C26       1.0  0.33952525368500375  0.7994466423735461  0.6173644259183108  1.0000
  C   C27       1.0  0.25548444089292144  0.5113134957666149  0.5020265742524546  1.0000
  C   C28       1.0  0.9280472549428114  0.5904637569405577  0.4205649278601485  1.0000
  C   C29       1.0  0.05518540279786782  0.49189998100057875  0.4065415906710329  1.0000
  C   C30       1.0  0.11906513894826536  0.5108462384344109  0.5000074631886451  1.0000
  C   C31       1.0  0.9916378718462016  0.6081290948501349  0.5143824213746769  1.0000
  C   C32       1.0  0.9404782693300503  0.5134326157856179  0.5868616850166436  1.0000
  C   C33       1.0  0.8762057322312914  0.4954442054611405  0.4921944393476993  1.0000
  C   C34       1.0  0.4155018378299573  0.2906968796704064  0.9624647273099715  1.0000
  C   C35       1.0  0.47266370475330893  0.4091653025950351  0.8091161000009851  1.0000
  C   C36       1.0  0.4893307249114258  0.7098983039891493  0.13898692884494324  1.0000
  C   C37       1.0  0.49845800370201965  0.7398145063842493  0.03201637672597708  1.0000
  C   C38       1.0  0.4868433140780796  0.6620969747887955  0.9767678480122088  1.0000
  N   N1        1.0  0.41870947078402304  0.7765859777100704  0.5388062522396808  1.0000
  N   N2        1.0  0.5730473804401371  0.22220525465427712  0.4600014919227392  1.0000
  N   N3        1.0  0.5147330181984486  0.8471229514181643  0.983340392946808  1.0000
  N   N4        1.0  0.3534312843230154  0.25757025183528975  0.1750614399141598  1.0000
  O   O1        1.0  0.4270781941924753  0.6554234132872168  0.3491837163813188  1.0000
  O   O2        1.0  0.5387256638566313  0.46865691658511816  0.34430705379500653  1.0000
  O   O3        1.0  0.6531238177867209  0.5936622216278806  0.4773501715846112  1.0000
  O   O4        1.0  0.7202471110330249  0.39502937323619863  0.5099525418605212  1.0000
  O   O5        1.0  0.5079635515442148  0.5332061147967411  0.6555545782548723  1.0000
  O   O6        1.0  0.5096618297783378  0.3517657148709574  0.6518425949222861  1.0000
  O   O7        1.0  0.27942531356368516  0.5938588379634381  0.5295819899751281  1.0000
  O   O8        1.0  0.339475159263131  0.4257270312175124  0.4753270932353362  1.0000
