data_image0
_chemical_formula_structural       Zn4H58C78N16
_chemical_formula_sum              "Zn4 H58 C78 N16"
_cell_length_a       19.706943255064598
_cell_length_b       19.656376767945474
_cell_length_c       19.882923666316163
_cell_angle_alpha    68.6096185705827
_cell_angle_beta     76.41841037885557
_cell_angle_gamma    111.82920474327275

_space_group_name_H-M_alt    "P 1"
_space_group_IT_number       1

loop_
  _space_group_symop_operation_xyz
  'x, y, z'

loop_
  _atom_site_type_symbol
  _atom_site_label
  _atom_site_symmetry_multiplicity
  _atom_site_fract_x
  _atom_site_fract_y
  _atom_site_fract_z
  _atom_site_occupancy
  Zn  Zn1       1.0  0.10741879143515831  0.6083932445483101  0.0024081364252310153  1.0000
  Zn  Zn2       1.0  0.9017687350290234  0.39861521253995147  0.9990046448165086  1.0000
  Zn  Zn3       1.0  0.9958175154584906  0.6045765262422762  0.9038892536487991  1.0000
  Zn  Zn4       1.0  0.007313886899026954  0.40016826140543327  0.10575241957820933  1.0000
  H   H1        1.0  0.15726421419605432  0.8041233738857727  0.9865355299492576  1.0000
  H   H2        1.0  0.01805722410979622  0.41421905295160133  0.8500086180482211  1.0000
  H   H3        1.0  0.7369090192724457  0.42062975036022  0.6055365706174456  1.0000
  H   H4        1.0  0.016650769376845082  0.5838162364558313  0.4007273879577652  1.0000
  H   H5        1.0  0.9411851500221291  0.6453611962961716  0.4841623215296237  1.0000
  H   H6        1.0  0.8123010451946658  0.359024239320533  0.5222215234642746  1.0000
  H   H7        1.0  0.5023789735239816  0.6351018936869365  0.07756874006701506  1.0000
  H   H8        1.0  0.48288627681223784  0.3633135211356517  0.24678036102143613  1.0000
  H   H9        1.0  0.18364689352827673  0.0696533445676835  0.9569045102470425  1.0000
  H   H10       1.0  0.05745502005769506  0.20308973547288636  0.8052150099168429  1.0000
  H   H11       1.0  0.20059327352480238  0.2075891690771385  0.9394696196907332  1.0000
  H   H12       1.0  0.0406538279239257  0.0652089617003497  0.8227092477149042  1.0000
  H   H13       1.0  0.7367740852616436  0.3560054896586351  0.13955587066680408  1.0000
  H   H14       1.0  0.26797699056040597  0.6397281512232879  0.048774272530678786  1.0000
  H   H15       1.0  0.9952895931877067  0.788853020677905  0.87123325383979  1.0000
  H   H16       1.0  0.1503645543360007  0.3984694651803551  0.996005811008139  1.0000
  H   H17       1.0  0.8022099418829782  0.5718453967222955  0.4591695275219577  1.0000
  H   H18       1.0  0.9513524626400457  0.43262739958552743  0.5473306324624757  1.0000
  H   H19       1.0  0.5079509238785249  0.968164719825893  0.34866401915337514  1.0000
  H   H20       1.0  0.5260215090431757  0.8854604628511779  0.6091736844700859  1.0000
  H   H21       1.0  0.38264560366804545  0.8781766188190968  0.475120461378843  1.0000
  H   H22       1.0  0.6512318047790089  0.9751445013757233  0.4826725509693263  1.0000
  H   H23       1.0  0.6269947287450252  0.6308789411286639  0.0757484148878404  1.0000
  H   H24       1.0  0.3582912555299274  0.3676184110359273  0.24877330268643053  1.0000
  H   H25       1.0  0.6324995258199095  0.0906179222976462  0.06286095388028907  1.0000
  H   H26       1.0  0.6946168120143738  0.1922429102306609  0.9758937675355809  1.0000
  H   H27       1.0  0.7064435605724955  0.10590841652404491  0.9792179576451545  1.0000
  H   H28       1.0  0.8176088081902719  0.19937617244198694  0.0002483533554097643  1.0000
  H   H29       1.0  0.7551009934477195  0.0987904397853683  0.08678892385650269  1.0000
  H   H30       1.0  0.6780530073720145  0.1550472232315627  0.14729043634569186  1.0000
  H   H31       1.0  0.7411956728740918  0.2562502108741568  0.06060450214807391  1.0000
  H   H32       1.0  0.470706540641963  0.7995455611431339  0.814718480813944  1.0000
  H   H33       1.0  0.42967328673871225  0.7034697814831363  0.905045098790573  1.0000
  H   H34       1.0  0.49423884972878074  0.7208189887843731  0.8141098539345889  1.0000
  H   H35       1.0  0.34902673991850003  0.6232917474227193  0.8487857242276602  1.0000
  H   H36       1.0  0.39030947741512273  0.7200362054730007  0.7602467775062961  1.0000
  H   H37       1.0  0.3317745485345255  0.7726127694830112  0.8461371874553051  1.0000
  H   H38       1.0  0.2799800066812423  0.6683969382649623  0.9281368148191049  1.0000
  H   H39       1.0  0.8677154062619863  0.6308616996122324  0.011577067210716165  1.0000
  H   H40       1.0  0.13399914641314584  0.3657038060501492  0.18293953068830857  1.0000
  H   H41       1.0  0.8719341747060271  0.36982635064357083  0.26267168789428297  1.0000
  H   H42       1.0  0.9550081455640723  0.6303268226196721  0.7407163551654957  1.0000
  H   H43       1.0  0.008006429871301119  0.6439967205874167  0.12319683749139887  1.0000
  H   H44       1.0  0.8399767429261258  0.35723544550884156  0.8674763988671259  1.0000
  H   H45       1.0  0.8593235110136705  0.1049396379959688  0.4383446948147379  1.0000
  H   H46       1.0  0.9234735852227517  0.2142068097501664  0.4024443820729644  1.0000
  H   H47       1.0  0.8212482280259153  0.16070544236116288  0.4728995740231028  1.0000
  H   H48       1.0  0.8359465502053213  0.24862224212092335  0.3367288152113942  1.0000
  H   H49       1.0  0.7732347882389946  0.1406596616571747  0.37149014724242585  1.0000
  H   H50       1.0  0.8914002639313311  0.13744207875255654  0.29323343860497886  1.0000
  H   H51       1.0  0.9538324856811472  0.2469112624771199  0.25529813363209547  1.0000
  H   H52       1.0  0.13872086357310542  0.8525007553764538  0.5767500685878203  1.0000
  H   H53       1.0  0.04747665976447731  0.8077029126746568  0.6611393599667817  1.0000
  H   H54       1.0  0.12632265850675836  0.9124801968551778  0.6222269232601505  1.0000
  H   H55       1.0  0.1237094612600983  0.8126113653512945  0.7467205397977137  1.0000
  H   H56       1.0  0.21503088587967759  0.8587099929494357  0.6636204986082888  1.0000
  H   H57       1.0  0.16804904944732604  0.7299805785668667  0.6521506510493181  1.0000
  H   H58       1.0  0.07063757968467847  0.6826610275722516  0.7278117605601933  1.0000
  C   C1        1.0  0.11611114607608625  0.7867883667155268  0.9599510102478278  1.0000
  C   C2        1.0  0.04400643783823445  0.4158085955101924  0.8923021211128129  1.0000
  C   C3        1.0  0.7912330202282619  0.168362958737454  0.210360141108076  1.0000
  C   C4        1.0  0.24302563571622213  0.7225305556700617  0.759600439085247  1.0000
  C   C5        1.0  0.7709558366616847  0.49307039263190683  0.0936916290863792  1.0000
  C   C6        1.0  0.22929442245794718  0.5030984359921931  0.12546821536069072  1.0000
  C   C7        1.0  0.9249853639245273  0.5085032753378584  0.22374080734729768  1.0000
  C   C8        1.0  0.8919801796194239  0.49342515217948346  0.7744965590147783  1.0000
  C   C9        1.0  0.7990344981965194  0.45690925266285387  0.5593424610119513  1.0000
  C   C10       1.0  0.9546201603746809  0.5475837160576376  0.44711862593864277  1.0000
  C   C11       1.0  0.8353797056075437  0.5408529082755393  0.47901481210712393  1.0000
  C   C12       1.0  0.9182318057517096  0.463526154220773  0.5270641828656436  1.0000
  C   C13       1.0  0.8984084633472877  0.5106938539621169  0.2948086157516626  1.0000
  C   C14       1.0  0.8821520677232471  0.4930998870003974  0.7067014261632065  1.0000
  C   C15       1.0  0.840964321479234  0.4225750675260755  0.514475408585042  1.0000
  C   C16       1.0  0.9125749414303854  0.5818398601548155  0.4918364593711572  1.0000
  C   C17       1.0  0.8774755243436587  0.5065911779943092  0.4321935830241372  1.0000
  C   C18       1.0  0.8762659489070047  0.4978430529785598  0.573998464166422  1.0000
  C   C19       1.0  0.8831904732220153  0.5096383080249821  0.35854542202078926  1.0000
  C   C20       1.0  0.8776956590446333  0.4946666245275182  0.6459660192593121  1.0000
  C   C21       1.0  0.4415332294254597  0.8994954234870036  0.47667310371275545  1.0000
  C   C22       1.0  0.5922383408965715  0.953535240861278  0.4812855255265801  1.0000
  C   C23       1.0  0.7979988818734541  0.21747901161384675  0.13393251062250036  1.0000
  C   C24       1.0  0.23730441308109818  0.6850970618577535  0.8379579640622338  1.0000
  C   C25       1.0  0.4450739177678784  0.8756461098639647  0.5514749825168009  1.0000
  C   C26       1.0  0.5885853406482157  0.9786125780097022  0.4065214801986553  1.0000
  C   C27       1.0  0.5221727142466152  0.9035111993587321  0.5520449389302015  1.0000
  C   C28       1.0  0.511621030718942  0.9495911970127295  0.40588914831776884  1.0000
  C   C29       1.0  0.3738325972706419  0.8245812638663564  0.6237667986306762  1.0000
  C   C30       1.0  0.6601982391787615  0.036200490088425887  0.33478704185384345  1.0000
  C   C31       1.0  0.7222242004010796  0.0941300684288322  0.2751471597167309  1.0000
  C   C32       1.0  0.3130264864944295  0.7781231871569717  0.6872498501951723  1.0000
  C   C33       1.0  0.5679499160692459  0.5734397948127707  0.11391740925871119  1.0000
  C   C34       1.0  0.4172887140875687  0.4252531088837088  0.21109954810516032  1.0000
  C   C35       1.0  0.5641776174554848  0.49641492342711047  0.15945055055441765  1.0000
  C   C36       1.0  0.4215291533413961  0.501246627864525  0.16187985843237837  1.0000
  C   C37       1.0  0.48704229046159503  0.4228721529633149  0.2099933552410177  1.0000
  C   C38       1.0  0.4983301720810687  0.5758037837163243  0.1149400919410795  1.0000
  C   C39       1.0  0.6363580576773841  0.4933184297213273  0.14829670540504475  1.0000
  C   C40       1.0  0.3518953426648679  0.5022691648337414  0.1554994919952861  1.0000
  C   C41       1.0  0.29408269541964677  0.5032947915656791  0.14364696328698306  1.0000
  C   C42       1.0  0.6996436649045421  0.49281662592322556  0.1275652090957706  1.0000
  C   C43       1.0  0.1661947574047957  0.17653920439207127  0.9134131003331516  1.0000
  C   C44       1.0  0.07595332033174876  0.09692332337341009  0.8478078208851018  1.0000
  C   C45       1.0  0.8472065160907791  0.5640112114516143  0.03494307335275686  1.0000
  C   C46       1.0  0.1559135653548438  0.4326810744556582  0.14637928997233013  1.0000
  C   C47       1.0  0.12999287131022183  0.21503363722528226  0.8713714089118129  1.0000
  C   C48       1.0  0.11070390079234475  0.05764267375901261  0.8913291051463827  1.0000
  C   C49       1.0  0.08558351377833152  0.17405189176051292  0.8378574248588111  1.0000
  C   C50       1.0  0.1565689220488551  0.09948057349897249  0.9233424431454723  1.0000
  C   C51       1.0  0.13247184364464454  0.28858158410039897  0.8693966500195599  1.0000
  C   C52       1.0  0.0997036286303724  0.9783173305816887  0.9030936142173186  1.0000
  C   C53       1.0  0.0906356045773791  0.9096772902952922  0.9137251436436526  1.0000
  C   C54       1.0  0.12527527557102044  0.3441079860168088  0.8786539666186783  1.0000
  C   C55       1.0  0.9117015599220011  0.4360480525186147  0.2172123116304902  1.0000
  C   C56       1.0  0.9301435892776269  0.5641192567621899  0.7832254139141385  1.0000
  C   C57       1.0  0.7801612206465904  0.42322810887193896  0.10073809344482498  1.0000
  C   C58       1.0  0.22427130965394335  0.5727703419737225  0.07735890008112264  1.0000
  C   C59       1.0  0.9813961938073561  0.5763602708431462  0.14606596265599595  1.0000
  C   C60       1.0  0.8707646394322524  0.42445281365610305  0.8476910345516161  1.0000
  C   C61       1.0  0.8651088412663485  0.21681732660989894  0.21090417700781217  1.0000
  C   C62       1.0  0.1621181766687129  0.6927300980549373  0.7694027920458167  1.0000
  C   C63       1.0  0.03313563084543588  0.7788773370901723  0.901148566684313  1.0000
  C   C64       1.0  0.1116940969124158  0.4077980658471674  0.9670423943010034  1.0000
  C   C65       1.0  0.08047896748290372  0.8313142114707617  0.9246087604873737  1.0000
  C   C66       1.0  0.10095585086467906  0.3919444857985255  0.9054560159752965  1.0000
  C   C67       1.0  0.7395618779381863  0.19773530757841226  0.09851526447429386  1.0000
  C   C68       1.0  0.7558761793091051  0.1564396940879433  0.04879721265681519  1.0000
  C   C69       1.0  0.6941356738818953  0.1351534143516062  0.014707257808268499  1.0000
  C   C70       1.0  0.30471800273271304  0.7051684246176251  0.8627661716907792  1.0000
  C   C71       1.0  0.3724305399187101  0.6915670337535502  0.8249749502585574  1.0000
  C   C72       1.0  0.4457529858410894  0.7307640416627237  0.8405987782353177  1.0000
  C   C73       1.0  0.8908854394107878  0.19718360904666815  0.2770446286600076  1.0000
  C   C74       1.0  0.8358081384159208  0.18879289761012788  0.3522281130140215  1.0000
  C   C75       1.0  0.8613960286675992  0.16595215169367347  0.42017479310584344  1.0000
  C   C76       1.0  0.13491926552894976  0.7262575984621547  0.7075279067082506  1.0000
  C   C77       1.0  0.14944235494690605  0.8150546092384373  0.6898141889517574  1.0000
  C   C78       1.0  0.1136352478886876  0.8487291947441732  0.6344355424527137  1.0000
  N   N1        1.0  0.09210724496141141  0.7147939306139932  0.9571060021364418  1.0000
  N   N2        1.0  0.020635326683013468  0.4401484735113286  0.9444686596973069  1.0000
  N   N3        1.0  0.8701149044491886  0.28955645484614223  0.09277882781521632  1.0000
  N   N4        1.0  0.15831902954724333  0.6339122176704777  0.889787680152608  1.0000
  N   N5        1.0  0.8960979057583033  0.5375215664368084  0.008708133476837106  1.0000
  N   N6        1.0  0.11210985953119484  0.45884953336059187  0.1129943317990366  1.0000
  N   N7        1.0  0.9582061964947002  0.4595906425202045  0.14247262404983016  1.0000
  N   N8        1.0  0.9326455068565453  0.5395055405142699  0.8547914742437968  1.0000
  N   N9        1.0  0.8549682942241574  0.45139037478532623  0.04904620824203216  1.0000
  N   N10       1.0  0.15454521508049615  0.5459489112285922  0.06964207625155434  1.0000
  N   N11       1.0  0.0009627198053081313  0.5456511151639772  0.09872869861111158  1.0000
  N   N12       1.0  0.8949983288942961  0.4525600275883476  0.8948671885760219  1.0000
  N   N13       1.0  0.9113872331878314  0.2892957610630091  0.14013374103398488  1.0000
  N   N14       1.0  0.11228072991576697  0.6385545192404081  0.8475579159010779  1.0000
  N   N15       1.0  0.04055015981208488  0.7098882219031066  0.9206637709332951  1.0000
  N   N16       1.0  0.06232918812348481  0.4352044024021637  0.9902868468077272  1.0000
