data_image0
_chemical_formula_structural       Fe2Cu4H40C24N20
_chemical_formula_sum              "Fe2 Cu4 H40 C24 N20"
_cell_length_a       7.65879038295817
_cell_length_b       9.92662158603958
_cell_length_c       12.704883072462128
_cell_angle_alpha    89.9997085606071
_cell_angle_beta     89.0849058795441
_cell_angle_gamma    90.00008642981564

_space_group_name_H-M_alt    "P 1"
_space_group_IT_number       1

loop_
  _space_group_symop_operation_xyz
  'x, y, z'

loop_
  _atom_site_type_symbol
  _atom_site_label
  _atom_site_symmetry_multiplicity
  _atom_site_fract_x
  _atom_site_fract_y
  _atom_site_fract_z
  _atom_site_occupancy
  Fe  Fe1       1.0  0.9999977520664982  0.49999722585096146  0.999997359701702  1.0000
  Fe  Fe2       1.0  0.5000049031249035  5.7045797632e-06  0.5000101960327755  1.0000
  Cu  Cu1       1.0  0.5157334992370721  0.7029185899756598  0.8173208188811645  1.0000
  Cu  Cu2       1.0  0.9842815328044808  0.2029122412544311  0.6826795527607391  1.0000
  Cu  Cu3       1.0  0.4842661237530166  0.29708157815467456  0.18268021995011452  1.0000
  Cu  Cu4       1.0  0.015723300452947297  0.7970879268757471  0.317322254072778  1.0000
  H   H1        1.0  0.7253457780925103  0.5514474881899005  0.7273056822974342  1.0000
  H   H2        1.0  0.7746637704771756  0.05143233662319348  0.772687466319127  1.0000
  H   H3        1.0  0.2746526165142811  0.4485557021308963  0.2726906382147974  1.0000
  H   H4        1.0  0.22533726150494718  0.9485627945670315  0.22730727024914196  1.0000
  H   H5        1.0  0.5966274400068768  0.4539910959889824  0.7973977629354113  1.0000
  H   H6        1.0  0.9033987352680413  0.9539884226867059  0.7025983779597598  1.0000
  H   H7        1.0  0.40337483326971585  0.546009072149907  0.20260090475042605  1.0000
  H   H8        1.0  0.0966126914536218  0.0460117454586992  0.2973994689719747  1.0000
  H   H9        1.0  0.9662232339103837  0.3571645778824717  0.5327651893686963  1.0000
  H   H10       1.0  0.5337751031554204  0.8571548940393685  0.9672416881302653  1.0000
  H   H11       1.0  0.03376979562064259  0.6428396198009663  0.467239809355995  1.0000
  H   H12       1.0  0.4662311004006767  0.14284728888788584  0.0327561779797776  1.0000
  H   H13       1.0  0.9772938407615683  0.4496297407317087  0.6412390954032932  1.0000
  H   H14       1.0  0.5227137583947866  0.949624755047786  0.8587744488284061  1.0000
  H   H15       1.0  0.022703093240877992  0.5503714347747461  0.3587666761255336  1.0000
  H   H16       1.0  0.4772859290993452  0.0503754130948764  0.14122265407921472  1.0000
  H   H17       1.0  0.5768548085604265  0.4085955744492793  0.606592026987329  1.0000
  H   H18       1.0  0.9231451212886485  0.9085836661723975  0.893405185720191  1.0000
  H   H19       1.0  0.4231396170644217  0.5914056010757561  0.3934074566548915  1.0000
  H   H20       1.0  0.07684934303215839  0.09141247239961807  0.106591936378301  1.0000
  H   H21       1.0  0.501811828328961  0.5792115297390623  0.5954333172690485  1.0000
  H   H22       1.0  0.99819502520851  0.0791997762454315  0.9045691717414573  1.0000
  H   H23       1.0  0.498189152057691  0.42078964579379624  0.4045645680255846  1.0000
  H   H24       1.0  0.0018032919843590995  0.9207963623159826  0.09543187189382253  1.0000
  H   H25       1.0  0.2511047482943098  0.5209797438322923  0.718820157433605  1.0000
  H   H26       1.0  0.24890046501361243  0.0209645169526951  0.7811800136728095  1.0000
  H   H27       1.0  0.748892276024158  0.479029490828097  0.28118010378534564  1.0000
  H   H28       1.0  0.7510992224792261  0.9790346437978812  0.2188170892369002  1.0000
  H   H29       1.0  0.3220265582774999  0.351956501226951  0.7211560209752365  1.0000
  H   H30       1.0  0.17797552379827408  0.8519370383714817  0.77884672467669  1.0000
  H   H31       1.0  0.6779678286526831  0.6480507186431836  0.2788458242086165  1.0000
  H   H32       1.0  0.8220201559998372  0.14805204843926134  0.22115590293396548  1.0000
  H   H33       1.0  0.2796011251375958  0.3307303277437724  0.5281200324296905  1.0000
  H   H34       1.0  0.2204035139796616  0.8307197686004388  0.9718827918434914  1.0000
  H   H35       1.0  0.7203958991718125  0.6692718551720276  0.4718802288039258  1.0000
  H   H36       1.0  0.7795999747820018  0.16927939212968107  0.028121381341932806  1.0000
  H   H37       1.0  0.22418887882217578  0.5045578443904192  0.5211452722996982  1.0000
  H   H38       1.0  0.2758084446273229  0.0045434196875078  0.9788557830245781  1.0000
  H   H39       1.0  0.7758029352263661  0.495449375485954  0.4788542209212069  1.0000
  H   H40       1.0  0.724196427336416  0.9954597706263187  0.021143662248462602  1.0000
  C   C1        1.0  0.8598551851527176  0.6295802279448283  0.9346968601472202  1.0000
  C   C2        1.0  0.640142708902779  0.1295723011638756  0.5653023043177897  1.0000
  C   C3        1.0  0.1401431191445255  0.3704199401824583  0.06530497066441401  1.0000
  C   C4        1.0  0.3598544443953031  0.8704147708953444  0.4346900850999092  1.0000
  C   C5        1.0  0.2041902120897916  0.5672777786125354  0.9356275138492055  1.0000
  C   C6        1.0  0.29581643892807113  0.06728208074964931  0.5643716727888447  1.0000
  C   C7        1.0  0.7958120353851827  0.43272238952141606  0.06437272820609513  1.0000
  C   C8        1.0  0.7041884459338874  0.9327190947824775  0.43562698530364957  1.0000
  C   C9        1.0  0.5045375534480953  0.49018208767608235  0.6467723966498512  1.0000
  C   C10       1.0  0.9954625473908222  0.9901735152058821  0.8532268384736029  1.0000
  C   C11       1.0  0.49545948376211874  0.5098200952421904  0.3532270773990263  1.0000
  C   C12       1.0  0.0045370755953797  0.009823630748193998  0.14677420036395725  1.0000
  C   C13       1.0  0.31973163848769565  0.44344598745600894  0.6722121875657837  1.0000
  C   C14       1.0  0.1802758761006089  0.9434312575501735  0.8277917329681659  1.0000
  C   C15       1.0  0.6802666787194126  0.5565612324183248  0.3277888560464676  1.0000
  C   C16       1.0  0.8197237984875371  0.05656488102168569  0.17220615713256393  1.0000
  C   C17       1.0  0.22030056132040698  0.41459555528441433  0.5722024477777838  1.0000
  C   C18       1.0  0.27970684042188043  0.9145853229251059  0.9278039542238404  1.0000
  C   C19       1.0  0.7796990616748545  0.5854086424142438  0.427798591045118  1.0000
  C   C20       1.0  0.720291476774875  0.0854138378125597  0.07219708940515801  1.0000
  C   C21       1.0  0.030771574415133795  0.6159886832783954  0.11510451591443883  1.0000
  C   C22       1.0  0.4692370486401529  0.11599213865938648  0.3848939158220476  1.0000
  C   C23       1.0  0.9692306472517416  0.3840064478902078  0.8848973005207911  1.0000
  C   C24       1.0  0.5307652375359524  0.8840070220898824  0.6151039646811471  1.0000
  N   N1        1.0  0.7650228627118665  0.7075967853273325  0.8944475814467127  1.0000
  N   N2        1.0  0.7349960471420045  0.20760279226970374  0.6055559050756686  1.0000
  N   N3        1.0  0.2349819963394069  0.2923973384552738  0.10555265102990324  1.0000
  N   N4        1.0  0.2650204479458509  0.7924034202009196  0.39445136887778903  1.0000
  N   N5        1.0  0.3339693308503868  0.6081871433308521  0.8960922623889831  1.0000
  N   N6        1.0  0.166030793146632  0.1081941084098474  0.6039130756512138  1.0000
  N   N7        1.0  0.666031597934321  0.39181503958422326  0.10390877164248744  1.0000
  N   N8        1.0  0.8339741175117653  0.8918030375588798  0.3960840080801945  1.0000
  N   N9        1.0  0.5971033619476884  0.5299446001646546  0.7428684917376033  1.0000
  N   N10       1.0  0.9029100100423761  0.0299387231336397  0.7571270934082366  1.0000
  N   N11       1.0  0.40289632554515015  0.470054560585922  0.2571286111721137  1.0000
  N   N12       1.0  0.097093543219458  0.9700574154325564  0.24287314385981779  1.0000
  N   N13       1.0  0.0498922882554211  0.6891261382385634  0.18738229742802306  1.0000
  N   N14       1.0  0.45010611513676924  0.18912801420327702  0.312613507111486  1.0000
  N   N15       1.0  0.9501098431109654  0.310873022481104  0.8126250292919582  1.0000
  N   N16       1.0  0.5498896162788185  0.8108721539302479  0.6873859717372072  1.0000
  N   N17       1.0  0.03884304947512621  0.3766449224739432  0.5977684593754518  1.0000
  N   N18       1.0  0.46116035026194885  0.8766410509614672  0.9022373275648053  1.0000
  N   N19       1.0  0.96115524192777  0.6233602826112871  0.40223415861044753  1.0000
  N   N20       1.0  0.5388406301260033  0.12336113196347037  0.0977605577277387  1.0000
