data_image0
_chemical_formula_structural       Ag4H8C16O8
_chemical_formula_sum              "Ag4 H8 C16 O8"
_cell_length_a       6.128778672553617
_cell_length_b       7.498344419130446
_cell_length_c       8.938051575317134
_cell_angle_alpha    90.00088426659944
_cell_angle_beta     89.99930552271643
_cell_angle_gamma    111.2146688832556

_space_group_name_H-M_alt    "P 1"
_space_group_IT_number       1

loop_
  _space_group_symop_operation_xyz
  'x, y, z'

loop_
  _atom_site_type_symbol
  _atom_site_label
  _atom_site_symmetry_multiplicity
  _atom_site_fract_x
  _atom_site_fract_y
  _atom_site_fract_z
  _atom_site_occupancy
  Ag  Ag1       1.0  0.1101729661960604  0.08622689819156192  0.631657896115797  1.0000
  Ag  Ag2       1.0  0.3898161196225018  0.9137717972731777  0.13165826116821924  1.0000
  Ag  Ag3       1.0  0.8898206681137921  0.913779844958853  0.3683475612963106  1.0000
  Ag  Ag4       1.0  0.6101740265222019  0.08623063978834719  0.8683427209823548  1.0000
  H   H1        1.0  0.1802542310859963  0.4626871983335049  0.31773368376997974  1.0000
  H   H2        1.0  0.31974619782403124  0.5373301156344041  0.8177127943947298  1.0000
  H   H3        1.0  0.8197502326718363  0.5373068158144817  0.6822762487621786  1.0000
  H   H4        1.0  0.6802710051012825  0.4626896620334975  0.1822881877543949  1.0000
  H   H5        1.0  0.6327458070350716  0.7804650195721051  0.6705568207092085  1.0000
  H   H6        1.0  0.8672683876387951  0.21952979149616428  0.17054724549377195  1.0000
  H   H7        1.0  0.36724472386472234  0.21952317061834487  0.3294385672869139  1.0000
  H   H8        1.0  0.13273241544179376  0.7804784403073272  0.8294526178374326  1.0000
  C   C1        1.0  0.2744870146172574  0.7798424239968258  0.4873886512902033  1.0000
  C   C2        1.0  0.2255170881680471  0.2201561391009008  0.9873778647289413  1.0000
  C   C3        1.0  0.7255158111914781  0.2201515755263941  0.5126112119401113  1.0000
  C   C4        1.0  0.7744847361988505  0.7798506767317475  0.012619760964632598  1.0000
  C   C5        1.0  0.3956533912910061  0.6386783714925954  0.491281809437595  1.0000
  C   C6        1.0  0.10436030539317902  0.3613274614953284  0.9912817079163074  1.0000
  C   C7        1.0  0.6043514770783672  0.3613127961059134  0.5087158161415886  1.0000
  C   C8        1.0  0.8956462406022397  0.638686521422116  0.008719274240107197  1.0000
  C   C9        1.0  0.3205333769472816  0.47851885606937816  0.39717332785176745  1.0000
  C   C10       1.0  0.17947252102536743  0.5214840448908475  0.897165721813671  1.0000
  C   C11       1.0  0.6794729172240751  0.5214680491447012  0.6028276541299675  1.0000
  C   C12       1.0  0.8205241771853481  0.47851845028758777  0.10282519100102407  1.0000
  C   C13       1.0  0.5770696608877799  0.659603807560842  0.5939086934508636  1.0000
  C   C14       1.0  0.9229351221733991  0.3403925990583261  0.09390357441596818  1.0000
  C   C15       1.0  0.42293397401220995  0.3403844990502662  0.40609116973909914  1.0000
  C   C16       1.0  0.07706055473902759  0.6596113121079413  0.9060918136605094  1.0000
  O   O1        1.0  0.2882829283746632  0.879978347597941  0.6042625897102949  1.0000
  O   O2        1.0  0.21171770478908059  0.12001575673025398  0.1042485581607835  1.0000
  O   O3        1.0  0.7117086237634993  0.1200084266896013  0.39573951114476097  1.0000
  O   O4        1.0  0.7882744839222511  0.8799838483980693  0.8957490675265872  1.0000
  O   O5        1.0  0.16021080327007547  0.7846363645781337  0.36803876729669577  1.0000
  O   O6        1.0  0.33979459770489484  0.21537178693309755  0.8680247180238678  1.0000
  O   O7        1.0  0.8397846614173402  0.21536326968932676  0.6319644524374155  1.0000
  O   O8        1.0  0.66021173612544  0.7846379190006089  0.1319729076694571  1.0000
