data_image0
_chemical_formula_structural       Zn2H42C50N6O18
_chemical_formula_sum              "Zn2 H42 C50 N6 O18"
_cell_length_a       9.758806060028085
_cell_length_b       10.645058990605603
_cell_length_c       12.0639
_cell_angle_alpha    87.86664651962356
_cell_angle_beta     84.65235909900917
_cell_angle_gamma    69.44841297915356

_space_group_name_H-M_alt    "P 1"
_space_group_IT_number       1

loop_
  _space_group_symop_operation_xyz
  'x, y, z'

loop_
  _atom_site_type_symbol
  _atom_site_label
  _atom_site_symmetry_multiplicity
  _atom_site_fract_x
  _atom_site_fract_y
  _atom_site_fract_z
  _atom_site_occupancy
  Zn  Zn1       1.0  0.329151040336498  0.8049678805823604  0.9612814219923036  1.0000
  Zn  Zn2       1.0  0.670850655458274  0.195030754876548  0.038718246306260105  1.0000
  H   H1        1.0  0.7750293425253646  0.7918331317045855  0.9879573623120165  1.0000
  H   H2        1.0  0.224971969551369  0.2081665070195911  0.012039815202719196  1.0000
  H   H3        1.0  0.7439183393761368  0.47624299946816245  0.21197394061266545  1.0000
  H   H4        1.0  0.2560836181775912  0.5237576425212822  0.7880248131231865  1.0000
  H   H5        1.0  0.15586368868033418  0.5399031904658286  0.14645887502273777  1.0000
  H   H6        1.0  0.8441364722422691  0.46009945805415237  0.8535399482532282  1.0000
  H   H7        1.0  0.8651346571573981  0.5727992553110255  0.39892102852336814  1.0000
  H   H8        1.0  0.13486832959136305  0.4272013866784192  0.601077647620734  1.0000
  H   H9        1.0  0.7698085376116168  0.5202401944945834  0.587696391302913  1.0000
  H   H10       1.0  0.2301920070290251  0.47976145076012233  0.41230077816018706  1.0000
  H   H11       1.0  0.6466078592149457  0.3594087460452897  0.7939459417624236  1.0000
  H   H12       1.0  0.3533934528617806  0.6405908926788868  0.20605289359098578  1.0000
  H   H13       1.0  0.9524248339820431  0.0991537096195643  0.5120725930996172  1.0000
  H   H14       1.0  0.04757403598656402  0.9008469323698803  0.48792556449213  1.0000
  H   H15       1.0  0.08619665366386899  0.0345634917192328  0.3223623583699862  1.0000
  H   H16       1.0  0.9138032454997783  0.9654371502702119  0.6776357216300183  1.0000
  H   H17       1.0  0.07578256188381968  0.1591469660657197  0.22535669347966797  1.0000
  H   H18       1.0  0.924216953561789  0.8408546791889931  0.7746430403331956  1.0000
  H   H19       1.0  0.1283683292964639  0.9641228727702185  0.7890133502325795  1.0000
  H   H20       1.0  0.8716327210213136  0.0358747594234217  0.21098805752222205  1.0000
  H   H21       1.0  0.1489663940315538  0.11057086835994309  0.6260122004109404  1.0000
  H   H22       1.0  0.8510342725681782  0.8894277670989651  0.373990032237387  1.0000
  H   H23       1.0  0.5627834756505337  0.0992329675756665  0.7376745747090608  1.0000
  H   H24       1.0  0.43721757466723665  0.9007646646179737  0.2623284908844211  1.0000
  H   H25       1.0  0.5206004890831436  0.9612926614515372  0.8968776409370562  1.0000
  H   H26       1.0  0.47939850284455326  0.038704970742102794  0.10312557983991869  1.0000
  H   H27       1.0  0.2625950296458797  0.11003713123781009  0.45950017499172446  1.0000
  H   H28       1.0  0.7374038403227272  0.8899635107516345  0.5405046139547237  1.0000
  H   H29       1.0  0.3306467126414603  0.21445497371420427  0.28718850470441026  1.0000
  H   H30       1.0  0.6693486860239943  0.7855466715405086  0.7128156840721258  1.0000
  H   H31       1.0  0.5983260297345295  0.362834896932668  0.4487039340426762  1.0000
  H   H32       1.0  0.4016714273209985  0.6371667483220449  0.5512992706310271  1.0000
  H   H33       1.0  0.5258770759909338  0.2794103801717823  0.6325939812999337  1.0000
  H   H34       1.0  0.4741256489988783  0.7205882552871259  0.36741058292291473  1.0000
  H   H35       1.0  0.1476495514739966  0.029491985793697495  0.07380906226863708  1.0000
  H   H36       1.0  0.8523538189928102  0.9705076529304861  0.9261896179012862  1.0000
  H   H37       1.0  0.2150631702570819  0.910566566278213  0.1592363393888192  1.0000
  H   H38       1.0  0.7849367289065654  0.0894340757112317  0.8407633984498586  1.0000
  H   H39       1.0  0.4308943497094688  0.5639925927958203  0.8516182454101652  1.0000
  H   H40       1.0  0.5691073460852962  0.4360060426630952  0.14838059396906542  1.0000
  H   H41       1.0  0.4556586449067979  0.6729431877492829  0.7620811305071769  1.0000
  H   H42       1.0  0.544340608779855  0.3270564509748937  0.23791868894906537  1.0000
  C   C1        1.0  0.0666248679996428  0.7504474361686063  0.004826526133079804  1.0000
  C   C2        1.0  0.9333760603590447  0.2495532058208383  0.9951723051945153  1.0000
  C   C3        1.0  0.9744238037462908  0.6759720455908678  0.06224440598477795  1.0000
  C   C4        1.0  0.02557647913540249  0.3240275931333159  0.937754506960381  1.0000
  C   C5        1.0  0.8261937014936648  0.7103950801726953  0.04453168080757308  1.0000
  C   C6        1.0  0.1738061976699825  0.2896055618167495  0.9554672281117647  1.0000
  C   C7        1.0  0.742703179308961  0.6393659057876775  0.09890478143972103  1.0000
  C   C8        1.0  0.25729954568084407  0.3606327296712308  0.9010939803477596  1.0000
  C   C9        1.0  0.5843192020164026  0.674267497901944  0.07878366210427148  1.0000
  C   C10       1.0  0.41568249377836963  0.3257311375569643  0.9212151772749522  1.0000
  C   C11       1.0  0.8073401642160576  0.5337702298876223  0.171347056003249  1.0000
  C   C12       1.0  0.1926601186656355  0.4662294088365542  0.8286518569419029  1.0000
  C   C13       1.0  0.9556467600235902  0.499381306324878  0.18688112515559396  1.0000
  C   C14       1.0  0.04435237170397239  0.5006213421951031  0.8131210913894689  1.0000
  C   C15       1.0  0.039966020699658586  0.5688925403606717  0.1336298646446394  1.0000
  C   C16       1.0  0.9600332329869942  0.4311070983635048  0.8663691258922696  1.0000
  C   C17       1.0  0.9630474234685166  0.366025280482269  0.3516042780734238  1.0000
  C   C18       1.0  0.03694797519693081  0.6339763647724439  0.6483974239450985  1.0000
  C   C19       1.0  0.8830770494801071  0.469396717285008  0.42434450684000774  1.0000
  C   C20       1.0  0.11691964013933633  0.5306069345002413  0.5756578608627264  1.0000
  C   C21       1.0  0.8299267048150726  0.440279952701232  0.5296229466750688  1.0000
  C   C22       1.0  0.1700724269124905  0.5597226958187491  0.47037595419263306  1.0000
  C   C23       1.0  0.8570084274825334  0.30635407218686334  0.5616117245692321  1.0000
  C   C24       1.0  0.142990058768028  0.6936475730678424  0.43838560007736044  1.0000
  C   C25       1.0  0.7950430687473045  0.2738412546737266  0.6708136926077088  1.0000
  C   C26       1.0  0.2049547720262694  0.726159387315718  0.3291828847371149  1.0000
  C   C27       1.0  0.9370874623964625  0.20232449336886293  0.4874500626175475  1.0000
  C   C28       1.0  0.06291140757215168  0.7976761486205817  0.5125456082161861  1.0000
  C   C29       1.0  0.991891457573196  0.2292380874259337  0.38119258936151806  1.0000
  C   C30       1.0  0.008108057872405506  0.770763557828772  0.6188046576933316  1.0000
  C   C31       1.0  0.2217479854708343  0.9981044706344946  0.7737094150698737  1.0000
  C   C32       1.0  0.778250622738824  0.0018941648244136997  0.2262921438426062  1.0000
  C   C33       1.0  0.2354514821827109  0.0780570475815381  0.6828375593441507  1.0000
  C   C34       1.0  0.7645471260269474  0.9219415878773773  0.3171639995683293  1.0000
  C   C35       1.0  0.36089210255430965  0.1145829261633509  0.6650976081509511  1.0000
  C   C36       1.0  0.6391079185684274  0.8854147060302964  0.33490553503427367  1.0000
  C   C37       1.0  0.4625862270930767  0.0752298460586545  0.7457633058574229  1.0000
  C   C38       1.0  0.5374141777476993  0.9247667828697245  0.2542398413536233  1.0000
  C   C39       1.0  0.44064363046947347  0.996489213554355  0.8351176802724396  1.0000
  C   C40       1.0  0.5593539485451444  0.0035094219045533  0.16488561407046376  1.0000
  C   C41       1.0  0.39116301093136485  0.1829775259567796  0.562031096022146  1.0000
  C   C42       1.0  0.6088373939094112  0.8170191029715923  0.4379695644308867  1.0000
  C   C43       1.0  0.3343968248924085  0.1679726906210064  0.4627874938606169  1.0000
  C   C44       1.0  0.6656048709023636  0.8320259448379018  0.5372130033572873  1.0000
  C   C45       1.0  0.3750601086449805  0.2240170949755864  0.36486625375309956  1.0000
  C   C46       1.0  0.6249376101695033  0.7759865568096558  0.6351360363578848  1.0000
  C   C47       1.0  0.5223961250737972  0.307557990507469  0.455230274425702  1.0000
  C   C48       1.0  0.47760209941781534  0.6924416482167074  0.5447721093803038  1.0000
  C   C49       1.0  0.4841733396292227  0.2585254071051253  0.5574346898656231  1.0000
  C   C50       1.0  0.5158277106885548  0.7414722250885148  0.4425683757278592  1.0000
  N   N1        1.0  0.0758503204131742  0.1321009409933822  0.3072270521885656  1.0000
  N   N2        1.0  0.924150224227468  0.8679007042613235  0.6927709461938747  1.0000
  N   N3        1.0  0.32445312747488947  0.9552038445450889  0.8472842258288367  1.0000
  N   N4        1.0  0.6755454807347618  0.0447947909138193  0.15271733308364327  1.0000
  N   N5        1.0  0.47034856861841234  0.2896717773243864  0.36001606350890814  1.0000
  N   N6        1.0  0.5296503013501949  0.7103288646650583  0.6399854097601931  1.0000
  O   O1        1.0  0.20011245484769094  0.7104954066994082  0.030467812093498  1.0000
  O   O2        1.0  0.7998874443159565  0.2895052352900365  0.9695310968258467  1.0000
  O   O3        1.0  0.013581700242575283  0.8444965321088134  0.9366317073956195  1.0000
  O   O4        1.0  0.986421024747237  0.155502103350095  0.0633645676338475  1.0000
  O   O5        1.0  0.5099670835459662  0.6111330179042795  0.1325483492159734  1.0000
  O   O6        1.0  0.4900352577258004  0.388866620819897  0.8674495796263528  1.0000
  O   O7        1.0  0.5327746621164167  0.7672130020482655  0.008034470898671485  1.0000
  O   O8        1.0  0.4672256207652765  0.23278663667591099  0.9919644420464877  1.0000
  O   O9        1.0  0.027563485373775648  0.3867728062073183  0.24946207653199073  1.0000
  O   O10       1.0  0.9724357683128773  0.6132268325168582  0.7505377429242516  1.0000
  O   O11       1.0  0.7036337304366  0.380696028484074  0.7254953727439926  1.0000
  O   O12       1.0  0.2963678433990822  0.6193056167706387  0.2745033769660381  1.0000
  O   O13       1.0  0.822307439054768  0.1566839498348216  0.7063866387806499  1.0000
  O   O14       1.0  0.17768872704677102  0.8433156888893549  0.2936092688541406  1.0000
  O   O15       1.0  0.24061687911088112  0.9571361334496586  0.09238770551427679  1.0000
  O   O16       1.0  0.7593858458789242  0.042862502009249695  0.9076127141118846  1.0000
  O   O17       1.0  0.39579280074958934  0.660725423325701  0.8321347484342922  1.0000
  O   O18       1.0  0.604208511327144  0.3392742153984756  0.16786574475779759  1.0000
