data_image0
_chemical_formula_structural       Nd2H32C18O16
_chemical_formula_sum              "Nd2 H32 C18 O16"
_cell_length_a       9.031262198855062
_cell_length_b       9.852112476883349
_cell_length_c       10.33185401419349
_cell_angle_alpha    68.38262063048657
_cell_angle_beta     78.575384824501
_cell_angle_gamma    58.40091910887852

_space_group_name_H-M_alt    "P 1"
_space_group_IT_number       1

loop_
  _space_group_symop_operation_xyz
  'x, y, z'

loop_
  _atom_site_type_symbol
  _atom_site_label
  _atom_site_symmetry_multiplicity
  _atom_site_fract_x
  _atom_site_fract_y
  _atom_site_fract_z
  _atom_site_occupancy
  Nd  Nd1       1.0  0.7824703350386173  0.4605767488593885  0.009617728158872187  1.0000
  Nd  Nd2       1.0  0.21753074241956946  0.5394222512274  0.9903882280352153  1.0000
  H   H1        1.0  0.6294232938383928  0.9274690937254776  0.15488958032828037  1.0000
  H   H2        1.0  0.3705820730879097  0.07253676084111761  0.8450998639042596  1.0000
  H   H3        1.0  0.5468642476567425  0.9666397577601488  0.3149125431885622  1.0000
  H   H4        1.0  0.45314210845719327  0.0333636904519281  0.6850805245264838  1.0000
  H   H5        1.0  0.5377257935953285  0.6977697860887133  0.41608877744118905  1.0000
  H   H6        1.0  0.46226370359188734  0.30224961481187756  0.5839192839509337  1.0000
  H   H7        1.0  0.6317315063625984  0.649750631942787  0.2614765186209098  1.0000
  H   H8        1.0  0.3682556545406542  0.3502600647621179  0.7385319682844768  1.0000
  H   H9        1.0  0.48968433748995477  0.4834719415328906  0.3981366504757418  1.0000
  H   H10       1.0  0.510307826702949  0.5165438007213156  0.6018762283777053  1.0000
  H   H11       1.0  0.28507599298998804  0.6678042916983672  0.38801132512679704  1.0000
  H   H12       1.0  0.714906431946062  0.3322090460749791  0.6119978102576411  1.0000
  H   H13       1.0  0.07749626966512582  0.24205820797266853  0.46834708325921787  1.0000
  H   H14       1.0  0.9225059232421129  0.757913930514967  0.5316438657939102  1.0000
  H   H15       1.0  0.19215016142057098  0.3439194469666234  0.35276687026229336  1.0000
  H   H16       1.0  0.807856012891108  0.6560557467847586  0.647242870415738  1.0000
  H   H17       1.0  0.27959910169256835  0.9561789316038087  0.28072096439282024  1.0000
  H   H18       1.0  0.7203939168598624  0.043829610775233604  0.7192652291633268  1.0000
  H   H19       1.0  0.377978708053945  0.9064038243277039  0.1257285779851429  1.0000
  H   H20       1.0  0.6220372807500071  0.09359182724144689  0.8742630804030755  1.0000
  H   H21       1.0  0.1676402963800854  0.18230633672817484  0.026932603140160376  1.0000
  H   H22       1.0  0.8323632990717231  0.8176973844532966  0.9730665374482755  1.0000
  H   H23       1.0  0.05323809178007371  0.08937636453632791  0.07338912956721091  1.0000
  H   H24       1.0  0.9467653848242179  0.9106269339613109  0.9265975679426576  1.0000
  H   H25       1.0  0.7868213727857524  0.20155788070361075  0.24725684647861362  1.0000
  H   H26       1.0  0.21317491081656217  0.7984423268047038  0.7527444479405788  1.0000
  H   H27       1.0  0.6332257205403665  0.22354194535157032  0.17450918156879416  1.0000
  H   H28       1.0  0.36677446138662617  0.7764628467667337  0.8254822608080589  1.0000
  H   H29       1.0  0.8268560920924557  0.5212463949203966  0.4741307876019577  1.0000
  H   H30       1.0  0.17314814628921474  0.4787150306751613  0.5258781863821868  1.0000
  H   H31       1.0  0.9354459770624997  0.6240308438634159  0.35375250622425386  1.0000
  H   H32       1.0  0.06456143524564337  0.3759320602494043  0.6462652458099074  1.0000
  C   C1        1.0  0.37862296326656514  0.6024071947474567  0.20011763669035795  1.0000
  C   C2        1.0  0.6213694640117498  0.3976177285226825  0.7998706714532704  1.0000
  C   C3        1.0  0.5081206066736144  0.9839369974298576  0.2131479814925896  1.0000
  C   C4        1.0  0.49186957544414167  0.01606940825661949  0.7868470749773309  1.0000
  C   C5        1.0  0.5066098042217247  0.7095582140079203  0.3132966590420097  1.0000
  C   C6        1.0  0.49337782052734286  0.2904596068387447  0.6867005553331041  1.0000
  C   C7        1.0  0.972805018802838  0.3842977428964574  0.26304857066172355  1.0000
  C   C8        1.0  0.02720966734590044  0.6156970599975721  0.736917368127223  1.0000
  C   C9        1.0  0.4096722793298824  0.6144357086386096  0.33344885273353236  1.0000
  C   C10       1.0  0.590320597517689  0.3855772744733059  0.6665571414632653  1.0000
  C   C11       1.0  0.0630554897257056  0.3572154266866648  0.3856206649545443  1.0000
  C   C12       1.0  0.9369594438657177  0.6427572440701256  0.6143946634220399  1.0000
  C   C13       1.0  0.4116020645302214  0.1695988528170602  0.13587393715079804  1.0000
  C   C14       1.0  0.5884059632614367  0.8304082323231229  0.8641166794017039  1.0000
  C   C15       1.0  0.4056462700105429  0.8948606643709097  0.22942226132781232  1.0000
  C   C16       1.0  0.5943517123638885  0.10513682225058568  0.7705739493465488  1.0000
  C   C17       1.0  0.9553747693547975  0.5089843209920276  0.43970047347315255  1.0000
  C   C18       1.0  0.04463719107054939  0.490984814373327  0.5603193750329681  1.0000
  O   O1        1.0  0.5025255330072935  0.5689041678477337  0.1115341148825167  1.0000
  O   O2        1.0  0.49748278973834903  0.4310886024202959  0.8884779452332553  1.0000
  O   O3        1.0  0.0009144117726194516  0.4665074442431489  0.14001563447630616  1.0000
  O   O4        1.0  0.9990895211709938  0.5334956187630199  0.8600011470759271  1.0000
  O   O5        1.0  0.3158317395121841  0.22620340849298512  0.03185654592413558  1.0000
  O   O6        1.0  0.6841747046549786  0.7737926709411055  0.9681410220332654  1.0000
  O   O7        1.0  0.232950651894434  0.6213465709375897  0.18214908251949424  1.0000
  O   O8        1.0  0.7670459082408385  0.3786539893585044  0.8178627200388606  1.0000
  O   O9        1.0  0.42627621222770545  0.2717408305204287  0.1741377482780138  1.0000
  O   O10       1.0  0.5737170101553064  0.7282632103744433  0.8258635660283674  1.0000
  O   O11       1.0  0.863571742831198  0.33517237228545577  0.2797165152208835  1.0000
  O   O12       1.0  0.13641679172562954  0.6648587208296849  0.7202662543880151  1.0000
  O   O13       1.0  0.055299202981117915  0.1911811961969505  0.014113163710838691  1.0000
  O   O14       1.0  0.9447027904251688  0.8088261869383473  0.9858819928583956  1.0000
  O   O15       1.0  0.7559923608039155  0.20096623710058742  0.16178291037943646  1.0000
  O   O16       1.0  0.24400606753246024  0.7990373976476307  0.8382101280589825  1.0000
