data_image0
_chemical_formula_structural       Al2H16C26N2Cl2O10
_chemical_formula_sum              "Al2 H16 C26 N2 Cl2 O10"
_cell_length_a       6.617513904490714
_cell_length_b       11.185335373024547
_cell_length_c       15.226234186421292
_cell_angle_alpha    84.4614057857036
_cell_angle_beta     78.50398437505869
_cell_angle_gamma    71.83392401661318

_space_group_name_H-M_alt    "P 1"
_space_group_IT_number       1

loop_
  _space_group_symop_operation_xyz
  'x, y, z'

loop_
  _atom_site_type_symbol
  _atom_site_label
  _atom_site_symmetry_multiplicity
  _atom_site_fract_x
  _atom_site_fract_y
  _atom_site_fract_z
  _atom_site_occupancy
  Al  Al1       1.0  0.4975140708746934  0.5050776814515314  0.5022967747122209  1.0000
  Al  Al2       1.0  0.0009917362088600206  0.5001942603919503  0.5022284999931232  1.0000
  H   H1        1.0  0.3100559180660908  0.3515993590431704  0.5534960717205665  1.0000
  H   H2        1.0  0.7010520425245588  0.652989316297436  0.4529439050363422  1.0000
  H   H3        1.0  0.8666175796226127  0.4496750650623439  0.9498416304186676  1.0000
  H   H4        1.0  0.192889548538929  0.44427603171422436  0.054689061761258984  1.0000
  H   H5        1.0  0.6307625565958687  0.5689768503508716  0.236877672589813  1.0000
  H   H6        1.0  0.7286476400874023  0.5783637361710914  0.07021219305008938  1.0000
  H   H7        1.0  0.2931275636903834  0.5763668391679744  0.7644203352834255  1.0000
  H   H8        1.0  0.1899669477288271  0.5805140810464449  0.9310445663354017  1.0000
  H   H9        1.0  0.2001624646486135  0.23612431261485506  0.3735292967998518  1.0000
  H   H10       1.0  0.5242320630629961  0.11878346679051079  0.27248257222967  1.0000
  H   H11       1.0  0.41718917088912366  0.7677378412786809  0.37623201335071604  1.0000
  H   H12       1.0  0.6331580969065839  0.8833589345143196  0.2733686235162622  1.0000
  H   H13       1.0  0.05756924789030642  0.46308657167888606  0.7110910751476993  1.0000
  H   H14       1.0  0.12638011087435785  0.42970793930339113  0.8172705577041341  1.0000
  H   H15       1.0  0.9975132930669661  0.44242927532287973  0.2930714953150114  1.0000
  H   H16       1.0  0.9541468410698428  0.4210045009692537  0.18675015227935177  1.0000
  C   C1        1.0  0.8598725008948662  0.2767593475749733  0.49543086640851197  1.0000
  C   C2        1.0  0.6803158838648923  0.5091682280607371  0.6643266790130726  1.0000
  C   C3        1.0  0.13359427253295303  0.7288930942538059  0.5064470343958122  1.0000
  C   C4        1.0  0.3148691353234128  0.5003086941495168  0.3392938838168931  1.0000
  C   C5        1.0  0.6335061661539568  0.5129311022734837  0.7628258890472921  1.0000
  C   C6        1.0  0.360290681183116  0.5017175329221287  0.2407449953019594  1.0000
  C   C7        1.0  0.8011292163559247  0.4799872949242143  0.8150375988065832  1.0000
  C   C8        1.0  0.7391211605345659  0.47952111109684376  0.9094786173902208  1.0000
  C   C9        1.0  0.22918633989958428  0.46845435924525  0.18882610406149072  1.0000
  C   C10       1.0  0.28926596427790935  0.47307759242763575  0.09428405619056691  1.0000
  C   C11       1.0  0.5385904392520331  0.5400776477832989  0.19557180906012664  1.0000
  C   C12       1.0  0.594291721014521  0.5439525395194523  0.10309845079795821  1.0000
  C   C13       1.0  0.41668828920957435  0.547324166844504  0.8065277240110902  1.0000
  C   C14       1.0  0.3593613966565598  0.5479762869475236  0.8990772180348757  1.0000
  C   C15       1.0  0.5233975654218668  0.512051778683741  0.951922336828858  1.0000
  C   C16       1.0  0.4680287653146636  0.5093427265747578  0.0508910706944334  1.0000
  C   C17       1.0  0.9296382102422739  0.13567614977377218  0.4966291207963991  1.0000
  C   C18       1.0  0.12072789355824645  0.06987805912789469  0.43749871899729703  1.0000
  C   C19       1.0  0.8095503522035371  0.0701142382783146  0.555542438869118  1.0000
  C   C20       1.0  0.24694864382772141  0.13381252670783536  0.37566637969398914  1.0000
  C   C21       1.0  0.4290273639963046  0.0677662679423676  0.3188090928011604  1.0000
  C   C22       1.0  0.060444478008200436  0.8700286541662619  0.5017565122351401  1.0000
  C   C23       1.0  0.8761482119580319  0.9360754216569018  0.5586184516148764  1.0000
  C   C24       1.0  0.18564779080067942  0.9347624771632751  0.439367583333393  1.0000
  C   C25       1.0  0.3709476480179248  0.8699261941663678  0.3778712585050314  1.0000
  C   C26       1.0  0.49081021914434325  0.934910804646648  0.3195459031541006  1.0000
  N   N1        1.0  0.014860075712633102  0.4433599818073261  0.7775424602659129  1.0000
  N   N2        1.0  0.05413059328401462  0.4300862392299861  0.22637240711061682  1.0000
  Cl  Cl1       1.0  0.7314214556055274  0.8575933388397842  0.6363677444904499  1.0000
  Cl  Cl2       1.0  0.5845873070580153  0.14828951643855956  0.6302527837077891  1.0000
  O   O1        1.0  0.6724774052181457  0.3342212387674479  0.4789056662889736  1.0000
  O   O2        1.0  0.863581955436004  0.5208728341345078  0.6240306393508348  1.0000
  O   O3        1.0  0.0054188130454307214  0.672578560297758  0.4910865330155687  1.0000
  O   O4        1.0  0.44619449500580527  0.5267243895615293  0.380056153347141  1.0000
  O   O5        1.0  0.32221840701708954  0.6758717897602509  0.5233164509982444  1.0000
  O   O6        1.0  0.14249077693851586  0.4741539469435662  0.3800141049994111  1.0000
  O   O7        1.0  0.994413522663663  0.32855793762729485  0.5108312082400205  1.0000
  O   O8        1.0  0.5389531745615272  0.4922970586261357  0.6247024627721987  1.0000
  O   O9        1.0  0.2643646542324161  0.4422515070168346  0.5420092048409799  1.0000
  O   O10       1.0  0.7372035089819775  0.5620753439891644  0.4618494352539102  1.0000
