data_image0
_chemical_formula_structural       Al2H16C26O10F2
_chemical_formula_sum              "Al2 H16 C26 O10 F2"
_cell_length_a       6.6412494974925105
_cell_length_b       11.132571821790446
_cell_length_c       17.839470138096747
_cell_angle_alpha    79.76688440541692
_cell_angle_beta     77.70922695365161
_cell_angle_gamma    73.02469033984038

_space_group_name_H-M_alt    "P 1"
_space_group_IT_number       1

loop_
  _space_group_symop_operation_xyz
  'x, y, z'

loop_
  _atom_site_type_symbol
  _atom_site_label
  _atom_site_symmetry_multiplicity
  _atom_site_fract_x
  _atom_site_fract_y
  _atom_site_fract_z
  _atom_site_occupancy
  Al  Al1       1.0  0.49965058609377155  0.4999879462020331  0.49995493267582003  1.0000
  Al  Al2       1.0  0.9996117821010911  0.4999457558840774  0.5000491366970794  1.0000
  H   H1        1.0  0.20946584478196684  0.6456749927967564  0.4394148574651453  1.0000
  H   H2        1.0  0.7895891332167652  0.35429730450263724  0.5605634067462404  1.0000
  H   H3        1.0  0.763014852021328  0.1271960985320462  0.4725666042145633  1.0000
  H   H4        1.0  0.23626341012237592  0.8727557005615696  0.5273598204397558  1.0000
  H   H5        1.0  0.5456906139874533  0.5651281681373276  0.26883614510377646  1.0000
  H   H6        1.0  0.6121735063052327  0.5712993576390558  0.12482131695946923  1.0000
  H   H7        1.0  0.21808523320171944  0.4105752938958602  0.26988454384983385  1.0000
  H   H8        1.0  0.7818669991522639  0.5892098421461965  0.7303883254958025  1.0000
  H   H9        1.0  0.4545488776685146  0.4353121356356411  0.7308713125330473  1.0000
  H   H10       1.0  0.3890741779896984  0.4293311894245165  0.874838205674493  1.0000
  H   H11       1.0  0.46538017290565387  0.35796587287767073  0.154208656517703  1.0000
  H   H12       1.0  0.3549000828064308  0.3094341331630091  0.0855320387208707  1.0000
  H   H13       1.0  0.3990358036158383  0.4610577449941643  0.06928710128606501  1.0000
  H   H14       1.0  0.6018465543571949  0.5387857430581136  0.9308907817611004  1.0000
  H   H15       1.0  0.6459262800037635  0.6904527911407782  0.9147095298782092  1.0000
  H   H16       1.0  0.5353173984367103  0.6419887723197207  0.8460311693208029  1.0000
  C   C1        1.0  0.8389113970950675  0.4941028538076183  0.3621881111359714  1.0000
  C   C2        1.0  0.6342763337797734  0.72646285966254  0.4971847419921148  1.0000
  C   C3        1.0  0.16051895764885424  0.5058081296726158  0.6378338223335334  1.0000
  C   C4        1.0  0.36499527954499195  0.2734930984528318  0.5028030415451639  1.0000
  C   C5        1.0  0.570328945273246  0.8667371304559739  0.49793644559239436  1.0000
  C   C6        1.0  0.42896967245736306  0.1332083259112693  0.5020315928605612  1.0000
  C   C7        1.0  0.7147013332214128  0.942128642729742  0.48249034072012625  1.0000
  C   C8        1.0  0.2845616690521879  0.05784570153042519  0.5174365821026968  1.0000
  C   C9        1.0  0.646882486993931  0.07172853232801658  0.48446173138748366  1.0000
  C   C10       1.0  0.35238520426052833  0.9282430247647256  0.5154538293885267  1.0000
  C   C11       1.0  0.8789553656410333  0.4891138765588822  0.27724271646242477  1.0000
  C   C12       1.0  0.7065815500335119  0.5325690992143707  0.23683190429139958  1.0000
  C   C13       1.0  0.7436717931365704  0.5348966583669326  0.15721570831896506  1.0000
  C   C14       1.0  0.9525737855903742  0.49074998908744066  0.11649474242171462  1.0000
  C   C15       1.0  0.12743281141387539  0.441974938123181  0.1573452675396467  1.0000
  C   C16       1.0  0.08670360179510075  0.44432204812474657  0.23716951581625523  1.0000
  C   C17       1.0  0.9862422763452159  0.4965813831383699  0.035199312821475814  1.0000
  C   C18       1.0  0.015083579646301384  0.5037236482403316  0.9647522689614477  1.0000
  C   C19       1.0  0.048442315572721356  0.5094909307407605  0.8834596463087651  1.0000
  C   C20       1.0  0.8732477102016177  0.5580363327348367  0.8427611485873855  1.0000
  C   C21       1.0  0.9135280123053492  0.5556352945546195  0.7629601463256677  1.0000
  C   C22       1.0  0.12110110541819097  0.5109260542636989  0.7227432941194538  1.0000
  C   C23       1.0  0.2938034964176807  0.4677485968473718  0.7629903828521521  1.0000
  C   C24       1.0  0.25724028802402177  0.46555081008063587  0.842580369437542  1.0000
  C   C25       1.0  0.348780102983383  0.3897893353750562  0.11483704889326422  1.0000
  C   C26       1.0  0.6520124945571482  0.6101222616704618  0.8853686488505446  1.0000
  O   O1        1.0  0.6436058575784571  0.5204829590251023  0.39545596048745324  1.0000
  O   O2        1.0  0.8323816636381094  0.6713170704474509  0.4837662060681822  1.0000
  O   O3        1.0  0.9994327911436188  0.5247843041602209  0.6049162160996815  1.0000
  O   O4        1.0  0.515901156842844  0.3272796862010878  0.48997709356093105  1.0000
  O   O5        1.0  0.35570539211485636  0.4794529573286184  0.6044366574268167  1.0000
  O   O6        1.0  0.16688331425609704  0.3286243791191126  0.5163248272769965  1.0000
  O   O7        1.0  0.9998294676183904  0.47503592969709263  0.3952229266333944  1.0000
  O   O8        1.0  0.48338709232935867  0.6726854951198292  0.5099143951987983  1.0000
  O   O9        1.0  0.24151259184142043  0.5586479218791071  0.46348347377736593  1.0000
  O   O10       1.0  0.7576196756209086  0.4413472333192061  0.5365381833614364  1.0000
  F   F1        1.0  0.9288762009176211  0.8905569242585187  0.4642895638687747  1.0000
  F   F2        1.0  0.07039036237687668  0.10941797209027732  0.5356089790860423  1.0000
