data_image0
_chemical_formula_structural       Cu4H16C40N24O8
_chemical_formula_sum              "Cu4 H16 C40 N24 O8"
_cell_length_a       6.749920148047455
_cell_length_b       10.15763586908536
_cell_length_c       15.598289199199737
_cell_angle_alpha    90.00042768835905
_cell_angle_beta     89.99957312372551
_cell_angle_gamma    89.99993450279987

_space_group_name_H-M_alt    "P 1"
_space_group_IT_number       1

loop_
  _space_group_symop_operation_xyz
  'x, y, z'

loop_
  _atom_site_type_symbol
  _atom_site_label
  _atom_site_symmetry_multiplicity
  _atom_site_fract_x
  _atom_site_fract_y
  _atom_site_fract_z
  _atom_site_occupancy
  Cu  Cu1       1.0  0.7500062872548909  0.34137779231441806  0.262668245718821  1.0000
  Cu  Cu2       1.0  0.2499991856971208  0.15862054071382664  0.7626644251756005  1.0000
  Cu  Cu3       1.0  0.7499986351848804  0.8413788474208487  0.2373334535680129  1.0000
  Cu  Cu4       1.0  0.2499959781185908  0.6586215958220619  0.737330274113603  1.0000
  H   H1        1.0  0.4361399327923294  0.23396649821306428  0.1512152180972137  1.0000
  H   H2        1.0  0.9361252027139527  0.2660315211208015  0.651210999140055  1.0000
  H   H3        1.0  0.06387478820855111  0.23396269070828876  0.1512126106596909  1.0000
  H   H4        1.0  0.4361273922734911  0.7339677365913816  0.34878820485545253  1.0000
  H   H5        1.0  0.5638652955523966  0.7660319054581208  0.848786507207592  1.0000
  H   H6        1.0  0.06386669218771603  0.7339688514869278  0.3487849563278331  1.0000
  H   H7        1.0  0.936130440179497  0.7660307905341526  0.8487846269604801  1.0000
  H   H8        1.0  0.563863021093141  0.2660296825972353  0.65121223827866  1.0000
  H   H9        1.0  0.43843704829565416  0.4456911735902552  0.3798273827806327  1.0000
  H   H10       1.0  0.9384315996751696  0.05431120836003339  0.8798226872671933  1.0000
  H   H11       1.0  0.06156592329005411  0.445683429781873  0.3798260649242309  1.0000
  H   H12       1.0  0.4384358647262588  0.9456880477318136  0.1201758682184675  1.0000
  H   H13       1.0  0.5615607725465496  0.554297385283128  0.6201762657979232  1.0000
  H   H14       1.0  0.06156473973459951  0.9456891642394184  0.12017198600165808  1.0000
  H   H15       1.0  0.9384318975604203  0.5543021756450132  0.6201769425505859  1.0000
  H   H16       1.0  0.5615619561409559  0.0543093714508487  0.879823933807792  1.0000
  C   C1        1.0  0.7499948550394253  0.17045687077388993  0.40392238810344594  1.0000
  C   C2        1.0  0.24999632558807866  0.32955574052273556  0.9039239575104077  1.0000
  C   C3        1.0  0.7500029767256892  0.6704564458986224  0.09608033222408352  1.0000
  C   C4        1.0  0.24999703985950827  0.8295464552769829  0.5960735673722368  1.0000
  C   C5        1.0  0.7499896566787218  0.07629185470019452  0.3297883685394609  1.0000
  C   C6        1.0  0.24999391565874873  0.4237111195511146  0.8297929993770765  1.0000
  C   C7        1.0  0.7500068681364384  0.5762961444779293  0.1702138547258372  1.0000
  C   C8        1.0  0.24999779374898887  0.9237075334146069  0.6702050225491831  1.0000
  C   C9        1.0  0.7500028403388584  0.9031924678602155  0.4299214038513028  1.0000
  C   C10       1.0  0.2500002977982021  0.5968168846038678  0.9299236679829974  1.0000
  C   C11       1.0  0.749999004521037  0.4031893949312104  0.0700806217359045  1.0000
  C   C12       1.0  0.249999425031895  0.09680987371940829  0.5700771159889088  1.0000
  C   C13       1.0  0.7500006969873922  0.9946205882668337  0.4967334593821278  1.0000
  C   C14       1.0  0.2500057314572075  0.5053924176323649  0.9967307532103575  1.0000
  C   C15       1.0  0.7500069043642416  0.4946197687742497  0.0032716132148707  1.0000
  C   C16       1.0  0.24999860538436286  0.005376830911949101  0.5032657015458071  1.0000
  C   C17       1.0  0.7500102304829002  0.7658279150420669  0.44666903182405093  1.0000
  C   C18       1.0  0.25001780385276373  0.7341875197420222  0.9466656101138753  1.0000
  C   C19       1.0  0.7500052025179686  0.2658177752634002  0.0533309864129663  1.0000
  C   C20       1.0  0.24998462741678654  0.23417245756462532  0.5533269236390765  1.0000
  C   C21       1.0  0.7500088850468746  0.9484045765734875  0.5828389341522566  1.0000
  C   C22       1.0  0.2500032122110839  0.5515912945437691  0.08284154933259912  1.0000
  C   C23       1.0  0.7500020161308356  0.4484041556876334  0.9171608170603565  1.0000
  C   C24       1.0  0.24998597281776114  0.051597765015451096  0.4171608678917593  1.0000
  C   C25       1.0  0.3528095763120689  0.28284726062749843  0.20174858688786662  1.0000
  C   C26       1.0  0.8528008628189884  0.21714937760853564  0.7017466742702041  1.0000
  C   C27       1.0  0.14719232906215754  0.2828483171504316  0.2017482761234106  1.0000
  C   C28       1.0  0.35281124232136574  0.7828479695198426  0.2982508741440881  1.0000
  C   C29       1.0  0.6471897260680282  0.7171531119877131  0.79824929185596  1.0000
  C   C30       1.0  0.14719103206326883  0.78284804156948  0.2982518455736809  1.0000
  C   C31       1.0  0.8528143808203412  0.7171500864967301  0.798248961507376  1.0000
  C   C32       1.0  0.6471880600457709  0.2171484651812534  0.7017489278771976  1.0000
  C   C33       1.0  0.35315208284391997  0.4011155997507884  0.32812493722833114  1.0000
  C   C34       1.0  0.8531450700767638  0.0988823623451083  0.828123041394349  1.0000
  C   C35       1.0  0.1468533460219419  0.4011176410103445  0.3281278330410373  1.0000
  C   C36       1.0  0.3531455616109227  0.9011189224663594  0.171873864844315  1.0000
  C   C37       1.0  0.6468501824851386  0.5988719746467127  0.6718799935323929  1.0000
  C   C38       1.0  0.1468542323051594  0.9011160413080077  0.1718748373442835  1.0000
  C   C39       1.0  0.85314299332952  0.5988679644170601  0.6718751744361597  1.0000
  C   C40       1.0  0.6468596667504161  0.09887948119475709  0.8281259371726435  1.0000
  N   N1        1.0  0.7499986412297802  0.1269668597171432  0.48480037371626844  1.0000
  N   N2        1.0  0.25000299420533173  0.37303773861816575  0.9847976850001885  1.0000
  N   N3        1.0  0.750008160127152  0.6269636184974416  0.0152046813988349  1.0000
  N   N4        1.0  0.24999917966329124  0.8730325284108243  0.5151962228354492  1.0000
  N   N5        1.0  0.7499975928410978  0.9456595914382929  0.3468156071219965  1.0000
  N   N6        1.0  0.2500040180248249  0.5543518437257474  0.8468163648781157  1.0000
  N   N7        1.0  0.7500056547958139  0.4456573892421217  0.1531866426400299  1.0000
  N   N8        1.0  0.2499943020467583  0.054343734619294495  0.653181630545582  1.0000
  N   N9        1.0  0.7500097892760568  0.9110468453679914  0.65367737341073  1.0000
  N   N10       1.0  0.24999663967989255  0.5889537058885423  0.15368146801073124  1.0000
  N   N11       1.0  0.7499967366330936  0.4110456822913592  0.8463247449873421  1.0000
  N   N12       1.0  0.24998803160223562  0.08895057380794918  0.3463211464236338  1.0000
  N   N13       1.0  0.750013174568615  0.6526668161192718  0.46100043305862215  1.0000
  N   N14       1.0  0.2500175751637528  0.8473477843490331  0.9609988908962424  1.0000
  N   N15       1.0  0.7500009866970532  0.152659479626756  0.0389989878348374  1.0000
  N   N16       1.0  0.2499846463429591  0.3473365099194439  0.538993599119692  1.0000
  N   N17       1.0  0.4539272121499495  0.3427650393532957  0.2644823854746292  1.0000
  N   N18       1.0  0.953924535698704  0.15723316980438537  0.7644827209421906  1.0000
  N   N19       1.0  0.046077942882256216  0.34276124433010574  0.264482399587628  1.0000
  N   N20       1.0  0.4539240359204158  0.842766075448928  0.23551899025134304  1.0000
  N   N21       1.0  0.5460780162141248  0.6572304108646776  0.7355174165345346  1.0000
  N   N22       1.0  0.04607772966096491  0.8427691717819528  0.2355170810899239  1.0000
  N   N23       1.0  0.953922840993066  0.6572312524429264  0.7355167613249378  1.0000
  N   N24       1.0  0.5460708219506643  0.15723528165560202  0.7644801706941209  1.0000
  O   O1        1.0  0.7500008083290766  0.2942739814783407  0.38747732163967197  1.0000
  O   O2        1.0  0.250002508434129  0.20572861268117743  0.8874750319362974  1.0000
  O   O3        1.0  0.7500056829271105  0.7942737288997248  0.11252412899034432  1.0000
  O   O4        1.0  0.24999997555556064  0.7057263911329911  0.6125199160058301  1.0000
  O   O5        1.0  0.7499873173802956  0.117262601160661  0.2531871273435726  1.0000
  O   O6        1.0  0.24999757832203784  0.38274449289610146  0.7531889775229104  1.0000
  O   O7        1.0  0.7500076499701722  0.6172627711313793  0.2468178765728624  1.0000
  O   O8        1.0  0.24998976252759067  0.8827358024935205  0.746809469238869  1.0000
