data_image0
_chemical_formula_structural       Mn4H16C16O16
_chemical_formula_sum              "Mn4 H16 C16 O16"
_cell_length_a       4.8439823742590935
_cell_length_b       6.279100794728058
_cell_length_c       15.349459856187211
_cell_angle_alpha    98.7201678919101
_cell_angle_beta     99.0633991570633
_cell_angle_gamma    89.98122496934155

_space_group_name_H-M_alt    "P 1"
_space_group_IT_number       1

loop_
  _space_group_symop_operation_xyz
  'x, y, z'

loop_
  _atom_site_type_symbol
  _atom_site_label
  _atom_site_symmetry_multiplicity
  _atom_site_fract_x
  _atom_site_fract_y
  _atom_site_fract_z
  _atom_site_occupancy
  Mn  Mn1       1.0  0.3199462105594577  0.2500081050148851  0.9998797808180271  1.0000
  Mn  Mn2       1.0  0.680060357912872  0.7499509613291906  0.0001145661804571396  1.0000
  Mn  Mn3       1.0  0.9999965547931353  1.3450914750000643e-05  0.5000006423034478  1.0000
  Mn  Mn4       1.0  0.5000083264510451  0.5000110288746454  0.4999958788854785  1.0000
  H   H1        1.0  0.7099589667533126  0.3698849526030444  0.7397390856061108  1.0000
  H   H2        1.0  0.9693631309394066  0.1299654388144802  0.2600286339839215  1.0000
  H   H3        1.0  0.2900359205930485  0.6301061026348336  0.2602697795356832  1.0000
  H   H4        1.0  0.030632107822107495  0.8700385095069764  0.7399810827855263  1.0000
  H   H5        1.0  0.9188615751860781  0.1503468159945527  0.7125191663706048  1.0000
  H   H6        1.0  0.20538259349864063  0.3490897239628765  0.287345655562568  1.0000
  H   H7        1.0  0.08112513382592111  0.8496507831284676  0.28748254848995464  1.0000
  H   H8        1.0  0.794656257418751  0.650903262249507  0.7126524929261393  1.0000
  H   H9        1.0  0.3740659524013097  0.14197343029508155  0.794759227984251  1.0000
  H   H10       1.0  0.5787684585384483  0.3581935492746666  0.20503498617570412  1.0000
  H   H11       1.0  0.6259267658289575  0.8580145248003177  0.20524151057603754  1.0000
  H   H12       1.0  0.42124146429253534  0.6418121206886838  0.7949710124206604  1.0000
  H   H13       1.0  0.5480308848356046  0.9104831155527934  0.7590304988061618  1.0000
  H   H14       1.0  0.7883537618021919  0.5894792318442938  0.24083975379002712  1.0000
  H   H15       1.0  0.4519366214656488  0.0895000510199182  0.2409621598890155  1.0000
  H   H16       1.0  0.21167094235510586  0.4105315111951882  0.7591549302634206  1.0000
  C   C1        1.0  0.7026423019783293  0.19503430448845901  0.717627557442505  1.0000
  C   C2        1.0  0.9839368932113288  0.3048389887454163  0.28217193434569054  1.0000
  C   C3        1.0  0.2973337921039203  0.8049570151631473  0.28236149569988817  1.0000
  C   C4        1.0  0.016079303966478196  0.6951667283635459  0.7178324251250175  1.0000
  C   C5        1.0  0.7590721622211519  0.09673988876375719  0.875404459110996  1.0000
  C   C6        1.0  0.8835073096324707  0.4032572711748444  0.1244135430979725  1.0000
  C   C7        1.0  0.24091384709488753  0.9032319669132178  0.12459294940201462  1.0000
  C   C8        1.0  0.1164832057414671  0.5967261109862536  0.8755705023775349  1.0000
  C   C9        1.0  0.5814113920567651  0.0832375532873257  0.7844817649887262  1.0000
  C   C10       1.0  0.7963215567215584  0.4168325346771411  0.21532783541763217  1.0000
  C   C11       1.0  0.4185812406704841  0.9167472105780093  0.21551680834546968  1.0000
  C   C12       1.0  0.2036904591255393  0.5831731723619669  0.7846763152573929  1.0000
  C   C13       1.0  0.537297000976004  0.16148074360391013  0.624620600676252  1.0000
  C   C14       1.0  0.9115755062897011  0.3385270085408649  0.37518598504068024  1.0000
  C   C15       1.0  0.4627070506860918  0.838539490735627  0.375381487396254  1.0000
  C   C16       1.0  0.0884191564777481  0.6615320187183898  0.6248096758757385  1.0000
  O   O1        1.0  0.2863445332307323  0.09303987437611741  0.6140402403617174  1.0000
  O   O2        1.0  0.6709823371211456  0.40696129950099186  0.3856326577374389  1.0000
  O   O3        1.0  0.7136409267792061  0.9069884369079804  0.3859575357591041  1.0000
  O   O4        1.0  0.3289875812413642  0.5931104536199215  0.6143691097631319  1.0000
  O   O5        1.0  0.0163176886926308  0.145499705673366  0.8854528071489369  1.0000
  O   O6        1.0  0.1306747040406293  0.35424985627903277  0.1142915986122617  1.0000
  O   O7        1.0  0.9836785590172213  0.8544641810826903  0.11454068644763278  1.0000
  O   O8        1.0  0.8693377293318889  0.6456945602466179  0.8857118650945852  1.0000
  O   O9        1.0  0.6573918727154079  0.21246939436882425  0.5609983473115889  1.0000
  O   O10       1.0  0.09542843266005718  0.28779474564743873  0.4388552599693654  1.0000
  O   O11       1.0  0.3426083560834385  0.7875638191069428  0.4389985266353094  1.0000
  O   O12       1.0  0.9046387570746502  0.7122414677268836  0.561168595445686  1.0000
  O   O13       1.0  0.6358122425433521  0.050275867071100315  0.9391234461758842  1.0000
  O   O14       1.0  0.6965827460001037  0.449987072989714  0.060759781643973616  1.0000
  O   O15       1.0  0.36416941757028815  0.9496896387970184  0.06086681999698842  1.0000
  O   O16       1.0  0.3034095745373548  0.5499863453458218  0.9392419511544006  1.0000
