data_image0
_chemical_formula_structural       Cd2H56C64N8O16
_chemical_formula_sum              "Cd2 H56 C64 N8 O16"
_cell_length_a       11.673574244441305
_cell_length_b       12.321885381208734
_cell_length_c       13.198083648485948
_cell_angle_alpha    102.5644194852443
_cell_angle_beta     90.00642622932493
_cell_angle_gamma    118.26189503255073

_space_group_name_H-M_alt    "P 1"
_space_group_IT_number       1

loop_
  _space_group_symop_operation_xyz
  'x, y, z'

loop_
  _atom_site_type_symbol
  _atom_site_label
  _atom_site_symmetry_multiplicity
  _atom_site_fract_x
  _atom_site_fract_y
  _atom_site_fract_z
  _atom_site_occupancy
  Cd  Cd1       1.0  0.7992605266899842  0.9999578390150244  0.7499092265352444  1.0000
  Cd  Cd2       1.0  0.2007411148139653  4.1131125279000976e-05  0.2500895828354857  1.0000
  H   H1        1.0  0.5511567175866218  0.6043315194571123  0.852429453718649  1.0000
  H   H2        1.0  0.9469889225069039  0.3956637726649177  0.6475418135404992  1.0000
  H   H3        1.0  0.4488437801161282  0.39567030338277936  0.14756990760069036  1.0000
  H   H4        1.0  0.05301016659029749  0.604335232191772  0.3524592756477175  1.0000
  H   H5        1.0  0.7069778135693525  0.6274706418734581  0.8892548238687538  1.0000
  H   H6        1.0  0.07967197696513749  0.37256756654277007  0.6106972573077484  1.0000
  H   H7        1.0  0.29302439152380794  0.3725311692992647  0.11074377753433846  1.0000
  H   H8        1.0  0.9203280396306183  0.6274332940152192  0.3893011600437291  1.0000
  H   H9        1.0  0.7647683979237172  0.6265097973907244  0.04314332084387467  1.0000
  H   H10       1.0  0.13834056075251766  0.37343750232796674  0.45686742224580706  1.0000
  H   H11       1.0  0.23523116070867184  0.3734901467937063  0.9568571923880496  1.0000
  H   H12       1.0  0.8616565988657285  0.6265662111197016  0.5431315470084427  1.0000
  H   H13       1.0  0.7325328040119884  0.6172578303692121  0.22654186424567505  1.0000
  H   H14       1.0  0.11545907782573286  0.3829390945488739  0.2734576934213138  1.0000
  H   H15       1.0  0.2674694242247995  0.38274402671185465  0.7734597770057261  1.0000
  H   H16       1.0  0.8845322730485279  0.6170598537777962  0.7265395957502746  1.0000
  H   H17       1.0  0.34379783500011746  0.6559703196667003  0.2684064184107413  1.0000
  H   H18       1.0  0.6881356804684698  0.3444864345964831  0.2316348589110433  1.0000
  H   H19       1.0  0.6562012309534567  0.3440286392816533  0.7315916309291666  1.0000
  H   H20       1.0  0.311856766440215  0.6555078511425875  0.7683675900198992  1.0000
  H   H21       1.0  0.19182094910801323  0.6796273770421022  0.15075392480515848  1.0000
  H   H22       1.0  0.5123649708735343  0.32054051186802457  0.34908759337417905  1.0000
  H   H23       1.0  0.8081829633755503  0.3203744224634447  0.8492439166816935  1.0000
  H   H24       1.0  0.4876315600310123  0.6794585162279674  0.6509150156694403  1.0000
  H   H25       1.0  0.24352175506798096  0.697531847693412  0.9685166834584392  1.0000
  H   H26       1.0  0.5460927310800727  0.30272889613716814  0.5313770644965102  1.0000
  H   H27       1.0  0.7564808370781506  0.3024690240565278  0.0314824939238605  1.0000
  H   H28       1.0  0.45390304886215926  0.697272056712727  0.4686274324370031  1.0000
  H   H29       1.0  0.43951130808643046  0.6924466068297973  0.9070789472059528  1.0000
  H   H30       1.0  0.7472029285377175  0.30794321593481294  0.5929900161634691  1.0000
  H   H31       1.0  0.5604911900056776  0.30755236321546414  0.09291986218769915  1.0000
  H   H32       1.0  0.25279312125983455  0.6920548498792767  0.4070116489122951  1.0000
  H   H33       1.0  0.9467306824436718  0.8822241614478585  0.8515397599319526  1.0000
  H   H34       1.0  0.06426213756832057  0.11758015736638326  0.6482649780748203  1.0000
  H   H35       1.0  0.05327114138242449  0.11777860062472457  0.14845902545400946  1.0000
  H   H36       1.0  0.9357404372200974  0.8824206799523037  0.3517319194212475  1.0000
  H   H37       1.0  0.15673332314985072  0.875709818567216  0.8550618722555682  1.0000
  H   H38       1.0  0.2809862631192246  0.12432452237997889  0.6448233810875975  1.0000
  H   H39       1.0  0.8432693630503038  0.12429295488740877  0.14493767311538616  1.0000
  H   H40       1.0  0.7190166987221644  0.8756753755159322  0.3551740923876777  1.0000
  H   H41       1.0  0.3754897283941716  0.9904815614101421  0.9114884684289136  1.0000
  H   H42       1.0  0.3847493845598465  0.009366935728664304  0.5885764200501029  1.0000
  H   H43       1.0  0.6245115492004344  0.009518394061281299  0.0885128048109109  1.0000
  H   H44       1.0  0.6152528378910347  0.990634909875311  0.41142446123922116  1.0000
  H   H45       1.0  0.5897302258605636  0.990631920880958  0.9046309363642208  1.0000
  H   H46       1.0  0.5988923120964742  0.00931181649878  0.5952942121940267  1.0000
  H   H47       1.0  0.4102722722315378  0.009367049164303901  0.09536787302943137  1.0000
  H   H48       1.0  0.4011103741036808  0.9906909569558452  0.4047053331769276  1.0000
  H   H49       1.0  0.8160970929912211  0.0299668966877604  0.9583646202212603  1.0000
  H   H50       1.0  0.7863321030885969  0.9701075522309638  0.5414648363106875  1.0000
  H   H51       1.0  0.18390511788784636  0.9700349259620465  0.041634741143909096  1.0000
  H   H52       1.0  0.21366916872010222  0.029892391763375794  0.4585356769670667  1.0000
  H   H53       1.0  0.930354672633129  0.17328982989756267  0.9619049813438281  1.0000
  H   H54       1.0  0.7570486520695995  0.8266992384966942  0.5379825214441353  1.0000
  H   H55       1.0  0.06964705135303717  0.8267110189932579  0.03809267609140219  1.0000
  H   H56       1.0  0.242951276258033  0.17329973183370126  0.4620162878807647  1.0000
  C   C1        1.0  0.7027621476703415  0.8010991001205596  0.8948217629030139  1.0000
  C   C2        1.0  0.9018855339153049  0.1989286634188119  0.6051344025156309  1.0000
  C   C3        1.0  0.2972392239782877  0.19890275705554927  0.10517987832546535  1.0000
  C   C4        1.0  0.09811660026745277  0.8010712919575625  0.3948668707471157  1.0000
  C   C5        1.0  0.6390083420021995  0.6649589750251081  0.9090530551801093  1.0000
  C   C6        1.0  0.9742225561578406  0.3350613867408184  0.5909157312206617  1.0000
  C   C7        1.0  0.3609925427535289  0.33504190839200726  0.09094688211843757  1.0000
  C   C8        1.0  0.02577700826044795  0.6649385689206965  0.4090855419733329  1.0000
  C   C9        1.0  0.6855042904167733  0.6375862122419349  0.07878026407730936  1.0000
  C   C10       1.0  0.04804781641069404  0.3624460019490883  0.421208424049574  1.0000
  C   C11       1.0  0.3144974624989203  0.3624146940343067  0.9212211931683071  1.0000
  C   C12       1.0  0.9519492607253426  0.6375558327480703  0.5787916971401827  1.0000
  C   C13       1.0  0.6662965397589174  0.6317704810470417  0.18006721750033708  1.0000
  C   C14       1.0  0.034700515464834235  0.368369034746017  0.3199436948029443  1.0000
  C   C15       1.0  0.3337048318897118  0.36823137612906714  0.8199344237281493  1.0000
  C   C16       1.0  0.9652938978527031  0.6316308985315969  0.6800560583294056  1.0000
  C   C17       1.0  0.5610604166204923  0.6456530023139847  0.22686108923355863  1.0000
  C   C18       1.0  0.9156504496987949  0.35467032531116877  0.27321218960255317  1.0000
  C   C19       1.0  0.43894086097410673  0.35434695315743886  0.7731401840062729  1.0000
  C   C20       1.0  0.08434207969210655  0.6453258391784189  0.7267891073928893  1.0000
  C   C21       1.0  0.4741500313941173  0.6587756047309198  0.15479958498468693  1.0000
  C   C22       1.0  0.8156565723497878  0.341617848470932  0.3452744616011144  1.0000
  C   C23       1.0  0.5258507593075805  0.3412233769815102  0.8451999843252054  1.0000
  C   C24       1.0  0.18433661973531199  0.6583745010371586  0.6547253394778564  1.0000
  C   C25       1.0  0.3618114139848174  0.663462608494953  0.1885400910252882  1.0000
  C   C26       1.0  0.6986679842646027  0.33699285715688626  0.3115007980209015  1.0000
  C   C27       1.0  0.6381902275191322  0.3365363616453507  0.8114587183454417  1.0000
  C   C28       1.0  0.30132350043008665  0.6629995040183798  0.6884997629743167  1.0000
  C   C29       1.0  0.27850070685085626  0.6763292130677455  0.12322085639686255  1.0000
  C   C30       1.0  0.6023996941988017  0.32400652656542656  0.3767336482888197  1.0000
  C   C31       1.0  0.7215013984023742  0.3236706849232077  0.8767766170554977  1.0000
  C   C32       1.0  0.3975954049565685  0.6759896376390272  0.6232676487753678  1.0000
  C   C33       1.0  0.3078928826683835  0.6874004277611689  0.02127446119132512  1.0000
  C   C34       1.0  0.620691426819242  0.3129321637467797  0.4786976463252301  1.0000
  C   C35       1.0  0.6921092283707467  0.3125994817068687  0.9787237722231122  1.0000
  C   C36       1.0  0.3793071985286858  0.6870659132592607  0.5213047787813564  1.0000
  C   C37       1.0  0.4181512165865867  0.6835277308137007  0.9859969491678766  1.0000
  C   C38       1.0  0.7348256863913676  0.3168406309896524  0.5140344094367321  1.0000
  C   C39       1.0  0.5818490930081167  0.316470288616827  0.014001676174160572  1.0000
  C   C40       1.0  0.265169893870997  0.6831564954967035  0.4859678315953245  1.0000
  C   C41       1.0  0.5012745451395587  0.6667571171748179  0.0510845063397625  1.0000
  C   C42       1.0  0.8347221582266116  0.3335341316103708  0.44896592893951487  1.0000
  C   C43       1.0  0.49872662682920316  0.3332409136377521  0.9489148789872601  1.0000
  C   C44       1.0  0.16527075821726095  0.6664610934564407  0.551035944035135  1.0000
  C   C45       1.0  0.023857271948379794  0.9346351506181705  0.8070871290306413  1.0000
  C   C46       1.0  0.08910951517934508  0.06522854356563812  0.6927267111417732  1.0000
  C   C47       1.0  0.9761458780010556  0.0653685506871042  0.19291108042194338  1.0000
  C   C48       1.0  0.9108925842879715  0.934771342948231  0.3072700023485098  1.0000
  C   C49       1.0  0.1413575845567222  0.9323915031600406  0.8094274298394167  1.0000
  C   C50       1.0  0.20892822751945064  0.0675717851670683  0.690444404827957  1.0000
  C   C51       1.0  0.8586442392693671  0.0676112589125495  0.19057135554654533  1.0000
  C   C52       1.0  0.7910734906808089  0.9324290522466611  0.3095524926451957  1.0000
  C   C53       1.0  0.23687872709833613  0.9999928498887769  0.7499638980831164  1.0000
  C   C54       1.0  0.763124334582976  8.961188903800853e-06  0.2500347033428909  1.0000
  C   C55       1.0  0.36272008717782694  0.9999720145988034  0.7500144302213911  1.0000
  C   C56       1.0  0.6372826105941414  3.0781809989800244e-05  0.24998663507371785  1.0000
  C   C57       1.0  0.4211772511046448  0.9931445581150412  0.8394992508021983  1.0000
  C   C58       1.0  0.427910148237885  0.006737715021777999  0.6605067457318582  1.0000
  C   C59       1.0  0.5788249597744155  0.0068572645347657986  0.16050011056297106  1.0000
  C   C60       1.0  0.5720916929459251  0.9932650814820578  0.3394943195403357  1.0000
  C   C61       1.0  0.5403143890605264  0.9939394366214956  0.8362603384831857  1.0000
  C   C62       1.0  0.5462551922965062  0.005995256332369102  0.6636945102696002  1.0000
  C   C63       1.0  0.45968820308560504  0.006061435128451399  0.16373883889911403  1.0000
  C   C64       1.0  0.4537453227639645  0.9940066009387818  0.336307130935971  1.0000
  N   N1        1.0  0.6078532683037636  0.6550929070793358  0.014582703820337892  1.0000
  N   N2        1.0  0.9529123290432223  0.34499037821991146  0.48540801935128997  1.0000
  N   N3        1.0  0.3921479919331219  0.34490701396082807  0.985416289533262  1.0000
  N   N4        1.0  0.04708418450360336  0.655008615444835  0.5145923098061046  1.0000
  N   N5        1.0  0.9975730648351516  0.9999280443084545  0.7499009004754597  1.0000
  N   N6        1.0  0.0024299794884469995  7.373233797380028e-05  0.25009542106431576  1.0000
  N   N7        1.0  0.6019372090308223  0.9999965866068622  0.7499683796062084  1.0000
  N   N8        1.0  0.39806536014110355  5.01783475930051e-06  0.25003224877728764  1.0000
  O   O1        1.0  0.7055148480012575  0.8076647022890453  0.799938057988271  1.0000
  O   O2        1.0  0.8979562474785967  0.19231937200918736  0.7000042925396244  1.0000
  O   O3        1.0  0.29448566127330617  0.1923371435050214  0.20006282325522304  1.0000
  O   O4        1.0  0.1020494071108119  0.8076824846916895  0.29999734880343715  1.0000
  O   O5        1.0  0.748572964615306  0.8919931737663233  0.9760040732413129  1.0000
  O   O6        1.0  0.8568995376273066  0.1080360671143055  0.5239304433334054  1.0000
  O   O7        1.0  0.25142746217704837  0.1080067932772266  0.023997959937680904  1.0000
  O   O8        1.0  0.143102602341358  0.8919638997391601  0.47607158989141846  1.0000
  O   O9        1.0  0.5438202836794304  0.6468860916139718  0.3210594997351136  1.0000
  O   O10       1.0  0.8971900402223341  0.35355154263095295  0.17903720708041246  1.0000
  O   O11       1.0  0.45618060686220463  0.35311480328023487  0.6789411975255033  1.0000
  O   O12       1.0  0.10280200806156604  0.6464436595767251  0.8209631459471749  1.0000
  O   O13       1.0  0.841687648340866  0.10927487153185213  0.9316393162708179  1.0000
  O   O14       1.0  0.7324961306704194  0.8908158627367084  0.5681813210731476  1.0000
  O   O15       1.0  0.15831455675229464  0.8907269396408706  0.06835928513227421  1.0000
  O   O16       1.0  0.26750255980199716  0.10918405858858898  0.43181767221170725  1.0000
