data_image0
_chemical_formula_structural       Cu2H24C40N4O8
_chemical_formula_sum              "Cu2 H24 C40 N4 O8"
_cell_length_a       5.399963686098058
_cell_length_b       11.303161943014574
_cell_length_c       14.454006957981946
_cell_angle_alpha    89.99928659968725
_cell_angle_beta     87.26036119474361
_cell_angle_gamma    90.00226644335726

_space_group_name_H-M_alt    "P 1"
_space_group_IT_number       1

loop_
  _space_group_symop_operation_xyz
  'x, y, z'

loop_
  _atom_site_type_symbol
  _atom_site_label
  _atom_site_symmetry_multiplicity
  _atom_site_fract_x
  _atom_site_fract_y
  _atom_site_fract_z
  _atom_site_occupancy
  Cu  Cu1       1.0  0.9999984898401024  0.4999977711261323  2.0712102041997396e-06  1.0000
  Cu  Cu2       1.0  3.6204025733239833e-06  0.9999969186750022  0.5000007252783262  1.0000
  H   H1        1.0  0.7087946145994195  0.7055615425426965  0.0176295265429189  1.0000
  H   H2        1.0  0.291213350189949  0.20556694900842842  0.4823776152239887  1.0000
  H   H3        1.0  0.2911949768657252  0.29443740092178683  0.982372748663124  1.0000
  H   H4        1.0  0.7088161188106739  0.7944328795480046  0.517618617542297  1.0000
  H   H5        1.0  0.6359844559121512  0.8748985515136812  0.1271171243968823  1.0000
  H   H6        1.0  0.364004073570463  0.3748962370121732  0.37288783807327514  1.0000
  H   H7        1.0  0.36402756798702285  0.12510304627515723  0.8728838746591732  1.0000
  H   H8        1.0  0.6360017900184403  0.6251044760743555  0.6271055062458473  1.0000
  H   H9        1.0  0.8830865975748666  0.8872253264392569  0.26856971200705704  1.0000
  H   H10       1.0  0.11692656932930134  0.3872262796695339  0.2314386853900672  1.0000
  H   H11       1.0  0.11692587776035884  0.11277273254164298  0.7314285167430155  1.0000
  H   H12       1.0  0.8830750285508059  0.6127717792301227  0.7685581036819258  1.0000
  H   H13       1.0  0.3762323565297265  0.4958343578263041  0.11649233803707656  1.0000
  H   H14       1.0  0.6237711046386778  0.9958316890309503  0.38351120946787626  1.0000
  H   H15       1.0  0.6237616133389139  0.5041628162902826  0.8835057998605648  1.0000
  H   H16       1.0  0.37623329124902943  0.0041690239748107  0.6164911384138206  1.0000
  H   H17       1.0  0.6410669880715008  0.5030822235053096  0.2513238489167192  1.0000
  H   H18       1.0  0.3589546489164519  0.0030870165839189997  0.24867961353911025  1.0000
  H   H19       1.0  0.3589422378200737  0.49691672017740973  0.7486715913296321  1.0000
  H   H20       1.0  0.6410534478920411  0.9969101576202848  0.7513227525350883  1.0000
  H   H21       1.0  0.5658982918239488  0.6558671021047076  0.37461624962796236  1.0000
  H   H22       1.0  0.43409474496100836  0.1558679624546215  0.12538657847859716  1.0000
  H   H23       1.0  0.4341109339854654  0.3441300721616258  0.6253791906288768  1.0000
  H   H24       1.0  0.5658965841055091  0.8441300963110622  0.8746163984001925  1.0000
  C   C1        1.0  0.8222316016101487  0.7165182751512872  0.0775708416949072  1.0000
  C   C2        1.0  0.1777819851947271  0.21652886202647187  0.422430647717178  1.0000
  C   C3        1.0  0.17776561786646286  0.2834815530962658  0.9224300846854872  1.0000
  C   C4        1.0  0.8222272408200836  0.7834727357808406  0.5775647925134422  1.0000
  C   C5        1.0  0.781010220305369  0.8107592244822046  0.13982774957037236  1.0000
  C   C6        1.0  0.21898609749297285  0.31076703116718113  0.360173188445323  1.0000
  C   C7        1.0  0.2189907002563417  0.1892406037965699  0.8601731949815556  1.0000
  C   C8        1.0  0.7810310952335867  0.6892354514418315  0.6398188252144408  1.0000
  C   C9        1.0  0.9177779243789033  0.8181833810198712  0.21741859112695747  1.0000
  C   C10       1.0  0.08224016023299899  0.31818827827670765  0.2825892937732704  1.0000
  C   C11       1.0  0.08222541130797373  0.18181821672196463  0.782578899591577  1.0000
  C   C12       1.0  0.9177594743687794  0.6818133194339071  0.7174081787737308  1.0000
  C   C13       1.0  0.10554060098692732  0.7336115481640139  0.23290832321195853  1.0000
  C   C14       1.0  0.8944823577894426  0.2336136360230157  0.26710201267961503  1.0000
  C   C15       1.0  0.8944516313214167  0.26638739535956557  0.7670891130076922  1.0000
  C   C16       1.0  0.10552422730000903  0.7663861923088079  0.7328982665478774  1.0000
  C   C17       1.0  0.14532761842664854  0.6430811040999559  0.16389805689196624  1.0000
  C   C18       1.0  0.8546749515921591  0.14308589376568656  0.33609596457688434  1.0000
  C   C19       1.0  0.8546708868866517  0.35691430059116414  0.8361063415090937  1.0000
  C   C20       1.0  0.1453269851114669  0.8569148192771936  0.663898746734169  1.0000
  C   C21       1.0  0.3414153331527459  0.5612640131178636  0.1710038807168957  1.0000
  C   C22       1.0  0.658582662351364  0.0612620486364719  0.3289952840199746  1.0000
  C   C23       1.0  0.6585947271394659  0.4387340458163607  0.8289978018560972  1.0000
  C   C24       1.0  0.3414109690634676  0.9387404337106559  0.6710049315914259  1.0000
  C   C25       1.0  0.48844191939522835  0.5656643406435434  0.24639796271425493  1.0000
  C   C26       1.0  0.5115525580818527  0.06566722173784002  0.2536025168401537  1.0000
  C   C27       1.0  0.5115551870991268  0.4343337181814064  0.7536036562583632  1.0000
  C   C28       1.0  0.48844685071973987  0.9343343759603545  0.7463963408703121  1.0000
  C   C29       1.0  0.44696640878876076  0.6516155171098746  0.315892093668225  1.0000
  C   C30       1.0  0.5530374494244797  0.15161838649792966  0.1841101467423201  1.0000
  C   C31       1.0  0.553025710660563  0.3483843111156943  0.6841060351279182  1.0000
  C   C32       1.0  0.44696369697850014  0.8483823265014577  0.8158894126408995  1.0000
  C   C33       1.0  0.26050562773973246  0.7354551170815004  0.31083114168342263  1.0000
  C   C34       1.0  0.739493601830695  0.23544868350226275  0.1891894521084296  1.0000
  C   C35       1.0  0.7394747109715781  0.26454294159673  0.6891710880990158  1.0000
  C   C36       1.0  0.2605030531043724  0.7645502600060253  0.8108149371858884  1.0000
  C   C37       1.0  0.2407881869162978  0.8260723677339142  0.3883899664029825  1.0000
  C   C38       1.0  0.7592259563891304  0.32605859847976154  0.11163513057776699  1.0000
  C   C39       1.0  0.7592053311465746  0.1739203828168456  0.6116109418478144  1.0000
  C   C40       1.0  0.24076042965018732  0.673938575478168  0.8883754465338283  1.0000
  N   N1        1.0  0.9963317557713794  0.6356245959501836  0.08958701063914988  1.0000
  N   N2        1.0  0.003674726887879813  0.1356465701072551  0.41040157660819426  1.0000
  N   N3        1.0  0.0036610853017294324  0.3643770016452593  0.9104180530496462  1.0000
  N   N4        1.0  0.9963420144847818  0.8643612207260817  0.5895932073470715  1.0000
  O   O1        1.0  0.037042318271652205  0.8869243534927377  0.3958094601354105  1.0000
  O   O2        1.0  0.9629089872763147  0.3869291894909567  0.104180615678338  1.0000
  O   O3        1.0  0.962962077574979  0.11307547480483045  0.6041928877515303  1.0000
  O   O4        1.0  0.03706715481384755  0.6130732927559635  0.8958132758397495  1.0000
  O   O5        1.0  0.4175736822159664  0.8376949988161189  0.4402761529234879  1.0000
  O   O6        1.0  0.5824271454049281  0.3377214870891976  0.0597348726791438  1.0000
  O   O7        1.0  0.5824205574706909  0.1622995211045151  0.5597316902199552  1.0000
  O   O8        1.0  0.41756513182497923  0.6622942658063096  0.9402736538344667  1.0000
