data_image0
_chemical_formula_structural       Zr6H44C64O42
_chemical_formula_sum              "Zr6 H44 C64 O42"
_cell_length_a       14.887754042381387
_cell_length_b       14.842493419520633
_cell_length_c       14.85148346916729
_cell_angle_alpha    59.75371970215556
_cell_angle_beta     59.865301062496584
_cell_angle_gamma    59.87552059834213

_space_group_name_H-M_alt    "P 1"
_space_group_IT_number       1

loop_
  _space_group_symop_operation_xyz
  'x, y, z'

loop_
  _atom_site_type_symbol
  _atom_site_label
  _atom_site_symmetry_multiplicity
  _atom_site_fract_x
  _atom_site_fract_y
  _atom_site_fract_z
  _atom_site_occupancy
  Zr  Zr1       1.0  0.881742248877323  0.37855500161772676  0.6209916655442032  1.0000
  Zr  Zr2       1.0  0.11916113069955261  0.6176195651144097  0.3821807088601829  1.0000
  Zr  Zr3       1.0  0.11836400918473802  0.37885797769846613  0.62216017972694  1.0000
  Zr  Zr4       1.0  0.8822908373614878  0.6168865547883797  0.3819575935210083  1.0000
  Zr  Zr5       1.0  0.882141391625183  0.615661196137701  0.6213475586319533  1.0000
  Zr  Zr6       1.0  0.1194628911198309  0.37775940433452593  0.3849940100320595  1.0000
  H   H1        1.0  0.9071989027084585  0.4042322810194461  0.784568408358126  1.0000
  H   H2        1.0  0.9079967421837409  0.7793197773661048  0.4073246354944546  1.0000
  H   H3        1.0  0.2813427034210816  0.40379625691316795  0.410002673887675  1.0000
  H   H4        1.0  0.9081939596229064  0.4032797896492184  0.4083427534545124  1.0000
  H   H5        1.0  0.5541775275897932  0.749577088059823  0.8870741898695159  1.0000
  H   H6        1.0  0.637762527343412  0.6469660281284673  0.9719302716186533  1.0000
  H   H7        1.0  0.4696228651003978  0.6479472804730761  0.14078683189219998  1.0000
  H   H8        1.0  0.3849975099895461  0.7482742566126106  0.05711067666016595  1.0000
  H   H9        1.0  0.23994774985710168  0.06793396182673914  0.2929604920178194  1.0000
  H   H10       1.0  0.13201304773520656  0.14518996119492303  0.23561385990878136  1.0000
  H   H11       1.0  0.14000606210974104  0.9711155895422081  0.23874787133349434  1.0000
  H   H12       1.0  0.2440539063546083  0.8924128139622239  0.3022549693576266  1.0000
  H   H13       1.0  0.53002860351841  0.8595600947377662  0.34622931675016827  1.0000
  H   H14       1.0  0.6150732149628483  0.944739809528336  0.25600238278693144  1.0000
  H   H15       1.0  0.4458033417933294  0.11391918584471482  0.2561181599117645  1.0000
  H   H16       1.0  0.3617108548783251  0.027988005670842114  0.34870435995205185  1.0000
  H   H17       1.0  0.8578692242393301  0.765923581734363  0.029007846937467698  1.0000
  H   H18       1.0  0.7625962245594307  0.6918889111138  0.11090184683436624  1.0000
  H   H19       1.0  0.7628616597613274  0.699597972679797  0.9380366252285766  1.0000
  H   H20       1.0  0.8601359093313621  0.7709244833365927  0.8570998446233562  1.0000
  H   H21       1.0  0.8110413540779432  0.2639245033908608  0.933697923870632  1.0000
  H   H22       1.0  0.6534430302429257  0.26760416289107525  0.10543121900126823  1.0000
  H   H23       1.0  0.81236381478665  0.9265327262654637  0.2681115798933789  1.0000
  H   H24       1.0  0.6545761538287636  0.09745831823391164  0.27417664648485374  1.0000
  H   H25       1.0  0.5420084234975066  0.32054521778179185  0.7629233142858566  1.0000
  H   H26       1.0  0.6269563992215554  0.24057601316192728  0.6726784391497488  1.0000
  H   H27       1.0  0.4579490355250969  0.24167738091391308  0.6732265281131332  1.0000
  H   H28       1.0  0.37381804480261865  0.3214531322779308  0.7635944664657686  1.0000
  H   H29       1.0  0.3349826310746309  0.36032774629772757  0.1431686355456421  1.0000
  H   H30       1.0  0.6391648370729681  0.3637922140877947  0.8331149673092071  1.0000
  H   H31       1.0  0.86564269922124  0.830281920855846  0.6644206679217319  1.0000
  H   H32       1.0  0.8707918327737686  0.13276426110656564  0.6681855685391868  1.0000
  H   H33       1.0  0.34572418245088693  0.14864903869989377  0.6553289179308308  1.0000
  H   H34       1.0  0.6502428325086173  0.8382994955717677  0.6570125401569059  1.0000
  H   H35       1.0  0.14992958358485725  0.3482629985201413  0.8483068883361183  1.0000
  H   H36       1.0  0.15004815277877273  0.3443328113446356  0.1569869300657416  1.0000
  H   H37       1.0  0.3370473063510459  0.6557613663355895  0.36392377101265083  1.0000
  H   H38       1.0  0.646478095968533  0.6529977419179928  0.3615121396921879  1.0000
  H   H39       1.0  0.19773382928558203  0.7588164840020469  0.9334364700796555  1.0000
  H   H40       1.0  0.19269086009732211  0.7283725325894038  0.06772920689721226  1.0000
  H   H41       1.0  0.26969984781877143  0.811289551375843  0.9498691220808907  1.0000
  H   H42       1.0  0.2610094815630148  0.9852544110614829  0.7978639096158489  1.0000
  H   H43       1.0  0.17075770173286037  0.05656809196280229  0.7209182027976837  1.0000
  H   H44       1.0  0.21363135939635197  0.9102604953215659  0.7787506425381139  1.0000
  C   C1        1.0  0.6917063592368606  0.5049727969550944  0.8014108811218605  1.0000
  C   C2        1.0  0.005065792418726388  0.7991477671172403  0.5021423825870029  1.0000
  C   C3        1.0  0.30112204126213993  0.5026053678317836  0.19494808528632748  1.0000
  C   C4        1.0  0.007353542026493289  0.1897559242865158  0.5023315874664717  1.0000
  C   C5        1.0  0.0019653016703459598  0.19060407304634444  0.8026231868296917  1.0000
  C   C6        1.0  0.6929898129710568  0.49711079388004  0.5090153730094258  1.0000
  C   C7        1.0  0.0042139539900745435  0.7973944751538723  0.1937212036471864  1.0000
  C   C8        1.0  0.29957286203882216  0.4988603646873316  0.5105698716425523  1.0000
  C   C9        1.0  0.002773141032221791  0.5054331279737099  0.8019040153964099  1.0000
  C   C10       1.0  0.30075533973205654  0.18936899095979953  0.505597024854019  1.0000
  C   C11       1.0  0.004849258696126093  0.5023275319579027  0.19416243627735955  1.0000
  C   C12       1.0  0.6925085366144188  0.7967005630899848  0.5048869557398348  1.0000
  C   C13       1.0  0.5911082422950215  0.5063968369816293  0.8982847242160477  1.0000
  C   C14       1.0  0.39795038377083364  0.5043672122781756  0.09436673288261943  1.0000
  C   C15       1.0  0.545449087658348  0.5806814448519477  0.9546201171154607  1.0000
  C   C16       1.0  0.4414748850215062  0.4285985674991579  0.03919663827058888  1.0000
  C   C17       1.0  0.4530960222157674  0.5798176352382002  0.04832645805620931  1.0000
  C   C18       1.0  0.536699617698801  0.4299860532401426  0.9418088979185201  1.0000
  C   C19       1.0  0.5616533578504034  0.6720569427978803  0.9575614699022098  1.0000
  C   C20       1.0  0.455663974116213  0.6713504041812399  0.06472112656937401  1.0000
  C   C21       1.0  0.006702961030150389  0.0913705179017087  0.502320888190482  1.0000
  C   C22       1.0  0.005675700152643433  0.8971203233477142  0.5027925399311995  1.0000
  C   C23       1.0  0.07713729787204217  0.04911774267294794  0.4143712525252283  1.0000
  C   C24       1.0  0.9318606789899347  0.9390822653740114  0.5914040920567916  1.0000
  C   C25       1.0  0.07753953830314941  0.9553846030865784  0.4153795040244362  1.0000
  C   C26       1.0  0.9332901526599927  0.03421593945253668  0.5920756151923  1.0000
  C   C27       1.0  0.16224736438871906  0.06993985296995223  0.29948933183606385  1.0000
  C   C28       1.0  0.16524869972271716  0.9605478539470198  0.30240317246482123  1.0000
  C   C29       1.0  0.5919639901299972  0.8936203156106829  0.5074689340515023  1.0000
  C   C30       1.0  0.3983688193099226  0.08939275153377944  0.5070993594251262  1.0000
  C   C31       1.0  0.5394034494214781  0.9430957309476113  0.4290855593080351  1.0000
  C   C32       1.0  0.44911617709511387  0.041206578803951344  0.5876458459448984  1.0000
  C   C33       1.0  0.44684564799041476  0.0367284886044743  0.4290282334986131  1.0000
  C   C34       1.0  0.5442884913882085  0.9438777796827935  0.5884321187120707  1.0000
  C   C35       1.0  0.5425906813995309  0.933874819802334  0.3302207732324264  1.0000
  C   C36       1.0  0.43642899715955963  0.04080812058287357  0.33056505652740503  1.0000
  C   C37       1.0  0.007631882946554848  0.5046064360145907  0.09311731144497773  1.0000
  C   C38       1.0  0.006784995210153968  0.5075898779372424  0.8974494701751609  1.0000
  C   C39       1.0  0.9328185078464984  0.5903289373244646  0.03770735004977145  1.0000
  C   C40       1.0  0.0848663190223036  0.42070413164968573  0.9504001904793  1.0000
  C   C41       1.0  0.932456248846315  0.592212687408768  0.9439684459582623  1.0000
  C   C42       1.0  0.08494605254923461  0.4191183706024334  0.04734394251102712  1.0000
  C   C43       1.0  0.8381729665219098  0.6983584308241149  0.039501847134396084  1.0000
  C   C44       1.0  0.8387542747897002  0.7017657781114078  0.9311708207495994  1.0000
  C   C45       1.0  0.0016561822793263552  0.08832646267430988  0.9027248873277784  1.0000
  C   C46       1.0  0.9074466416611459  0.09292737179457329  0.0008198947956045913  1.0000
  C   C47       1.0  0.09233412805074462  0.9923717167736754  0.8983471383830517  1.0000
  C   C48       1.0  0.8138237957429625  0.19025568241010402  0.007108009985508043  1.0000
  C   C49       1.0  0.724812693234263  0.19224253401507246  0.10329903131383848  1.0000
  C   C50       1.0  0.003577628799476409  0.8982195149428165  0.0917656297196245  1.0000
  C   C51       1.0  0.09395061760845627  0.8956529498880954  0.9951387297794767  1.0000
  C   C52       1.0  0.90811536886406  0.9954612368208444  0.09733330524484532  1.0000
  C   C53       1.0  0.8148189195355044  0.0005640160761046661  0.1950896171619903  1.0000
  C   C54       1.0  0.7254048751136037  0.09643102279076743  0.1982900574098991  1.0000
  C   C55       1.0  0.5925727720111386  0.4988835232464055  0.5108062314851837  1.0000
  C   C56       1.0  0.3968646838941154  0.5002246114130031  0.5119061615784659  1.0000
  C   C57       1.0  0.5431488861838788  0.4170672212495107  0.5896741475222383  1.0000
  C   C58       1.0  0.44421176474858015  0.5845122304440125  0.4316112808797001  1.0000
  C   C59       1.0  0.4496891342002984  0.4177342566965764  0.59015173490333  1.0000
  C   C60       1.0  0.5409043216454492  0.5836635139984807  0.4309325677918068  1.0000
  C   C61       1.0  0.5527819506473294  0.3116072312534044  0.6887358551294299  1.0000
  C   C62       1.0  0.44603055189570284  0.3123058752561008  0.6891635503615063  1.0000
  C   C63       1.0  0.19309065823995303  0.7928657814741414  0.9871902276185908  1.0000
  C   C64       1.0  0.18885681592341533  0.986317188388334  0.7933815791883206  1.0000
  O   O1        1.0  0.732837449742746  0.4270411748586227  0.7609862114866249  1.0000
  O   O2        1.0  0.07925247732489278  0.7592244987617462  0.4254965625050104  1.0000
  O   O3        1.0  0.2618339455903041  0.5765593466677784  0.23751612799998864  1.0000
  O   O4        1.0  0.9317309739792634  0.22894752388128842  0.5814410781421985  1.0000
  O   O5        1.0  0.07700544547913779  0.23135295391931973  0.7648815530571867  1.0000
  O   O6        1.0  0.7340534310376369  0.5746488610186589  0.4308109341723352  1.0000
  O   O7        1.0  0.9283583259829913  0.7568382320991772  0.2342956747846119  1.0000
  O   O8        1.0  0.26017393763680025  0.4212726124683144  0.5843772564640447  1.0000
  O   O9        1.0  0.9262583760085047  0.579896947022327  0.7617893876482215  1.0000
  O   O10       1.0  0.2607221189241571  0.23125460657078634  0.42920899120274203  1.0000
  O   O11       1.0  0.08112437408038894  0.42340727330758904  0.23638492871635464  1.0000
  O   O12       1.0  0.7349292406425079  0.7573171870434335  0.5808056526447487  1.0000
  O   O13       1.0  0.2604935666177185  0.23084892333498888  0.5825100205853317  1.0000
  O   O14       1.0  0.9275948536758846  0.5761828043989253  0.23674166567529653  1.0000
  O   O15       1.0  0.734604985373295  0.7572369106557912  0.4279732376413179  1.0000
  O   O16       1.0  0.07723596959380788  0.42503483839422534  0.7637200446950843  1.0000
  O   O17       1.0  0.9258090758450097  0.2318088168780078  0.762175926064863  1.0000
  O   O18       1.0  0.25927075865261184  0.5764752856285681  0.4323976254981829  1.0000
  O   O19       1.0  0.07881757239348998  0.7595269723150508  0.23498945204569566  1.0000
  O   O20       1.0  0.7361537598418764  0.4195487080065945  0.5828275067984592  1.0000
  O   O21       1.0  0.08096337926237143  0.23290252388792254  0.42483577447856646  1.0000
  O   O22       1.0  0.7349503383286732  0.5780973694478319  0.7628415755922974  1.0000
  O   O23       1.0  0.9274032403678091  0.7583414805086264  0.5798749525812639  1.0000
  O   O24       1.0  0.26062534576968227  0.42473901630417993  0.23610221679369664  1.0000
  O   O25       1.0  0.9340448885665962  0.4300514227109176  0.43553406829422425  1.0000
  O   O26       1.0  0.20147399905012256  0.4304186987493778  0.43603176751430794  1.0000
  O   O27       1.0  0.9332809534941189  0.6991058714363091  0.434492679369342  1.0000
  O   O28       1.0  0.9325594354648318  0.43068166529398166  0.7044130768905105  1.0000
  O   O29       1.0  0.04972454279279497  0.5470249249394995  0.551637289941759  1.0000
  O   O30       1.0  0.8529847294802054  0.5467408625499245  0.5514124209426116  1.0000
  O   O31       1.0  0.050275777386744436  0.5469753793240315  0.35396782004629296  1.0000
  O   O32       1.0  0.05003216476668387  0.34860185811323413  0.5527157069854737  1.0000
  O   O33       1.0  0.3978710474430684  0.35136450221956755  0.07410562600016854  1.0000
  O   O34       1.0  0.570447520188736  0.35451059865345513  0.8965402899305702  1.0000
  O   O35       1.0  0.857191747653282  0.8929781758755481  0.6794829434882815  1.0000
  O   O36       1.0  0.8614939680981949  0.06435985810470163  0.6820453377032933  1.0000
  O   O37       1.0  0.41220106624367503  0.08274467652888269  0.6672189370187879  1.0000
  O   O38       1.0  0.5845571670227089  0.9047391635506088  0.669488600243568  1.0000
  O   O39       1.0  0.1617038672892264  0.33475648704524735  0.9151727757230859  1.0000
  O   O40       1.0  0.16094775167830733  0.33148016096119187  0.0919203895490952  1.0000
  O   O41       1.0  0.40249195925667164  0.6689542286014571  0.35172482674733624  1.0000
  O   O42       1.0  0.579112973095441  0.6672114379390379  0.3502258960816177  1.0000
