data_image0
_chemical_formula_structural       Co8H120C152N16O40
_chemical_formula_sum              "Co8 H120 C152 N16 O40"
_cell_length_a       15.815302445512584
_cell_length_b       19.15681759882537
_cell_length_c       19.15652751434609
_cell_angle_alpha    80.18099183246365
_cell_angle_beta     65.61928226053544
_cell_angle_gamma    65.61984960526884

_space_group_name_H-M_alt    "P 1"
_space_group_IT_number       1

loop_
  _space_group_symop_operation_xyz
  'x, y, z'

loop_
  _atom_site_type_symbol
  _atom_site_label
  _atom_site_symmetry_multiplicity
  _atom_site_fract_x
  _atom_site_fract_y
  _atom_site_fract_z
  _atom_site_occupancy
  Co  Co1       1.0  0.3996919703610686  0.186671341252314  0.7780456501970292  1.0000
  Co  Co2       1.0  0.4136525815510836  0.22203090911236964  0.18662073989129624  1.0000
  Co  Co3       1.0  0.3643593366512406  0.8133008515577772  0.2220246716661408  1.0000
  Co  Co4       1.0  0.8223215434574844  0.7780152476201395  0.8133224946970046  1.0000
  Co  Co5       1.0  0.3856584029840067  0.2779862625555082  0.6866879981016895  1.0000
  Co  Co6       1.0  0.35029086524877345  0.7219670857148515  0.3133676431604401  1.0000
  Co  Co7       1.0  0.33635038136090156  0.313337554828081  0.2780071852712141  1.0000
  Co  Co8       1.0  0.9276865743850916  0.686747506187139  0.7219424893289385  1.0000
  H   H1        1.0  0.40160693037364587  0.033208442592716415  0.7827265869050919  1.0000
  H   H2        1.0  0.5652692756733091  0.2173370030050208  0.03305520581740513  1.0000
  H   H3        1.0  0.2175638769053378  0.9667761319868191  0.21732988897101546  1.0000
  H   H4        1.0  0.8155804908603487  0.7826331567589337  0.9668977376581652  1.0000
  H   H5        1.0  0.5324496082354245  0.28268969413656464  0.5332389919548036  1.0000
  H   H6        1.0  0.3484497387201913  0.7172547152403297  0.4667783957616579  1.0000
  H   H7        1.0  0.18476615017089434  0.46681722113154217  0.2826689605269692  1.0000
  H   H8        1.0  0.9343950995437572  0.5331690320206093  0.7173346270426822  1.0000
  H   H9        1.0  0.32403005164724163  0.018827122170584704  0.7119552598654694  1.0000
  H   H10       1.0  0.6573738295792068  0.28802288669596987  0.01877822071715938  1.0000
  H   H11       1.0  0.054663159389278244  0.9811018728461323  0.2879520464189157  1.0000
  H   H12       1.0  0.9641699553760864  0.7119661842657692  0.981187872734786  1.0000
  H   H13       1.0  0.69532416177249  0.21206863535673656  0.518975944449018  1.0000
  H   H14       1.0  0.4260487892120894  0.7880373807548723  0.48117587962970987  1.0000
  H   H15       1.0  0.09267738820894773  0.4811718246324831  0.21193178322633344  1.0000
  H   H16       1.0  0.7858102014029031  0.518850539443136  0.7880191344336325  1.0000
  H   H17       1.0  0.26638203169525154  0.946014746179578  0.6582655712393902  1.0000
  H   H18       1.0  0.7878355886813683  0.3417860355825085  0.946045309475359  1.0000
  H   H19       1.0  0.8704777745731178  0.05400470613151499  0.3417288064744355  1.0000
  H   H20       1.0  0.07558881784917293  0.6582673050281118  0.05399478223527153  1.0000
  H   H21       1.0  0.8795163757057767  0.1582836221708348  0.4460809502917443  1.0000
  H   H22       1.0  0.4836951508697922  0.8417817095387721  0.5539539510015034  1.0000
  H   H23       1.0  0.9621668521827617  0.5539005852415215  0.15824440066598572  1.0000
  H   H24       1.0  0.6744163642580221  0.44603801602094256  0.8417205795174638  1.0000
  H   H25       1.0  0.24106623259689297  0.1158999072294264  0.4812765908987161  1.0000
  H   H26       1.0  0.643195431389131  0.518631487990099  0.1160166114804824  1.0000
  H   H27       1.0  0.8380957505583669  0.8841122299598112  0.518743325968785  1.0000
  H   H28       1.0  0.27777260524475617  0.48128760007085  0.8841065639677126  1.0000
  H   H29       1.0  0.91188328912763  0.9812591967243168  0.6159560382831016  1.0000
  H   H30       1.0  0.5089187853698932  0.0187710395760448  0.38405828297241135  1.0000
  H   H31       1.0  0.10673089508217952  0.383975568872046  0.9813768309303514  1.0000
  H   H32       1.0  0.47223830326937827  0.6158870249182158  0.01872130970625117  1.0000
  H   H33       1.0  0.30032739757891863  0.18879119749815487  0.535567323547582  1.0000
  H   H34       1.0  0.5110720535393227  0.4643048987461995  0.18880574986454948  1.0000
  H   H35       1.0  0.024502410587821526  0.8112250343690378  0.4643960514842007  1.0000
  H   H36       1.0  0.16416272031493412  0.5355924270911386  0.8112740423489768  1.0000
  H   H37       1.0  0.7254755836919743  0.03557790607605679  0.6888342080648613  1.0000
  H   H38       1.0  0.44965759766305546  0.9644563521736982  0.3112055629173228  1.0000
  H   H39       1.0  0.23892298579151833  0.3111447207351717  0.03564158033182006  1.0000
  H   H40       1.0  0.5858040469095942  0.6887631395920267  0.9644195357182355  1.0000
  H   H41       1.0  0.2323086766250667  0.8686639597536187  0.4813015475443622  1.0000
  H   H42       1.0  0.8992694813963169  0.5185518079759885  0.868580497623647  1.0000
  H   H43       1.0  0.5821183020049788  0.13152647647402196  0.5186809384498475  1.0000
  H   H44       1.0  0.286445504983142  0.4813339884107465  0.13146342621675444  1.0000
  H   H45       1.0  0.1678569780163174  0.9813040415505442  0.36852934222125106  1.0000
  H   H46       1.0  0.5177168007477349  0.0187044614276815  0.6313375282784153  1.0000
  H   H47       1.0  0.8507658519383484  0.6313746906039625  0.9814603412441301  1.0000
  H   H48       1.0  0.463546438479746  0.36860478242362404  0.018672888557645737  1.0000
  H   H49       1.0  0.1313953886526562  0.788957262628891  0.5507312571134265  1.0000
  H   H50       1.0  0.07986292824857354  0.44900055106377573  0.7888491139722191  1.0000
  H   H51       1.0  0.47100235069183355  0.211217063564078  0.449191478711434  1.0000
  H   H52       1.0  0.31772452483058106  0.5508584637935598  0.21124130953556636  1.0000
  H   H53       1.0  0.2789691934761864  0.050772457565244594  0.2888162703796412  1.0000
  H   H54       1.0  0.6186309126907118  0.9492727952669712  0.711017928147115  1.0000
  H   H55       1.0  0.6701981728946864  0.7111484352083862  0.05097860129843922  1.0000
  H   H56       1.0  0.4322763915196859  0.28879314060222333  0.9491955078177342  1.0000
  H   H57       1.0  0.9798922316101085  0.936415136144625  0.7470451095189362  1.0000
  H   H58       1.0  0.08379443892945913  0.2527771687076524  0.9364744710625107  1.0000
  H   H59       1.0  0.6632659841033473  0.06368850588079059  0.25292166435336594  1.0000
  H   H60       1.0  0.27319648261718765  0.7470968448199996  0.06360410746279403  1.0000
  H   H61       1.0  0.08678699682654663  0.2470816126909413  0.43629927851363  1.0000
  H   H62       1.0  0.770191997496724  0.7529660278707696  0.563553054349626  1.0000
  H   H63       1.0  0.6661837278077203  0.5635622546833262  0.24725755901938137  1.0000
  H   H64       1.0  0.4768753276108341  0.43635458288274254  0.7528887474792542  1.0000
  H   H65       1.0  0.0806446865864389  0.016775933112086198  0.6780239326653401  1.0000
  H   H66       1.0  0.9027392670369425  0.3219874300729302  0.01696698969756477  1.0000
  H   H67       1.0  0.7752432045811734  0.9833238470466698  0.32202301160743496  1.0000
  H   H68       1.0  0.2417236017809617  0.6779924476881833  0.983166227159103  1.0000
  H   H69       1.0  0.974795329766053  0.17796792701227554  0.5167229005829058  1.0000
  H   H70       1.0  0.6694051521393051  0.8220199489997809  0.4831803228487462  1.0000
  H   H71       1.0  0.8472471180192258  0.48302745630814303  0.17807079145924845  1.0000
  H   H72       1.0  0.5083459821407744  0.5168361576113155  0.8219655809951335  1.0000
  H   H73       1.0  0.42442366840943185  0.16796047322394972  0.9537319167365936  1.0000
  H   H74       1.0  0.4078443030190826  0.0463635862533138  0.16775679951368258  1.0000
  H   H75       1.0  0.5460526845138817  0.8320765690651726  0.046261138056067436  1.0000
  H   H76       1.0  0.6219752033593267  0.9536183056345354  0.8321184301095813  1.0000
  H   H77       1.0  0.2039823578634526  0.4536950086054645  0.6679256844815386  1.0000
  H   H78       1.0  0.3255576044819152  0.5463087007652732  0.3320295593002172  1.0000
  H   H79       1.0  0.3420693401365257  0.33211405868531324  0.45373018522379743  1.0000
  H   H80       1.0  0.12795166650346365  0.6679740412962546  0.5462112784164503  1.0000
  H   H81       1.0  0.36964884816228505  0.12141101241868313  0.0390355870655483  1.0000
  H   H82       1.0  0.5090798318708781  0.9609979012314153  0.12131199310731235  1.0000
  H   H83       1.0  0.5300877562551851  0.8786754861860402  0.9609572095050967  1.0000
  H   H84       1.0  0.5913251531995983  0.0389666226876386  0.8786393920557601  1.0000
  H   H85       1.0  0.21988681197045423  0.5390245290389333  0.6213213839015027  1.0000
  H   H86       1.0  0.3802767812716895  0.4609962084699859  0.3785976460311817  1.0000
  H   H87       1.0  0.24085172932463192  0.37859121315790395  0.5390646980685362  1.0000
  H   H88       1.0  0.15856647528898554  0.6214139504755706  0.4609147782032963  1.0000
  H   H89       1.0  0.293078531476141  0.1949056172703507  0.9957802614228869  1.0000
  H   H90       1.0  0.5120744412699381  0.0041495638645515  0.19489733669670534  1.0000
  H   H91       1.0  0.483813395135073  0.8051238704324247  0.0041207617549047755  1.0000
  H   H92       1.0  0.7110792956967137  0.9958845896162456  0.8050270977498145  1.0000
  H   H93       1.0  0.2661494663500363  0.4959052503440873  0.6948830455817473  1.0000
  H   H94       1.0  0.4568972842447537  0.5041959983010003  0.3050956634269681  1.0000
  H   H95       1.0  0.23776257300932707  0.30507130078522243  0.49587182000300345  1.0000
  H   H96       1.0  0.038740524048925855  0.6949106602942268  0.5040814926215021  1.0000
  H   H97       1.0  0.3023909505694321  0.9202062545847906  0.876968743763378  1.0000
  H   H98       1.0  0.777467856055395  0.12315704627785351  0.9199921746889645  1.0000
  H   H99       1.0  0.09951525989304601  0.0798607877598059  0.12314898709002621  1.0000
  H   H100      1.0  0.8206412404260702  0.8768739264908377  0.07986995448390376  1.0000
  H   H101      1.0  0.6504799439820915  0.3768671026004711  0.4201350095056072  1.0000
  H   H102      1.0  0.44765385040506067  0.623000573181038  0.5797856991452691  1.0000
  H   H103      1.0  0.9725783327557664  0.5799314014938162  0.3767295169044474  1.0000
  H   H104      1.0  0.929244474361461  0.4201166012651427  0.6232854637704223  1.0000
  H   H105      1.0  0.37631214732360957  0.8709973971352198  0.9322189932606336  1.0000
  H   H106      1.0  0.7527150252468077  0.0679251526717692  0.8708243494183707  1.0000
  H   H107      1.0  0.17951089346974672  0.1290314574421032  0.06784540878149413  1.0000
  H   H108      1.0  0.6914898483370848  0.9320861274238228  0.1290431585636043  1.0000
  H   H109      1.0  0.5704776598133352  0.43216765771961013  0.37096716176587563  1.0000
  H   H110      1.0  0.37372906435014386  0.5677485232789651  0.6289902882984179  1.0000
  H   H111      1.0  0.9972941129489928  0.6290820517715902  0.432024783689265  1.0000
  H   H112      1.0  0.05839938234845484  0.37095363815285515  0.568004994527456  1.0000
  H   H113      1.0  0.4356566591667462  0.8794442115738405  0.8314574852908055  1.0000
  H   H114      1.0  0.684927936776383  0.1686715921651185  0.879249681171018  1.0000
  H   H115      1.0  0.14656871494777599  0.1206292834564167  0.16860043445187503  1.0000
  H   H116      1.0  0.7328936071750011  0.8313426176414467  0.12060258062100371  1.0000
  H   H117      1.0  0.6034247018367581  0.33140556430706164  0.379368257371361  1.0000
  H   H118      1.0  0.3143811916925475  0.6685198530518405  0.620545726508162  1.0000
  H   H119      1.0  0.06517883098786843  0.6206369999526089  0.33126364015080884  1.0000
  H   H120      1.0  0.017086027149950736  0.37944857903994483  0.6687529382218429  1.0000
  C   C1        1.0  0.34783132409558715  0.15295525703593432  0.6612561874264884  1.0000
  C   C2        1.0  0.49935346263335834  0.3387010200194993  0.152922470715346  1.0000
  C   C3        1.0  0.16190620878930423  0.8469900427926974  0.33868938558705264  1.0000
  C   C4        1.0  0.9910234473780265  0.6612975327640457  0.8470501239818944  1.0000
  C   C5        1.0  0.5880806854033908  0.1613233976658748  0.6530365338747758  1.0000
  C   C6        1.0  0.4021796802710755  0.8387307806303567  0.34707884128764027  1.0000
  C   C7        1.0  0.2506773016962355  0.3470517460691553  0.16125616307405014  1.0000
  C   C8        1.0  0.7589540077158718  0.6529760356098179  0.838707016876022  1.0000
  C   C9        1.0  0.314770236694919  0.10920323776439031  0.627859563866764  1.0000
  C   C10       1.0  0.5762678954906094  0.3720390480524359  0.1092252638987575  1.0000
  C   C11       1.0  0.05165795455121727  0.8907292246451988  0.37205385720247364  1.0000
  C   C12       1.0  0.057509036205900345  0.6278950590639737  0.8908157260127753  1.0000
  C   C13       1.0  0.6983367689198657  0.1279458197165368  0.6093452644232756  1.0000
  C   C14       1.0  0.4352792675504419  0.8721492800433097  0.3907830166897457  1.0000
  C   C15       1.0  0.17376471690315043  0.3907414161214575  0.12791137144793652  1.0000
  C   C16       1.0  0.6924747059649408  0.6092081847510754  0.872123396515427  1.0000
  C   C17       1.0  0.3053161486957735  0.04047556667031671  0.6616884342911789  1.0000
  C   C18       1.0  0.6544284412301806  0.3382767941687278  0.04047012818921303  1.0000
  C   C19       1.0  0.00731534774231321  0.959482812275738  0.3382458343140513  1.0000
  C   C20       1.0  0.03313941021444566  0.6616909996496075  0.9595564696909805  1.0000
  C   C21       1.0  0.7426655306361667  0.1617697310368911  0.5405935831732052  1.0000
  C   C22       1.0  0.44473803156088093  0.8383177918285369  0.4595138488671112  1.0000
  C   C23       1.0  0.09560532276295672  0.45948197380359806  0.16169105381652574  1.0000
  C   C24       1.0  0.7168502482045869  0.5404723428101974  0.8383117684865553  1.0000
  C   C25       1.0  0.2726827260649786  0.9996471332668266  0.6320548568021921  1.0000
  C   C26       1.0  0.7278652791463219  0.36796092182571977  0.9996754860846835  1.0000
  C   C27       1.0  0.9042230910152115  0.00036133521930279994  0.3679305687889497  1.0000
  C   C28       1.0  0.09541949245270592  0.6320455170260502  0.00039004910264141203  1.0000
  C   C29       1.0  0.845757134499884  0.13208679429008197  0.49972283282696134  1.0000
  C   C30       1.0  0.47735433296430324  0.8679872283371352  0.5003279898376863  1.0000
  C   C31       1.0  0.022150919613053977  0.5002931528288316  0.13203203803853114  1.0000
  C   C32       1.0  0.6545672380874665  0.4996420032619398  0.8679483825435599  1.0000
  C   C33       1.0  0.24817914202260746  0.028197750252331802  0.5676691831181984  1.0000
  C   C34       1.0  0.7237981596166351  0.43233411339331695  0.02824669105301328  1.0000
  C   C35       1.0  0.8438478115714009  0.9718435868262674  0.43232953014506853  1.0000
  C   C36       1.0  0.1843033461395082  0.5676618054417091  0.9718411922681441  1.0000
  C   C37       1.0  0.9061323627102947  0.06767379799132563  0.5282310950701472  1.0000
  C   C38       1.0  0.5018447722394727  0.9323816870327805  0.47176906718507894  1.0000
  C   C39       1.0  0.02619423930440239  0.4717317095876509  0.06766648511100473  1.0000
  C   C40       1.0  0.5656852039031792  0.5281933308700245  0.932334929356536  1.0000
  C   C41       1.0  0.2588605759335109  0.09582346444441471  0.5321379034007236  1.0000
  C   C42       1.0  0.6454593287143028  0.46783242307617473  0.0958589171687265  1.0000
  C   C43       1.0  0.8866150674977791  0.9042016992669418  0.4678469263651692  1.0000
  C   C44       1.0  0.20911086549386954  0.5321252242174952  0.9042351880262417  1.0000
  C   C45       1.0  0.8633691194208312  0.0321455381534506  0.595864444148006  1.0000
  C   C46       1.0  0.49114293022978467  0.9679083533816525  0.4041542392306782  1.0000
  C   C47       1.0  0.10452093981019317  0.40412319453415085  0.032160099521974024  1.0000
  C   C48       1.0  0.5408786454331604  0.5957954118737733  0.9678684542541519  1.0000
  C   C49       1.0  0.2919348443548415  0.1359003722879137  0.5623929409989971  1.0000
  C   C50       1.0  0.5723675270072448  0.43751041173975125  0.13591968597021512  1.0000
  C   C51       1.0  0.9900321461712166  0.8640986787407455  0.43756022244805587  1.0000
  C   C52       1.0  0.1457512995998229  0.5623948348181571  0.8641681694386137  1.0000
  C   C53       1.0  0.7599536359234874  0.062420566029644  0.6359650238101368  1.0000
  C   C54       1.0  0.458068683532261  0.937639378920224  0.3640889634026863  1.0000
  C   C55       1.0  0.17763440368344882  0.36403293942191783  0.06245454725711139  1.0000
  C   C56       1.0  0.604223364134377  0.6358710107850741  0.9376123130826103  1.0000
  C   C57       1.0  0.16406389442757785  0.9458751318486239  0.5763633060490535  1.0000
  C   C58       1.0  0.8902908332681037  0.42353007305217016  0.9459254618188596  1.0000
  C   C59       1.0  0.6861040752417652  0.0542424310484506  0.4236525741372076  1.0000
  C   C60       1.0  0.2597591727115329  0.5763936302234284  0.054161011393510684  1.0000
  C   C61       1.0  0.06387732038020744  0.0763539080103399  0.4458203118479674  1.0000
  C   C62       1.0  0.5859736447727143  0.9236649924660086  0.5540902835133182  1.0000
  C   C63       1.0  0.8597148028967326  0.5540561114934662  0.07649733196070227  1.0000
  C   C64       1.0  0.49025430603722975  0.445873991278674  0.9236067641346254  1.0000
  C   C65       1.0  0.17809992135769198  0.8823640333148077  0.5399305839663031  1.0000
  C   C66       1.0  0.9397282981421716  0.45992223375314734  0.8823261838697507  1.0000
  C   C67       1.0  0.6002304367839885  0.11776917546155373  0.4600776091750022  1.0000
  C   C68       1.0  0.2820844725669148  0.5399474298721002  0.11771268751795114  1.0000
  C   C69       1.0  0.14973940977856162  0.039910175695098395  0.38228191429350744  1.0000
  C   C70       1.0  0.5719248062881876  0.9600890695076031  0.6176084319811964  1.0000
  C   C71       1.0  0.810285770339135  0.6176410212768674  0.04009416463838982  1.0000
  C   C72       1.0  0.4679172283130558  0.3823316589412613  0.9600569337802086  1.0000
  C   C73       1.0  0.12151891992643048  0.8381859200305398  0.5788751612351889  1.0000
  C   C74       1.0  0.04044665433713877  0.42092142587221565  0.8381225327114876  1.0000
  C   C75       1.0  0.5384607984644771  0.1619326721583292  0.42110512189089633  1.0000
  C   C76       1.0  0.299558252872224  0.5789428863123406  0.1619428595235207  1.0000
  C   C77       1.0  0.21151018623081802  0.0788751055506083  0.3380944855606175  1.0000
  C   C78       1.0  0.628492141023756  0.9211364664137774  0.6617927612544536  1.0000
  C   C79       1.0  0.7095736020141814  0.6618616982614185  0.07907438204330222  1.0000
  C   C80       1.0  0.4504275562355817  0.3380889112591987  0.921088030621725  1.0000
  C   C81       1.0  0.05049592896610029  0.8569836384143275  0.6540156939817692  1.0000
  C   C82       1.0  0.09259153753162515  0.3457828766409818  0.8569256604607888  1.0000
  C   C83       1.0  0.5613626736776213  0.14312818908692293  0.34598844058002953  1.0000
  C   C84       1.0  0.29545490824904164  0.6540698585371345  0.1431429105055955  1.0000
  C   C85       1.0  0.188622416673617  0.15400012247938827  0.3568648278705879  1.0000
  C   C86       1.0  0.6995071730378659  0.8460090421892656  0.643024344707314  1.0000
  C   C87       1.0  0.6574117952434619  0.6430786241478118  0.154220371722289  1.0000
  C   C88       1.0  0.45455271938374864  0.35686063687226277  0.8459504477507809  1.0000
  C   C89       1.0  0.036469541845839754  0.9215184186916758  0.6892337469436073  1.0000
  C   C90       1.0  0.04214497834488665  0.3105798440490872  0.9215284097824749  1.0000
  C   C91       1.0  0.6470992348221571  0.0785932404995364  0.31073972982741094  1.0000
  C   C92       1.0  0.27440894228553253  0.6892850966414059  0.07854281340954831  1.0000
  C   C93       1.0  0.10292572674910624  0.1892579987785155  0.4214129895225157  1.0000
  C   C94       1.0  0.7135899859308527  0.8107845787349535  0.5784566536814497  1.0000
  C   C95       1.0  0.7078501872588916  0.5784828395648773  0.18943942663111105  1.0000
  C   C96       1.0  0.47563123190720114  0.42145109437549877  0.8107152084928373  1.0000
  C   C97       1.0  0.09254036639836745  0.9661847752069406  0.6508906360526582  1.0000
  C   C98       1.0  0.941482167833108  0.3490189534399661  0.9662991819024356  1.0000
  C   C99       1.0  0.7094243536711033  0.033927171180373306  0.3491281280622048  1.0000
  C   C100      1.0  0.2568429471665469  0.6508989014888158  0.03381333838735398  1.0000
  C   C101      1.0  0.04059703818212761  0.15087817555524907  0.46611627861758365  1.0000
  C   C102      1.0  0.6575238202752871  0.8491331609021485  0.5337767210622602  1.0000
  C   C103      1.0  0.8085220113073887  0.5336987452077936  0.15102360289614583  1.0000
  C   C104      1.0  0.49321457692927606  0.46619651267467793  0.8490795579721039  1.0000
  C   C105      1.0  0.9887765670955062  0.810546610027508  0.6953255147844147  1.0000
  C   C106      1.0  0.20070481918840252  0.3044965762276348  0.8104450943514153  1.0000
  C   C107      1.0  0.49456344993416934  0.18958664056269467  0.3046536045318505  1.0000
  C   C108      1.0  0.31586038904705305  0.6953575756370896  0.1895805687712766  1.0000
  C   C109      1.0  0.25539153785010876  0.1953551130844886  0.3103976006798703  1.0000
  C   C110      1.0  0.7611965131266631  0.8046795365277645  0.6894801654115029  1.0000
  C   C111      1.0  0.5493140724041156  0.6895594815422398  0.19553345277094542  1.0000
  C   C112      1.0  0.4341759197023194  0.31041905750978327  0.8046349944050847  1.0000
  C   C113      1.0  0.37794150814391253  0.9821511928462386  0.8952794847268566  1.0000
  C   C114      1.0  0.6400664533496111  0.104786197487293  0.9820017574775052  1.0000
  C   C115      1.0  0.2553273840013617  0.017879769448548202  0.1047871874808237  1.0000
  C   C116      1.0  0.7268506949950864  0.8952155233149527  0.01787217855330439  1.0000
  C   C117      1.0  0.4946785404683569  0.39521967014429293  0.48211317074972015  1.0000
  C   C118      1.0  0.3720775015158825  0.6047081568624149  0.5178539617550372  1.0000
  C   C119      1.0  0.10994184756535932  0.5179141937521763  0.3951855213005048  1.0000
  C   C120      1.0  0.023093564901358953  0.48212255273776355  0.604794113040505  1.0000
  C   C121      1.0  0.3624127765533703  0.015747441353276798  0.9613416627791268  1.0000
  C   C122      1.0  0.6220981478323183  0.03868922305479569  0.015619092110036061  1.0000
  C   C123      1.0  0.33946541203200553  0.9843143068202594  0.03870998432397949  1.0000
  C   C124      1.0  0.6764529844146313  0.961320113871416  0.9842220698257976  1.0000
  C   C125      1.0  0.41053837534205706  0.4612924183736169  0.5156790676547517  1.0000
  C   C126      1.0  0.387578972202114  0.5386596457546701  0.4842544888411738  1.0000
  C   C127      1.0  0.12787393422458862  0.4843155882405837  0.46130166234564746  1.0000
  C   C128      1.0  0.07351392406938823  0.5157324585952098  0.5386665126288648  1.0000
  C   C129      1.0  0.3730618873216259  0.08710891339321591  0.9370329187425882  1.0000
  C   C130      1.0  0.5401617927155798  0.0629484757916501  0.0870177686321726  1.0000
  C   C131      1.0  0.39716543657373665  0.9129159970594926  0.06296633318417832  1.0000
  C   C132      1.0  0.6901295197918954  0.9370346581783267  0.9128521476687155  1.0000
  C   C133      1.0  0.3528516992652511  0.4370341475923921  0.5870876465943056  1.0000
  C   C134      1.0  0.37692602040560536  0.5629771057021246  0.41289763521569284  1.0000
  C   C135      1.0  0.20983899515901774  0.41292070800669484  0.43707137611797026  1.0000
  C   C136      1.0  0.05991327678697207  0.587103676661222  0.5629162007801085  1.0000
  C   C137      1.0  0.36497050047015733  0.1456685592702485  0.9840610101465829  1.0000
  C   C138      1.0  0.4895835404569979  0.0159478440204524  0.14556222222658016  1.0000
  C   C139      1.0  0.49467346379250915  0.8543756273852665  0.01589732566865371  1.0000
  C   C140      1.0  0.6510639824672924  0.984044671401179  0.8543312140050576  1.0000
  C   C141      1.0  0.2553257071730711  0.48409295475926245  0.6456247598664151  1.0000
  C   C142      1.0  0.3849947950511421  0.5159614972523415  0.3543358533053934  1.0000
  C   C143      1.0  0.2603281635790253  0.35436168037549004  0.4841088812309806  1.0000
  C   C144      1.0  0.09886161219789369  0.6456693698463739  0.5158629795564593  1.0000
  C   C145      1.0  0.3729415753418338  0.9093903468457468  0.8831996372383558  1.0000
  C   C146      1.0  0.7177092763781091  0.11693522951827619  0.9092071707474575  1.0000
  C   C147      1.0  0.16551563382743947  0.09065115630434659  0.1168802511486646  1.0000
  C   C148      1.0  0.7438818796536213  0.8830823142960823  0.09064954288240298  1.0000
  C   C149      1.0  0.5844845330725122  0.38312885165998983  0.4093402302942906  1.0000
  C   C150      1.0  0.377098691071744  0.6167746802967573  0.5906070308269448  1.0000
  C   C151      1.0  0.0323231908371043  0.5907042048534592  0.3830019619484233  1.0000
  C   C152      1.0  0.006030126886983532  0.40935225060106717  0.6170075102016456  1.0000
  N   N1        1.0  0.3933883422163123  0.09609300719262137  0.8615039019075326  1.0000
  N   N2        1.0  0.5108045356942625  0.13847894431615518  0.09601651464986821  1.0000
  N   N3        1.0  0.3509419655644309  0.903889554258889  0.13849940421842896  1.0000
  N   N4        1.0  0.7452313368515037  0.8614863578879552  0.9039001210843552  1.0000
  N   N5        1.0  0.3990867300252531  0.36150900627534094  0.5961192505814097  1.0000
  N   N6        1.0  0.35662468242809087  0.63849759631335  0.40391383980250595  1.0000
  N   N7        1.0  0.2392329976181172  0.4039084553806446  0.36153648683823997  1.0000
  N   N8        1.0  0.004820587307101284  0.5960890523652439  0.6384730878893734  1.0000
  N   N9        1.0  0.39682166930845864  0.0321573468284626  0.837686953302864  1.0000
  N   N10       1.0  0.571210715261856  0.1623440034754111  0.03204309630159241  1.0000
  N   N11       1.0  0.26664739037175894  0.9678403049872059  0.16235528810405234  1.0000
  N   N12       1.0  0.765537075653519  0.8376354341939846  0.9678739609565029  1.0000
  N   N13       1.0  0.48338215621570424  0.3376611925907298  0.5321678594334571  1.0000
  N   N14       1.0  0.3532128969656016  0.6623016620836494  0.4678482725095422  1.0000
  N   N15       1.0  0.17883698410860657  0.46786486655695114  0.3376509201230249  1.0000
  N   N16       1.0  0.9844790438896143  0.5321361828348684  0.6623465257600217  1.0000
  O   O1        1.0  0.3751405946551289  0.12270958650408659  0.7175967772767748  1.0000
  O   O2        1.0  0.5021339197572914  0.2825470698355517  0.1225176388337132  1.0000
  O   O3        1.0  0.2152819875069626  0.8773306498494121  0.28244421375757167  1.0000
  O   O4        1.0  0.9072220617510638  0.7174734587903869  0.8774014639911771  1.0000
  O   O5        1.0  0.5347760477449485  0.21754445708685918  0.6226294799757641  1.0000
  O   O6        1.0  0.37484742951959776  0.7824153588087627  0.3773770327117278  1.0000
  O   O7        1.0  0.24786783888062314  0.3773830686565773  0.2174770959035257  1.0000
  O   O8        1.0  0.8426847529954814  0.6226330592803322  0.7824699996521288  1.0000
  O   O9        1.0  0.347412735063955  0.2184769997137224  0.6337587713344561  1.0000
  O   O10       1.0  0.43430101949685734  0.3660939304571755  0.21848828934705727  1.0000
  O   O11       1.0  0.19958172696983226  0.7814452919751318  0.36612513181822953  1.0000
  O   O12       1.0  0.01902484745172472  0.6339546656445306  0.781439522570004  1.0000
  O   O13       1.0  0.5503304310982743  0.1339186059415098  0.7185850439023015  1.0000
  O   O14       1.0  0.4025655431134895  0.8661964093760588  0.2815542778502476  1.0000
  O   O15       1.0  0.3157510134254125  0.2815206974272684  0.1337905806235113  1.0000
  O   O16       1.0  0.7310349562094699  0.7185517056358608  0.8660878686411523  1.0000
  O   O17       1.0  0.2188963755734364  0.9895280584715848  0.5331926321920977  1.0000
  O   O18       1.0  0.7918382266494107  0.4667439625331085  0.9896280255046576  1.0000
  O   O19       1.0  0.7414216241101956  0.010537090332349001  0.4668032247847334  1.0000
  O   O20       1.0  0.24815853824459577  0.5332447658730571  0.010445283343742147  1.0000
  O   O21       1.0  0.008555127403454422  0.03320241100043119  0.48953478954602053  1.0000
  O   O22       1.0  0.5311494061490551  0.9668402448169926  0.5104326930043329  1.0000
  O   O23       1.0  0.9581414108749585  0.5103338310820719  0.03326821748134294  1.0000
  O   O24       1.0  0.5018356310438179  0.48958340625807056  0.9667738612293493  1.0000
  O   O25       1.0  0.01111981531830269  0.7479148630314327  0.6642395058607775  1.0000
  O   O26       1.0  0.24096746024586202  0.33549741044124914  0.7477194496070894  1.0000
  O   O27       1.0  0.42328658135247116  0.25229597329722947  0.3356390020021324  1.0000
  O   O28       1.0  0.3244752145485704  0.6643468844577356  0.25227723194372953  1.0000
  O   O29       1.0  0.326644096228577  0.16442297835362754  0.24764939469507397  1.0000
  O   O30       1.0  0.7389084374780738  0.8356121307380279  0.7521920315503793  1.0000
  O   O31       1.0  0.5090176825946315  0.7522934156032337  0.16455252293942388  1.0000
  O   O32       1.0  0.4255215076362757  0.24773223351677845  0.8356380490720384  1.0000
  O   O33       1.0  0.9161942745320889  0.8351961786327067  0.7593059634762442  1.0000
  O   O34       1.0  0.24863342202704075  0.24059743257814867  0.8352082696019993  1.0000
  O   O35       1.0  0.5105804132966585  0.16486556315143022  0.2407263429083883  1.0000
  O   O36       1.0  0.32455831730924706  0.759296126172437  0.16485303967257184  1.0000
  O   O37       1.0  0.23935129520007342  0.2592586276821933  0.3351874224386719  1.0000
  O   O38       1.0  0.8337927274502877  0.7407466590524834  0.6646824795939353  1.0000
  O   O39       1.0  0.5014180089489741  0.6647848675927152  0.2594405621932411  1.0000
  O   O40       1.0  0.4255342246435914  0.3351594231612936  0.7406829100843382  1.0000
