data_image0
_chemical_formula_structural       Zn4H44C54N16O20
_chemical_formula_sum              "Zn4 H44 C54 N16 O20"
_cell_length_a       9.80826164592364
_cell_length_b       11.102907420427501
_cell_length_c       22.23043553973294
_cell_angle_alpha    90.01590293782468
_cell_angle_beta     90.32859845790401
_cell_angle_gamma    90.41702921416575

_space_group_name_H-M_alt    "P 1"
_space_group_IT_number       1

loop_
  _space_group_symop_operation_xyz
  'x, y, z'

loop_
  _atom_site_type_symbol
  _atom_site_label
  _atom_site_symmetry_multiplicity
  _atom_site_fract_x
  _atom_site_fract_y
  _atom_site_fract_z
  _atom_site_occupancy
  Zn  Zn1       1.0  0.6467551515183771  0.49649276027358263  0.4958398280532633  1.0000
  Zn  Zn2       1.0  0.3562333727553053  0.49771812087276146  0.5031627879985408  1.0000
  Zn  Zn3       1.0  0.35113336304799964  0.5063204972029283  0.992191402034834  1.0000
  Zn  Zn4       1.0  0.6405187864614063  0.5125567513451728  0.9982674587478471  1.0000
  H   H1        1.0  0.1205774231257735  0.597847204716004  0.6342105039183039  1.0000
  H   H2        1.0  0.13140236225862623  0.7227956971695234  0.5840464481559877  1.0000
  H   H3        1.0  0.8740234505738018  0.7289772761241765  0.578049650227392  1.0000
  H   H4        1.0  0.8645912159080494  0.6038269377507247  0.6284148793821913  1.0000
  H   H5        1.0  0.17180641336479852  0.8787820157538137  0.4716963614012003  1.0000
  H   H6        1.0  0.19670460221124844  0.8840209929922409  0.5513735084530254  1.0000
  H   H7        1.0  0.19286298273073044  0.10905522120350498  0.5486490974279192  1.0000
  H   H8        1.0  0.174374658815772  0.10423913744872948  0.46878006796245597  1.0000
  H   H9        1.0  0.595665991226646  0.3082254022783601  0.8602822483336467  1.0000
  H   H10       1.0  0.6844812612540566  0.1327845075633078  0.805186275936272  1.0000
  H   H11       1.0  0.6304054443723288  0.3169640707307195  0.6362749794469238  1.0000
  H   H12       1.0  0.702471098089241  0.13723127411534355  0.6933492002755771  1.0000
  H   H13       1.0  0.8084855193751538  0.42599701908088866  0.18571499429069152  1.0000
  H   H14       1.0  0.8088770427872731  0.5847490280454862  0.1964176437199328  1.0000
  H   H15       1.0  0.8150303349493129  0.5518243700099957  0.3085344049819696  1.0000
  H   H16       1.0  0.8022123262823229  0.3929787533910627  0.2957638944365115  1.0000
  H   H17       1.0  0.854575203706638  0.6082343179404575  0.8660397046054842  1.0000
  H   H18       1.0  0.8713496009565133  0.7380392839254668  0.9129204204514921  1.0000
  H   H19       1.0  0.1276915643844632  0.7245932802857952  0.9053627151870458  1.0000
  H   H20       1.0  0.11018931270551491  0.5956434845442473  0.8583623841609977  1.0000
  H   H21       1.0  0.7944051473641169  0.8875486535409323  0.0493073489178144  1.0000
  H   H22       1.0  0.8186544264739695  0.8957521728592895  0.9699019270950303  1.0000
  H   H23       1.0  0.824194699209599  0.12238461536341558  0.9761490020350864  1.0000
  H   H24       1.0  0.7941234968185712  0.11194105007339766  0.05531853263261871  1.0000
  H   H25       1.0  0.7695988047845219  0.38344189527180106  0.4025374845566461  1.0000
  H   H26       1.0  0.92701599926027  0.3437528002095789  0.3763340393063999  1.0000
  H   H27       1.0  0.24052236662382143  0.3109555617325128  0.44326150209481346  1.0000
  H   H28       1.0  0.08725474263015091  0.26080246744324137  0.41502197110757794  1.0000
  H   H29       1.0  0.7514136618205356  0.20151187657805986  0.5072967662665634  1.0000
  H   H30       1.0  0.8273853009649059  0.06400370714171538  0.5186420950213488  1.0000
  H   H31       1.0  0.7400814786671575  0.7847836084410248  0.4763916818853104  1.0000
  H   H32       1.0  0.8174042389254906  0.9204855898313082  0.460078194255786  1.0000
  H   H33       1.0  0.2506748717381271  0.526893108611901  0.3536099938367628  1.0000
  H   H34       1.0  0.1799184569293715  0.5861202284314686  0.28931434685114976  1.0000
  H   H35       1.0  0.24412055089150902  0.5366272106683497  0.1428437139595005  1.0000
  H   H36       1.0  0.1605799672034607  0.49802098569277564  0.20892290344453812  1.0000
  H   H37       1.0  0.2370213965753862  0.3344613823794305  0.0639409304761003  1.0000
  H   H38       1.0  0.0903071105080784  0.325879375964547  0.1084915157766986  1.0000
  H   H39       1.0  0.7578180555059006  0.38388682184842077  0.0855767114956052  1.0000
  H   H40       1.0  0.8869922951325151  0.2802579935682132  0.08315740408963991  1.0000
  H   H41       1.0  0.24971061586317236  0.2175607276727192  0.9718929902786896  1.0000
  H   H42       1.0  0.1853495232801876  0.0846957017887249  0.9442688135244667  1.0000
  H   H43       1.0  0.24470221660975258  0.7980961373426325  0.9840085665331415  1.0000
  H   H44       1.0  0.1634172652010335  0.9327997193907224  0.9987311360818083  1.0000
  C   C1        1.0  0.49289430262454204  0.7303291288416034  0.493198814720799  1.0000
  C   C2        1.0  0.5186788272977197  0.5161011367634458  0.6156095744618925  1.0000
  C   C3        1.0  0.5020263966760723  0.25867257243501024  0.5028980980738709  1.0000
  C   C4        1.0  0.49539755578650363  0.4858320733809265  0.3794161050100087  1.0000
  C   C5        1.0  0.49224755009609583  0.7427719060794825  0.9946557860504159  1.0000
  C   C6        1.0  0.5025476304319056  0.5131423585857887  0.8787476171573304  1.0000
  C   C7        1.0  0.4985355603496445  0.2716378866571745  0.9953388264546775  1.0000
  C   C8        1.0  0.49050852233235526  0.5107151800187211  0.1150693710493513  1.0000
  C   C9        1.0  0.0701480839929047  0.5513354697113186  0.5399745835831951  1.0000
  C   C10       1.0  0.93048387097825  0.4245803873572952  0.45771459650126906  1.0000
  C   C11       1.0  0.9306200957058408  0.5544775674742439  0.5368066820410604  1.0000
  C   C12       1.0  0.0770887128969377  0.4126365159464028  0.4650004402126343  1.0000
  C   C13       1.0  0.079331687665352  0.6369560090763428  0.592657065608215  1.0000
  C   C14       1.0  0.917427673076041  0.6407282551655981  0.5891293309196257  1.0000
  C   C15       1.0  0.500143185415169  0.8635027135736024  0.4950063479351882  1.0000
  C   C16       1.0  0.5038414506512083  0.12574286009508737  0.4998292214082127  1.0000
  C   C17       1.0  0.38168972481293656  0.9326128585772934  0.5005327305181382  1.0000
  C   C18       1.0  0.6264462368261903  0.05852661101197039  0.49706743019432054  1.0000
  C   C19       1.0  0.38272158145708357  0.05715899398209958  0.5008867683225802  1.0000
  C   C20       1.0  0.6241211452904736  0.9294621532686024  0.4917233920766861  1.0000
  C   C21       1.0  0.2288767887898899  0.9232185433642075  0.5083295647694257  1.0000
  C   C22       1.0  0.2291230388340466  0.065403820724292  0.5073781543177776  1.0000
  C   C23       1.0  0.5093356881269457  0.5181924688350107  0.8109080140549311  1.0000
  C   C24       1.0  0.5593796798850192  0.41487742705101727  0.7797988146436694  1.0000
  C   C25       1.0  0.4761987598681188  0.6198419815971048  0.7785452330918048  1.0000
  C   C26       1.0  0.601993323684944  0.31051529064077227  0.811331119516737  1.0000
  C   C27       1.0  0.6525291628177571  0.21267830112783773  0.7804927353444739  1.0000
  C   C28       1.0  0.5256464480008134  0.5215951389657647  0.6833487540402885  1.0000
  C   C29       1.0  0.48115276787969913  0.6204389331665041  0.7148343374629462  1.0000
  C   C30       1.0  0.570055515921844  0.41741704929484064  0.7154989528787682  1.0000
  C   C31       1.0  0.6217465518585003  0.3152057095319947  0.685135068761987  1.0000
  C   C32       1.0  0.6625229171730426  0.21511859426487942  0.7171670350624737  1.0000
  C   C33       1.0  0.4886979733750749  0.5130997773410684  0.18171713100941392  1.0000
  C   C34       1.0  0.4900840735443666  0.4938187092980825  0.31283862729262074  1.0000
  C   C35       1.0  0.6087639516272318  0.5009798161813634  0.2159648883646526  1.0000
  C   C36       1.0  0.3674230093847656  0.5133238168381881  0.2801763468073233  1.0000
  C   C37       1.0  0.6090954137314526  0.4894570811668829  0.2779454710397999  1.0000
  C   C38       1.0  0.3664653104739841  0.520804240103878  0.2154711516020953  1.0000
  C   C39       1.0  0.7629272288835409  0.4993868080570891  0.2116287268184252  1.0000
  C   C40       1.0  0.7631272402804612  0.4814360215146535  0.2819502165292604  1.0000
  C   C41       1.0  0.9247456168650957  0.5659086236714898  0.9579599092979764  1.0000
  C   C42       1.0  0.06997557973844691  0.42527267986050526  0.0315393579500949  1.0000
  C   C43       1.0  0.0638323340661344  0.5576384039584565  0.9536760948517085  1.0000
  C   C44       1.0  0.9224588553477346  0.43324971509479565  0.03568150821391921  1.0000
  C   C45       1.0  0.911178701155798  0.6477484012553987  0.9039684138778912  1.0000
  C   C46       1.0  0.0724871155303859  0.6391654696906598  0.8992838683320912  1.0000
  C   C47       1.0  0.4895314782287912  0.8759427427646425  0.9920642468492106  1.0000
  C   C48       1.0  0.49333179300445107  0.1384820676063683  0.9936265571153697  1.0000
  C   C49       1.0  0.6097573677586396  0.9442134989602381  0.9984950722905027  1.0000
  C   C50       1.0  0.3701446942860827  0.07267270462187979  0.9848172972306557  1.0000
  C   C51       1.0  0.6115586241025923  0.06872473832350319  0.9998699489087671  1.0000
  C   C52       1.0  0.3678460761599922  0.9431434234542594  0.9854890582554887  1.0000
  C   C53       1.0  0.7623064491938152  0.933938582129066  0.0079715781961269  1.0000
  C   C54       1.0  0.7640409215823213  0.07621605527575778  0.0109013103906435  1.0000
  N   N1        1.0  0.1478673701070079  0.4814992902738453  0.5043987053409538  1.0000
  N   N2        1.0  0.8563776831011014  0.49367282852393407  0.4950967410963187  1.0000
  N   N3        1.0  0.8499937200050027  0.5051259432525227  0.9989377817792331  1.0000
  N   N4        1.0  0.1414721031598702  0.48998110399185163  0.9907532282163416  1.0000
  N   N5        1.0  0.8686180287772062  0.3604320275710293  0.4129084643292558  1.0000
  N   N6        1.0  0.14339462959800642  0.3325098783235703  0.4293440209455214  1.0000
  N   N7        1.0  0.7545740290790732  0.11213200873331888  0.49663959752815867  1.0000
  N   N8        1.0  0.750197225003035  0.8743623300454572  0.48631590288638193  1.0000
  N   N9        1.0  0.24130051611957978  0.5222760313592899  0.307784669264457  1.0000
  N   N10       1.0  0.2408098534273648  0.5397439933539943  0.1887609290018304  1.0000
  N   N11       1.0  0.13494576363739702  0.3485610215162254  0.0691588670903798  1.0000
  N   N12       1.0  0.8600782907118828  0.3683866144192364  0.0802652105335895  1.0000
  N   N13       1.0  0.24398601371025558  0.12646444560039777  0.9761114380218247  1.0000
  N   N14       1.0  0.24118417570015546  0.8892658298149669  0.9780893734258173  1.0000
  N   N15       1.0  0.4242660852627367  0.7234721154902957  0.6817463386312497  1.0000
  N   N16       1.0  0.45093329541845156  0.7341183090401768  0.8102368068283496  1.0000
  O   O1        1.0  0.6031757926030821  0.671993761386865  0.482117386578743  1.0000
  O   O2        1.0  0.37759922087260384  0.680612710074449  0.5026238350068937  1.0000
  O   O3        1.0  0.40057309459890433  0.49841921705084496  0.5936931778112823  1.0000
  O   O4        1.0  0.6306637670818916  0.5237956933291913  0.588072711237956  1.0000
  O   O5        1.0  0.38729692499227036  0.31165848723729533  0.49616143950944297  1.0000
  O   O6        1.0  0.6143100823734998  0.3161108678824931  0.5123412182156528  1.0000
  O   O7        1.0  0.6108116050685979  0.4625072379006951  0.4041627610125005  1.0000
  O   O8        1.0  0.38657795713800885  0.5034008532293014  0.4095129454435593  1.0000
  O   O9        1.0  0.3802119797623007  0.6846793738983479  0.9846019504462048  1.0000
  O   O10       1.0  0.605800961586212  0.6930812164810901  0.006917199697959099  1.0000
  O   O11       1.0  0.6124168729633297  0.5387030063354387  0.9063252398475116  1.0000
  O   O12       1.0  0.3904963895471383  0.4790073037283518  0.90115220338636  1.0000
  O   O13       1.0  0.611391026580499  0.3254016364202101  0.9858374587567341  1.0000
  O   O14       1.0  0.386253292974132  0.3271878298772606  0.0067522471028880005  1.0000
  O   O15       1.0  0.37970662156633495  0.5302740896797999  0.0859544197322251  1.0000
  O   O16       1.0  0.6041039111653675  0.4865468377708524  0.089440201926628  1.0000
  O   O17       1.0  0.48640957863448603  0.7595314660665762  0.6369402220427531  1.0000
  O   O18       1.0  0.3154321633855233  0.7648860314269471  0.700726665732958  1.0000
  O   O19       1.0  0.3700911074934083  0.7331910197857712  0.8526202378146762  1.0000
  O   O20       1.0  0.5171387811527381  0.8227946789169565  0.7925748334457909  1.0000
