data_image0
_chemical_formula_structural       Cd4H32C52S4N4O18
_chemical_formula_sum              "Cd4 H32 C52 S4 N4 O18"
_cell_length_a       10.216344975423729
_cell_length_b       12.015537763573226
_cell_length_c       12.015540432638037
_cell_angle_alpha    71.62022575350719
_cell_angle_beta     73.74362302492486
_cell_angle_gamma    73.74357923663416

_space_group_name_H-M_alt    "P 1"
_space_group_IT_number       1

loop_
  _space_group_symop_operation_xyz
  'x, y, z'

loop_
  _atom_site_type_symbol
  _atom_site_label
  _atom_site_symmetry_multiplicity
  _atom_site_fract_x
  _atom_site_fract_y
  _atom_site_fract_z
  _atom_site_occupancy
  Cd  Cd1       1.0  0.9180070882709688  0.5682561532181084  0.2960207250083045  1.0000
  Cd  Cd2       1.0  0.5819924052111959  0.7039793894349203  0.4317440266767037  1.0000
  Cd  Cd3       1.0  0.08199312960318389  0.4317438412206658  0.703978260929574  1.0000
  Cd  Cd4       1.0  0.4180070116175615  0.2960196976981279  0.5682570943558218  1.0000
  H   H1        1.0  0.7150766654323348  0.4455135643738403  0.48916805506745936  1.0000
  H   H2        1.0  0.7849237647801673  0.5108316729676688  0.5544860688715615  1.0000
  H   H3        1.0  0.28492377198308116  0.5544855285102132  0.5108319909626856  1.0000
  H   H4        1.0  0.21507667263524874  0.48916741991638446  0.4455139771585834  1.0000
  H   H5        1.0  0.3791734796477684  0.5580966323482458  0.2872383385688694  1.0000
  H   H6        1.0  0.12082719096313355  0.7127615037320894  0.4419024813196656  1.0000
  H   H7        1.0  0.6208259371809889  0.4419024547848024  0.712762782463649  1.0000
  H   H8        1.0  0.8791732490710301  0.2872375981440314  0.5580958967663321  1.0000
  H   H9        1.0  0.7580366320797298  0.3989730067888573  0.0791290441493331  1.0000
  H   H10       1.0  0.7419640655576176  0.9208691894191786  0.6010277263207939  1.0000
  H   H11       1.0  0.24196132638921602  0.6010278821986789  0.9208701977289736  1.0000
  H   H12       1.0  0.2580384117217349  0.07912991047083301  0.3989710036766709  1.0000
  H   H13       1.0  0.6255939274321562  0.287716778425569  0.021621024419815272  1.0000
  H   H14       1.0  0.8744053054083739  0.9783778917001272  0.7122840541601648  1.0000
  H   H15       1.0  0.3744052685459637  0.7122832057661695  0.9783798704925176  1.0000
  H   H16       1.0  0.12559309476185382  0.021621203170028004  0.2877156399585061  1.0000
  H   H17       1.0  0.36295581244251457  0.029091843140122406  0.0685576481466583  1.0000
  H   H18       1.0  0.13704261557874278  0.9314422151527355  0.9709082717322062  1.0000
  H   H19       1.0  0.6370433835356127  0.9709081410516163  0.9314432467656742  1.0000
  H   H20       1.0  0.8629548998795612  0.0685604634561443  0.02909135187778845  1.0000
  H   H21       1.0  0.46239927645013523  0.8246957462982465  0.18618090717303917  1.0000
  H   H22       1.0  0.03760046634139511  0.8138187077080516  0.17530464330474874  1.0000
  H   H23       1.0  0.5375999195279917  0.17530423789349212  0.8138199877393006  1.0000
  H   H24       1.0  0.9623995293727462  0.1861821792933824  0.8246949504850178  1.0000
  H   H25       1.0  0.5967377907219885  0.9681316235567649  0.39528296075243935  1.0000
  H   H26       1.0  0.9032627595336465  0.6047168011937102  0.03186823753672031  1.0000
  H   H27       1.0  0.4032626453840606  0.0318674648312509  0.6047179192497794  1.0000
  H   H28       1.0  0.09673825676715352  0.39528409155872163  0.9681302812506729  1.0000
  H   H29       1.0  0.511417866333325  0.17505585420739322  0.2869980157807959  1.0000
  H   H30       1.0  0.9885824074340449  0.7130020883603835  0.8249438983946434  1.0000
  H   H31       1.0  0.4885835890500018  0.8249432354355835  0.7130026231911232  1.0000
  H   H32       1.0  0.01141984768529621  0.2869979040922884  0.17505543945470955  1.0000
  C   C1        1.0  0.20036941504876182  0.4580968756655182  0.2420012624662675  1.0000
  C   C2        1.0  0.29962968301975235  0.7579995601250641  0.5419024177405022  1.0000
  C   C3        1.0  0.7996289811933436  0.5419022057165322  0.7580009335686314  1.0000
  C   C4        1.0  0.7003715502035561  0.24200042208056524  0.45809882908330485  1.0000
  C   C5        1.0  0.6570928966454306  0.5401962670671027  0.2344542962238591  1.0000
  C   C6        1.0  0.8429086167275132  0.7655465994693317  0.459800841640515  1.0000
  C   C7        1.0  0.3429079811618862  0.4598010272035325  0.7655470360187381  1.0000
  C   C8        1.0  0.15709182199727684  0.2344524979107518  0.5401983704175564  1.0000
  C   C9        1.0  0.3558392709696818  0.43399451065373296  0.20104029135988094  1.0000
  C   C10       1.0  0.14416052150176745  0.7989591572415479  0.5660066192184275  1.0000
  C   C11       1.0  0.6441597054671819  0.5660063750927335  0.7989595434601853  1.0000
  C   C12       1.0  0.8558394768311219  0.20104173875195386  0.43399130662719176  1.0000
  C   C13       1.0  0.432346708037592  0.49646395685772404  0.2310629518874663  1.0000
  C   C14       1.0  0.06765375671795236  0.7689378173740806  0.5035356203624559  1.0000
  C   C15       1.0  0.567653726759076  0.5035351270342545  0.768938762086826  1.0000
  C   C16       1.0  0.9323452223376595  0.23106307736445333  0.4964625465134702  1.0000
  C   C17       1.0  0.5767304209311773  0.48140558514776194  0.19074702929147955  1.0000
  C   C18       1.0  0.9232702987959416  0.8092507899619364  0.5185955260048373  1.0000
  C   C19       1.0  0.42326957478296384  0.5185953018536651  0.8092525644982941  1.0000
  C   C20       1.0  0.07673013992885565  0.1907483074181471  0.4814036860532341  1.0000
  C   C21       1.0  0.6461851555691709  0.407586832460801  0.11335567360619346  1.0000
  C   C22       1.0  0.8538145892714086  0.8866434617834715  0.5924133305960239  1.0000
  C   C23       1.0  0.3538130224410381  0.5924131549720074  0.8866446283643653  1.0000
  C   C24       1.0  0.14618562860274412  0.11335653265530958  0.4075856553418618  1.0000
  C   C25       1.0  0.5719122379909861  0.346144591335687  0.08121263172587588  1.0000
  C   C26       1.0  0.9280877112425049  0.9187863914078634  0.6538563836113056  1.0000
  C   C27       1.0  0.42808673844587736  0.6538562944107795  0.9187872030941974  1.0000
  C   C28       1.0  0.0719135272183067  0.08121360878190842  0.3461415273242068  1.0000
  C   C29       1.0  0.4283434662997081  0.3556705841003876  0.1271220488624394  1.0000
  C   C30       1.0  0.07165638989069832  0.8728778352239245  0.6443291005900492  1.0000
  C   C31       1.0  0.5716557296784117  0.6443294000913512  0.8728788460498931  1.0000
  C   C32       1.0  0.9283446264100946  0.12712305752850742  0.35566941819735115  1.0000
  C   C33       1.0  0.42899814037318873  0.12089889190195181  0.16678078951262174  1.0000
  C   C34       1.0  0.07100185023933389  0.8332195720611326  0.879102497406727  1.0000
  C   C35       1.0  0.5710030941595008  0.8791010947997152  0.8332196233391116  1.0000
  C   C36       1.0  0.92899792462417  0.16678221199898494  0.12089687026285394  1.0000
  C   C37       1.0  0.4149335618031529  0.019281300398105803  0.13997784844302436  1.0000
  C   C38       1.0  0.08506554485904874  0.8600226026427649  0.9807198480497946  1.0000
  C   C39       1.0  0.5850666534522517  0.9807186850486006  0.8600228054390087  1.0000
  C   C40       1.0  0.914932190140519  0.139979174411387  0.019280835652473474  1.0000
  C   C41       1.0  0.46902572802552106  0.9057372327641106  0.2051945148779168  1.0000
  C   C42       1.0  0.030975190578956764  0.7948056453125717  0.09426309902849546  1.0000
  C   C43       1.0  0.530974708080521  0.0942618556238983  0.7948063651243019  1.0000
  C   C44       1.0  0.9690237858578997  0.20519524043389484  0.9057367357915781  1.0000
  C   C45       1.0  0.5468287780767228  0.9851457871912715  0.32064214787121864  1.0000
  C   C46       1.0  0.9531718544006083  0.6793555218793301  0.01485574153079481  1.0000
  C   C47       1.0  0.453172679925352  0.014853311443779701  0.6793568231565529  1.0000
  C   C48       1.0  0.04682858301480763  0.3206435710047231  0.9851443044993501  1.0000
  C   C49       1.0  0.4982513505277382  0.1017876500336641  0.2591998694140401  1.0000
  C   C50       1.0  0.001749402245984264  0.7407998074924225  0.8982125251358823  1.0000
  C   C51       1.0  0.50175090459161  0.8982123424190007  0.7407994684353129  1.0000
  C   C52       1.0  0.9982516114360678  0.2592010762679351  0.10178766159566531  1.0000
  S   S1        1.0  0.3469635114000694  0.2621072000186047  0.0920942294640668  1.0000
  S   S2        1.0  0.15303665389698307  0.9079056520229614  0.7378924638987101  1.0000
  S   S3        1.0  0.6530359054286877  0.7378918871144434  0.9079068915684517  1.0000
  S   S4        1.0  0.8469623238492546  0.09209523821953522  0.26210653694928965  1.0000
  N   N1        1.0  0.5335394271434951  0.8880585445932213  0.2949707564943935  1.0000
  N   N2        1.0  0.9664610110288339  0.7050282927348305  0.11194136577384482  1.0000
  N   N3        1.0  0.46646101027192804  0.1119405482908249  0.7050292895357516  1.0000
  N   N4        1.0  0.03353898468530764  0.2949725942665964  0.8880582280159288  1.0000
  O   O1        1.0  0.1263853515167881  0.4449604451844919  0.1809486627933268  1.0000
  O   O2        1.0  0.3736149593475845  0.8190515746482705  0.5550389778531437  1.0000
  O   O3        1.0  0.8736148624292427  0.555039535766177  0.8190528250607797  1.0000
  O   O4        1.0  0.6263828658653808  0.18094573384161083  0.44495974159205803  1.0000
  O   O5        1.0  0.1450752123661019  0.49975856235131033  0.3359599565690559  1.0000
  O   O6        1.0  0.35492517229594256  0.664040455320418  0.5002411832075778  1.0000
  O   O7        1.0  0.8549252237399403  0.5002405260367054  0.6640409234331628  1.0000
  O   O8        1.0  0.6450736630286898  0.335956822952177  0.49976313301184655  1.0000
  O   O9        1.0  0.5906735878098958  0.6304008950336665  0.274886119364389  1.0000
  O   O10       1.0  0.9093250359741704  0.7251156469727462  0.36959921752469443  1.0000
  O   O11       1.0  0.4093264052854978  0.3695999829756929  0.7251151423695318  1.0000
  O   O12       1.0  0.09067314465478658  0.27488434945213674  0.6303994165017172  1.0000
  O   O13       1.0  0.7864918539433319  0.4923659172342738  0.22862431254890941  1.0000
  O   O14       1.0  0.7135073939806135  0.7713779603917531  0.5076320513518482  1.0000
  O   O15       1.0  0.21350756419480632  0.5076331743948117  0.7713759745115426  1.0000
  O   O16       1.0  0.2864928238935391  0.22862203404702092  0.4923669345860375  1.0000
  O   O17       1.0  0.7499993535093312  0.5197167438930848  0.4802839314095879  1.0000
  O   O18       1.0  0.24999984377816284  0.4802832447946913  0.5197161295306713  1.0000
