data_image0
_chemical_formula_structural       H48Pd12C96N48O24F24
_chemical_formula_sum              "H48 Pd12 C96 N48 O24 F24"
_cell_length_a       16.359331581017702
_cell_length_b       16.359325976014954
_cell_length_c       16.359336636018007
_cell_angle_alpha    90.00011067019196
_cell_angle_beta     90.00012909942245
_cell_angle_gamma    89.99989158879298

_space_group_name_H-M_alt    "P 1"
_space_group_IT_number       1

loop_
  _space_group_symop_operation_xyz
  'x, y, z'

loop_
  _atom_site_type_symbol
  _atom_site_label
  _atom_site_symmetry_multiplicity
  _atom_site_fract_x
  _atom_site_fract_y
  _atom_site_fract_z
  _atom_site_occupancy
  H   H1        1.0  0.918046877288397  0.07327744253415598  0.23911104504174577  1.0000
  H   H2        1.0  0.5819551828889685  0.42672447392000373  0.23911100773099758  1.0000
  H   H3        1.0  0.5819549305345078  0.07327655898652098  0.2608884442765813  1.0000
  H   H4        1.0  0.9180465674403775  0.42672234317185337  0.26088977558266896  1.0000
  H   H5        1.0  0.23911350671001227  0.9180480588841745  0.07327552083386732  1.0000
  H   H6        1.0  0.23911177775370623  0.5819526461560186  0.4267229018808792  1.0000
  H   H7        1.0  0.26088916422561687  0.5819559518442575  0.07327522076752052  1.0000
  H   H8        1.0  0.2608867993395024  0.9180471570844516  0.42672508483311594  1.0000
  H   H9        1.0  0.0732739728380025  0.2391133580862501  0.9180460958011738  1.0000
  H   H10       1.0  0.4267226316365367  0.23911208784610238  0.5819521815066936  1.0000
  H   H11       1.0  0.0732772412564984  0.2608889917863734  0.5819542494004184  1.0000
  H   H12       1.0  0.4267242121926458  0.26088898198297267  0.9180465150632673  1.0000
  H   H13       1.0  0.5732769401889684  0.4180479781813275  0.7608888702984802  1.0000
  H   H14       1.0  0.9267207941239236  0.08195372354838067  0.7608920002779558  1.0000
  H   H15       1.0  0.5732772336255536  0.08195159180615258  0.7391113790563539  1.0000
  H   H16       1.0  0.9267247305283776  0.4180464002230622  0.7391139357029461  1.0000
  H   H17       1.0  0.41804370829625986  0.7391091900093656  0.9267221355384836  1.0000
  H   H18       1.0  0.0819531726633187  0.739111000451004  0.5732777188456809  1.0000
  H   H19       1.0  0.08195293894834779  0.7608879113450655  0.9267217779004329  1.0000
  H   H20       1.0  0.4180457346166833  0.7608890858553606  0.5732756734664053  1.0000
  H   H21       1.0  0.7391116548886032  0.5732766661229861  0.08195275339753043  1.0000
  H   H22       1.0  0.7391123103900837  0.9267237041252085  0.4180461847397298  1.0000
  H   H23       1.0  0.7608898181407256  0.5732769701015314  0.4180464791859323  1.0000
  H   H24       1.0  0.7608866600536289  0.9267251927595481  0.08195250802350533  1.0000
  H   H25       1.0  0.0819544290598273  0.9267234343954627  0.7608888080108545  1.0000
  H   H26       1.0  0.4180473460013872  0.5732745691891239  0.7608857889625541  1.0000
  H   H27       1.0  0.4180469870872584  0.9267218728534131  0.7391107975026119  1.0000
  H   H28       1.0  0.08195535018345619  0.5732760886698569  0.7391113000117148  1.0000
  H   H29       1.0  0.7608896334509652  0.08195526313163272  0.9267237209514223  1.0000
  H   H30       1.0  0.7608895285956692  0.4180470082293368  0.5732769511705342  1.0000
  H   H31       1.0  0.7391115308500035  0.418044925085347  0.9267240210126534  1.0000
  H   H32       1.0  0.739110839381695  0.08195188603460929  0.5732772133004929  1.0000
  H   H33       1.0  0.926723665878349  0.7608893526643996  0.08195497979252053  1.0000
  H   H34       1.0  0.5732743958117297  0.7608851214547911  0.41804767153754363  1.0000
  H   H35       1.0  0.9267234538211824  0.739111885145  0.41804682619494593  1.0000
  H   H36       1.0  0.5732758716123172  0.7391112836756689  0.08195333798736472  1.0000
  H   H37       1.0  0.4267231436167975  0.5819528987506287  0.23911220529619476  1.0000
  H   H38       1.0  0.0732762333252452  0.918044708298538  0.2391096865826442  1.0000
  H   H39       1.0  0.42672468399816676  0.9180462287628403  0.26088908526570265  1.0000
  H   H40       1.0  0.0732765758227387  0.5819514203459163  0.26088591734669825  1.0000
  H   H41       1.0  0.5819533191500526  0.26088863056247646  0.07327649496288302  1.0000
  H   H42       1.0  0.9180456885991861  0.2608892652099827  0.42672335674702583  1.0000
  H   H43       1.0  0.9180459223132473  0.23911113176988857  0.07327746387591112  1.0000
  H   H44       1.0  0.581953126642823  0.23911362489354102  0.4267247908569376  1.0000
  H   H45       1.0  0.2608884289183138  0.4267229882647143  0.918048322195965  1.0000
  H   H46       1.0  0.2608883846874832  0.0732765615334472  0.5819542795833217  1.0000
  H   H47       1.0  0.23911087693626598  0.4267239068292525  0.5819539851377018  1.0000
  H   H48       1.0  0.2391103673879371  0.0732769067166075  0.9180455112102666  1.0000
  Pd  Pd1       1.0  0.750000407076442  0.2500015158181057  0.5000011892921992  1.0000
  Pd  Pd2       1.0  0.7500004550939252  0.24999919912716007  1.0864741142000006e-06  1.0000
  Pd  Pd3       1.0  0.5000010519387956  0.7499994944315204  0.2500004222060782  1.0000
  Pd  Pd4       1.0  1.8335019550000048e-07  0.7499999674641414  0.24999924758580522  1.0000
  Pd  Pd5       1.0  0.24999958359990868  0.5000003051462585  0.7499987793513088  1.0000
  Pd  Pd6       1.0  0.2500006679059439  4.877946509000003e-07  0.7500001302632315  1.0000
  Pd  Pd7       1.0  0.249998454184329  0.7500005836592647  0.49999988630228415  1.0000
  Pd  Pd8       1.0  0.25000033601710203  0.749999489511424  3.947591694e-07  1.0000
  Pd  Pd9       1.0  0.500000865683873  0.250000159954446  0.750000653389485  1.0000
  Pd  Pd10      1.0  0.9999999004554567  0.2500002981950971  0.7500012167365571  1.0000
  Pd  Pd11      1.0  0.7500011114749084  0.49999996051003137  0.24999923988481504  1.0000
  Pd  Pd12      1.0  0.7499988046264079  0.9999997778639835  0.24999911151498116  1.0000
  C   C1        1.0  0.71041259165046  0.3901834710731009  0.6069237084696015  1.0000
  C   C2        1.0  0.7895890746760514  0.10981671072208599  0.6069235268966013  1.0000
  C   C3        1.0  0.7895897430596718  0.39018367251988906  0.8930784324389622  1.0000
  C   C4        1.0  0.7104107341667147  0.10981461689491569  0.893078072445235  1.0000
  C   C5        1.0  0.6069218749271884  0.7104086554805632  0.3901834501769558  1.0000
  C   C6        1.0  0.6069220954522764  0.7895889085287706  0.10981641262515755  1.0000
  C   C7        1.0  0.8930765232003922  0.7895889085729522  0.3901844603310281  1.0000
  C   C8        1.0  0.8930768935401758  0.7104105590819074  0.10981482474826272  1.0000
  C   C9        1.0  0.3901848719905913  0.6069232436246638  0.7104094157277816  1.0000
  C   C10       1.0  0.1098153154425958  0.606922362796027  0.7895889607812097  1.0000
  C   C11       1.0  0.39018163410752044  0.893076307501829  0.7895883304955265  1.0000
  C   C12       1.0  0.109814955527149  0.8930758850092461  0.7104105987484532  1.0000
  C   C13       1.0  0.8901851469535912  0.21041040675383726  0.3930770467933443  1.0000
  C   C14       1.0  0.6098160375706811  0.28959058454226744  0.3930774186472591  1.0000
  C   C15       1.0  0.8901847496915424  0.2895888203993096  0.10692493359048433  1.0000
  C   C16       1.0  0.6098170126666885  0.2104116181921825  0.10692331868771993  1.0000
  C   C17       1.0  0.21041016048733502  0.1069241104750773  0.6098154093685937  1.0000
  C   C18       1.0  0.28958913919443324  0.10692308378718002  0.890183223875056  1.0000
  C   C19       1.0  0.28958916390585193  0.39307824551711695  0.6098145524061425  1.0000
  C   C20       1.0  0.21041020560532786  0.3930785911921149  0.8901840223078497  1.0000
  C   C21       1.0  0.1069225567546113  0.8901847754444744  0.28958851701180083  1.0000
  C   C22       1.0  0.10692395535013331  0.6098161797157501  0.21041021910040317  1.0000
  C   C23       1.0  0.39307902455718147  0.8901850395279637  0.21041081229304848  1.0000
  C   C24       1.0  0.3930763226398638  0.6098159854631646  0.28958856863732063  1.0000
  C   C25       1.0  0.2895893259726847  0.6098149607680198  0.393076755853052  1.0000
  C   C26       1.0  0.21041039785768587  0.8901835549377283  0.3930769374250716  1.0000
  C   C27       1.0  0.2104109520177886  0.609815981866049  0.10692142061176213  1.0000
  C   C28       1.0  0.2895905721840393  0.8901850374916194  0.10692300314963896  1.0000
  C   C29       1.0  0.39307759760690425  0.2895897763616801  0.6098157915994807  1.0000
  C   C30       1.0  0.39307615453819983  0.2104107458600737  0.8901840516945474  1.0000
  C   C31       1.0  0.10692294933460289  0.2104107458153308  0.6098166152617852  1.0000
  C   C32       1.0  0.1069219677211706  0.2895909291233281  0.8901862508456306  1.0000
  C   C33       1.0  0.6098164343556791  0.3930782445759036  0.2895892147819482  1.0000
  C   C34       1.0  0.8901835458216424  0.39307606904856834  0.21041211480972785  1.0000
  C   C35       1.0  0.6098166158815771  0.10692334688582858  0.21041091128071807  1.0000
  C   C36       1.0  0.8901832944619484  0.10692376937841169  0.2895886430277913  1.0000
  C   C37       1.0  0.10981677066897079  0.7895886363594113  0.606923417529899  1.0000
  C   C38       1.0  0.3901840462323277  0.7104102923873227  0.6069212118604954  1.0000
  C   C39       1.0  0.10981655665921151  0.7104108339872325  0.8930761420043897  1.0000
  C   C40       1.0  0.3901830711382743  0.7895886474664592  0.893076534362905  1.0000
  C   C41       1.0  0.7895887007743738  0.8930755439126016  0.39018444368006305  1.0000
  C   C42       1.0  0.710409110792824  0.8930777931441439  0.10981540663063785  1.0000
  C   C43       1.0  0.7104103086271963  0.6069220201421075  0.3901853006437933  1.0000
  C   C44       1.0  0.7895892669259795  0.6069235082834936  0.10981583074386243  1.0000
  C   C45       1.0  0.8930769157790125  0.1098148789426219  0.7104113360375524  1.0000
  C   C46       1.0  0.893077350999931  0.39018347467020226  0.7895902452227407  1.0000
  C   C47       1.0  0.6069235043337216  0.10981705994475281  0.7895890407621027  1.0000
  C   C48       1.0  0.606924983708936  0.390184280194326  0.7104112844146828  1.0000
  C   C49       1.0  0.6266507460885079  0.2718742941061265  0.6266504610878274  1.0000
  C   C50       1.0  0.6679995196619615  0.43111985331324115  0.6679983038073163  1.0000
  C   C51       1.0  0.8733515759589354  0.2281234807036867  0.6266519193331919  1.0000
  C   C52       1.0  0.8320022842663092  0.0688798351739592  0.6679969161903332  1.0000
  C   C53       1.0  0.8733499786597392  0.2718755215066722  0.873350228748237  1.0000
  C   C54       1.0  0.8320002925002187  0.431119245270267  0.8320002485407303  1.0000
  C   C55       1.0  0.6266522879347676  0.22812517489237646  0.8733523536273469  1.0000
  C   C56       1.0  0.6679976020299562  0.06888014872165367  0.8320027702642963  1.0000
  C   C57       1.0  0.626648788246449  0.6266483479671477  0.2718754158800608  1.0000
  C   C58       1.0  0.6679978061692252  0.667998577001292  0.43112034575978714  1.0000
  C   C59       1.0  0.6266503393823302  0.8733485674435214  0.2281251026471268  1.0000
  C   C60       1.0  0.6679978542143629  0.8320019278052725  0.06887965467299043  1.0000
  C   C61       1.0  0.8733493433293518  0.8733508213920161  0.2718771546476121  1.0000
  C   C62       1.0  0.8320006841882659  0.832000288665263  0.43112068893556466  1.0000
  C   C63       1.0  0.8733507499785632  0.6266505174057998  0.22812330852504206  1.0000
  C   C64       1.0  0.8320022650928112  0.6679968494645151  0.06887968105847621  1.0000
  C   C65       1.0  0.27187491297213745  0.6266514713192349  0.6266510152821356  1.0000
  C   C66       1.0  0.43111981299470153  0.6679990298680564  0.6679982656959994  1.0000
  C   C67       1.0  0.22812340331699943  0.6266505284135349  0.8733473993320973  1.0000
  C   C68       1.0  0.0688808701476802  0.6679983084109936  0.832000840060559  1.0000
  C   C69       1.0  0.271874957490418  0.8733476923927481  0.8733495207044161  1.0000
  C   C70       1.0  0.43111739750077044  0.8320016663488872  0.8320007953152669  1.0000
  C   C71       1.0  0.22812411455858947  0.8733505518947735  0.6266499817091005  1.0000
  C   C72       1.0  0.06887991896369529  0.8320024619342659  0.6679961821426021  1.0000
  C   C73       1.0  0.7718771917915888  0.12664971376389633  0.37335109388636323  1.0000
  C   C74       1.0  0.9311201648392  0.16799780372260634  0.3320018370928396  1.0000
  C   C75       1.0  0.7281263933759731  0.3733487943376658  0.37334822649813765  1.0000
  C   C76       1.0  0.5688814933528333  0.33200184706097247  0.33200097608486356  1.0000
  C   C77       1.0  0.7718766804845174  0.3733497372421579  0.12664939735988415  1.0000
  C   C78       1.0  0.9311198249292048  0.33200195724707265  0.16799901299075515  1.0000
  C   C79       1.0  0.7281263488609112  0.12665135072166572  0.12665155488986815  1.0000
  C   C80       1.0  0.5688814637591973  0.1679998218551759  0.16799905773516605  1.0000
  C   C81       1.0  0.12664951793188814  0.1266500555405017  0.7281233096739614  1.0000
  C   C82       1.0  0.16799695453087085  0.16799875445202866  0.5688797753828541  1.0000
  C   C83       1.0  0.37335157824207943  0.126649253126061  0.77187597294666  1.0000
  C   C84       1.0  0.33200161831798874  0.16799833785336196  0.9311195871052151  1.0000
  C   C85       1.0  0.37334762792804804  0.37335008387799457  0.7281238258929366  1.0000
  C   C86       1.0  0.3320035001772652  0.33200413374470367  0.5688795072945754  1.0000
  C   C87       1.0  0.12665177891616247  0.373346080616578  0.771875321981341  1.0000
  C   C88       1.0  0.16799720744287328  0.33200280492435036  0.9311220058060601  1.0000
  C   C89       1.0  0.12664973039055377  0.7718767849543937  0.3733485449905417  1.0000
  C   C90       1.0  0.16800085589584773  0.9311185966618678  0.3319992692315951  1.0000
  C   C91       1.0  0.1266519389615581  0.7281241328781078  0.12664962430386595  1.0000
  C   C92       1.0  0.1680004025759771  0.5688810203872093  0.16799899323885378  1.0000
  C   C93       1.0  0.37334901841711593  0.7718769245856265  0.12665177832852956  1.0000
  C   C94       1.0  0.33200125923391977  0.9311201169405122  0.16799952787187783  1.0000
  C   C95       1.0  0.373349337717613  0.7281247490082592  0.3733493919616181  1.0000
  C   C96       1.0  0.3320017866879966  0.5688791897999935  0.3320015492435148  1.0000
  N   N1        1.0  0.690251061088169  0.31326832228627655  0.587711341008131  1.0000
  N   N2        1.0  0.8097536183133798  0.1867305998533482  0.5877113534398788  1.0000
  N   N3        1.0  0.8097514191536065  0.3132703565095411  0.9122906513316241  1.0000
  N   N4        1.0  0.6902515464445428  0.1867304151004703  0.9122910057498647  1.0000
  N   N5        1.0  0.5877095309613126  0.6902457882391246  0.31326953241293864  1.0000
  N   N6        1.0  0.5877104978989393  0.809749978305959  0.18673089836706686  1.0000
  N   N7        1.0  0.9122886938779047  0.8097504047107336  0.3132700135336678  1.0000
  N   N8        1.0  0.9122892756552831  0.6902514716816981  0.18673053738419307  1.0000
  N   N9        1.0  0.31326974450008993  0.5877110139411101  0.6902477350562607  1.0000
  N   N10       1.0  0.1867298680124918  0.5877094152483622  0.8097493817972252  1.0000
  N   N11       1.0  0.3132677382354388  0.9122892939920889  0.8097522829361383  1.0000
  N   N12       1.0  0.18673064886596083  0.912289298296251  0.690250962324548  1.0000
  N   N13       1.0  0.8132694534440361  0.190250743299039  0.41229043366598744  1.0000
  N   N14       1.0  0.6867317743647873  0.3097515076497358  0.41228857269624813  1.0000
  N   N15       1.0  0.8132695860186275  0.30974924065901627  0.08771015085449113  1.0000
  N   N16       1.0  0.6867315217821073  0.19024810446164508  0.08771111541270223  1.0000
  N   N17       1.0  0.19024868362294714  0.08771130957786262  0.6867298560126331  1.0000
  N   N18       1.0  0.3097512636845892  0.0877094849089488  0.8132687401191705  1.0000
  N   N19       1.0  0.3097489802459492  0.412290583704511  0.6867296928631037  1.0000
  N   N20       1.0  0.190248519101047  0.41228837387760103  0.8132701415006808  1.0000
  N   N21       1.0  0.08770915329168359  0.813270275057448  0.30974938526385654  1.0000
  N   N22       1.0  0.0877121947455279  0.6867307164537023  0.19024747373971007  1.0000
  N   N23       1.0  0.4122895171953899  0.813269852578223  0.19025162928275566  1.0000
  N   N24       1.0  0.4122891602567762  0.6867305247939439  0.3097520738405138  1.0000
  N   N25       1.0  0.3097490227186341  0.6867307208287058  0.41228912331304474  1.0000
  N   N26       1.0  0.1902476880366919  0.8132690545326041  0.4122891108832648  1.0000
  N   N27       1.0  0.1902511097397195  0.6867299091473811  0.08770981299348792  1.0000
  N   N28       1.0  0.30975159372207633  0.8132698505570558  0.08771068111939682  1.0000
  N   N29       1.0  0.41228871902951886  0.30975203233214893  0.6867297093615365  1.0000
  N   N30       1.0  0.4122895859090292  0.1902478422647675  0.8132695659529293  1.0000
  N   N31       1.0  0.0877095561126779  0.19024986095082846  0.6867310620583498  1.0000
  N   N32       1.0  0.08771019687845441  0.30974879397811605  0.8132699269374729  1.0000
  N   N33       1.0  0.6867309505721906  0.41229047425825627  0.3097490616375822  1.0000
  N   N34       1.0  0.8132696045194194  0.4122884053193943  0.190247414891708  1.0000
  N   N35       1.0  0.6867317343003594  0.0877109716694946  0.19025001520071785  1.0000
  N   N36       1.0  0.813269434943713  0.08771035609380823  0.30975255835586785  1.0000
  N   N37       1.0  0.1867312416331757  0.8097513561771877  0.5877112532022866  1.0000
  N   N38       1.0  0.31326953198090024  0.6902505918229593  0.5877100578140714  1.0000
  N   N39       1.0  0.1867304977885382  0.6902479686384024  0.9122890909214549  1.0000
  N   N40       1.0  0.31326856202770154  0.809748493565415  0.9122899601778446  1.0000
  N   N41       1.0  0.8097507889090493  0.9122907898983356  0.31327060831080905  1.0000
  N   N42       1.0  0.690249431394605  0.9122883356606052  0.18673111292978462  1.0000
  N   N43       1.0  0.690250492285827  0.5877102932262444  0.3132695489156917  1.0000
  N   N44       1.0  0.8097521759783674  0.5877106692373885  0.18673093409291405  1.0000
  N   N45       1.0  0.912289707972306  0.18673060187743568  0.6902535241446304  1.0000
  N   N46       1.0  0.9122909454194923  0.3132683266572015  0.8097517680414514  1.0000
  N   N47       1.0  0.5877117891583411  0.1867310243561136  0.8097531139436784  1.0000
  N   N48       1.0  0.5877121460934022  0.3132697408647259  0.6902490017549499  1.0000
  O   O1        1.0  0.6060747651330444  0.20182495293410338  0.6060737412900752  1.0000
  O   O2        1.0  0.8939256767349731  0.2981733934029478  0.6060723248495992  1.0000
  O   O3        1.0  0.893925480884974  0.2018261811458046  0.8939262019651084  1.0000
  O   O4        1.0  0.6060719418902778  0.2981739437258711  0.8939259706952288  1.0000
  O   O5        1.0  0.6060727047532241  0.6060728799584465  0.20182546643228966  1.0000
  O   O6        1.0  0.6060725409616482  0.8939259082004865  0.29817256064186654  1.0000
  O   O7        1.0  0.8939277140881785  0.8939261540990984  0.20182912512742496  1.0000
  O   O8        1.0  0.8939262611334229  0.6060720894050248  0.2981726069536138  1.0000
  O   O9        1.0  0.2018255924941101  0.606074264078387  0.606074898795349  1.0000
  O   O10       1.0  0.29817092891764213  0.6060738396501931  0.8939271437004239  1.0000
  O   O11       1.0  0.2018250331589684  0.893928088535425  0.8939236455298316  1.0000
  O   O12       1.0  0.29817461122359395  0.8939240517574448  0.6060722290007663  1.0000
  O   O13       1.0  0.7018260838527368  0.1060731575370326  0.3939245676889486  1.0000
  O   O14       1.0  0.7981744913133897  0.393924779037185  0.3939261767975567  1.0000
  O   O15       1.0  0.7018254872579844  0.39392703728641004  0.10607515443357583  1.0000
  O   O16       1.0  0.7981750506401325  0.10607401093606228  0.10607253989218893  1.0000
  O   O17       1.0  0.1060729809905467  0.10607288901530859  0.7981713391944399  1.0000
  O   O18       1.0  0.3939263202985686  0.10607313491328799  0.7018254585910102  1.0000
  O   O19       1.0  0.3939292128652029  0.3939261631512565  0.7981713302605729  1.0000
  O   O20       1.0  0.10607443394494713  0.39392878752693855  0.7018290799134805  1.0000
  O   O21       1.0  0.106074407068725  0.7018274835272321  0.39392691692989273  1.0000
  O   O22       1.0  0.1060733803787954  0.7981734732436435  0.10607548489873864  1.0000
  O   O23       1.0  0.39392447428190985  0.7018269332077836  0.10607327108012753  1.0000
  O   O24       1.0  0.3939259299449915  0.7981740901797068  0.39392611176005954  1.0000
  F   F1        1.0  0.6867037758255705  0.5096982744487235  0.6867033156977416  1.0000
  F   F2        1.0  0.8132916227373598  0.9903047525164153  0.6867088126718246  1.0000
  F   F3        1.0  0.8132940538408208  0.5096964431251507  0.8132947771587029  1.0000
  F   F4        1.0  0.6867052975682242  0.990302549439825  0.8132975437924305  1.0000
  F   F5        1.0  0.6867027976988426  0.6867017284888278  0.5096987544619722  1.0000
  F   F6        1.0  0.6867001629755549  0.8132978728600689  0.9903008824766747  1.0000
  F   F7        1.0  0.8132940358833736  0.8132942325914101  0.5096977968125815  1.0000
  F   F8        1.0  0.8132946970529106  0.6867063517733669  0.9903039592056121  1.0000
  F   F9        1.0  0.5096988214859266  0.6867020668864043  0.6867014534036857  1.0000
  F   F10       1.0  0.9903029521619262  0.6867035682749714  0.8132927024621426  1.0000
  F   F11       1.0  0.5096927316129083  0.8132880890196789  0.8132910606735565  1.0000
  F   F12       1.0  0.9903033010672287  0.813296069890633  0.686705784794903  1.0000
  F   F13       1.0  0.0096967827355314  0.1867072521292457  0.313294679530408  1.0000
  F   F14       1.0  0.49030187358958  0.3132981987704824  0.3132971771041754  1.0000
  F   F15       1.0  0.009695909102674701  0.3132930297520673  0.18670715058356546  1.0000
  F   F16       1.0  0.4903030732911019  0.18670300755578498  0.18670329091782636  1.0000
  F   F17       1.0  0.18670604792433923  0.18670603306959066  0.490304501324964  1.0000
  F   F18       1.0  0.3132938081021592  0.18670728297843198  0.009695914213139603  1.0000
  F   F19       1.0  0.31329606356286627  0.31329792589884425  0.4903010985866916  1.0000
  F   F20       1.0  0.18669988530556478  0.3132981927995147  0.009700172745056104  1.0000
  F   F21       1.0  0.18670540470949962  0.009696124419015496  0.3132928741911344  1.0000
  F   F22       1.0  0.1867072525063875  0.49030259998571796  0.18670263080520755  1.0000
  F   F23       1.0  0.3132990651391196  0.0096995500317405  0.18670292053651855  1.0000
  F   F24       1.0  0.31329753052507675  0.49030076866510086  0.3132971486248125  1.0000
