data_image0
_chemical_formula_structural       Hf6H46C126N6O32F30
_chemical_formula_sum              "Hf6 H46 C126 N6 O32 F30"
_cell_length_a       17.447397952660037
_cell_length_b       17.4663223711479
_cell_length_c       17.72961879793248
_cell_angle_alpha    92.47718782702914
_cell_angle_beta     92.42613485585183
_cell_angle_gamma    92.95697536115925

_space_group_name_H-M_alt    "P 1"
_space_group_IT_number       1

loop_
  _space_group_symop_operation_xyz
  'x, y, z'

loop_
  _atom_site_type_symbol
  _atom_site_label
  _atom_site_symmetry_multiplicity
  _atom_site_fract_x
  _atom_site_fract_y
  _atom_site_fract_z
  _atom_site_occupancy
  Hf  Hf1       1.0  0.8116903030322646  0.9516896111138992  0.8506943668664777  1.0000
  Hf  Hf2       1.0  0.7562548026264508  0.8453678719450721  0.003966869439267409  1.0000
  Hf  Hf3       1.0  0.9969754898360248  0.9814542289232406  0.9322747929966583  1.0000
  Hf  Hf4       1.0  0.9156962575038464  0.7941915724573294  0.9019227009097295  1.0000
  Hf  Hf5       1.0  0.8385150972915271  0.0316524193984549  0.03549440440428952  1.0000
  Hf  Hf6       1.0  0.9424226997698426  0.87454327045991  0.08546150929198153  1.0000
  H   H1        1.0  0.1378779354029476  0.2591508052642126  0.5896720349824207  1.0000
  H   H2        1.0  0.14346906644438207  0.23189173766698448  0.44173568480113806  1.0000
  H   H3        1.0  0.6304768703488505  0.5703306426759625  0.34388365190291387  1.0000
  H   H4        1.0  0.6180454124608445  0.5935033331669005  0.4910346761370479  1.0000
  H   H5        1.0  0.21262456480933167  0.5394408178183597  0.22053322827221689  1.0000
  H   H6        1.0  0.1980653915496191  0.3885896293656899  0.23596471148397313  1.0000
  H   H7        1.0  0.5347102742246719  0.28695802838979023  0.7124274231568182  1.0000
  H   H8        1.0  0.5660353137636492  0.4374588125656587  0.7104531426427416  1.0000
  H   H9        1.0  0.5040103669631578  0.16653336134356067  0.32677615366664986  1.0000
  H   H10       1.0  0.3529205047748434  0.1799760650231335  0.302979171356057  1.0000
  H   H11       1.0  0.24946586991871553  0.6631229668893824  0.6092038288646294  1.0000
  H   H12       1.0  0.40004260916536794  0.6492469160380311  0.6343841875361136  1.0000
  H   H13       1.0  0.760608202764537  0.7956090193215603  0.8507077235580243  1.0000
  H   H14       1.0  0.888211890464973  0.09303325423654481  0.9040108187273789  1.0000
  H   H15       1.0  0.056537235156419306  0.8484335821813574  0.9788655927902922  1.0000
  H   H16       1.0  0.8091027230777996  0.9206970982842577  0.14488003228267843  1.0000
  H   H17       1.0  0.04393421837476551  0.7610276379115108  0.705494500169394  1.0000
  H   H18       1.0  0.2900269781028584  0.9126884501496165  0.6924863135269848  1.0000
  H   H19       1.0  0.4613360563123265  0.6968413056227192  0.7371190908539306  1.0000
  H   H20       1.0  0.6008739374151589  0.9494478489737901  0.7301054605144801  1.0000
  H   H21       1.0  0.1457085357367021  0.884600523623334  0.21161858165041994  1.0000
  H   H22       1.0  0.299882815162654  0.1279419027256381  0.19494798108669903  1.0000
  H   H23       1.0  0.7048203088419952  0.07156193647218602  0.22057226813389263  1.0000
  H   H24       1.0  0.4627911128399305  0.9158753037483507  0.24412660216376744  1.0000
  H   H25       1.0  0.31189930378780417  0.03473217707315259  0.45067629633391  1.0000
  H   H26       1.0  0.4429508123992107  0.7948051840647211  0.48586568040872896  1.0000
  H   H27       1.0  0.6231950172214198  0.0814024145481724  0.8047588586640729  1.0000
  H   H28       1.0  0.5811847065116496  0.3115979765205736  0.967535506470405  1.0000
  H   H29       1.0  0.5846085067210397  0.5609368027312698  0.7502153413557338  1.0000
  H   H30       1.0  0.6897860129729381  0.570138551390322  0.0149706901522322  1.0000
  H   H31       1.0  0.060738830434907215  0.17306288456008903  0.15640794229920377  1.0000
  H   H32       1.0  0.174450593586954  0.3452339863151295  0.9708216631155797  1.0000
  H   H33       1.0  0.06023208040596732  0.5983634178257874  0.9388612853986447  1.0000
  H   H34       1.0  0.24113238395761977  0.6573538995011177  0.159535392833746  1.0000
  H   H35       1.0  0.3179496595628351  0.3036784186734209  0.03890928744317532  1.0000
  H   H36       1.0  0.432673793191256  0.5142859226487032  0.8983039575264515  1.0000
  H   H37       1.0  0.9092164934586933  0.7320331528760847  0.2742001919761492  1.0000
  H   H38       1.0  0.6929220627668542  0.5380745758792004  0.2269965978203602  1.0000
  H   H39       1.0  0.6555947016532855  0.666305343201465  0.5770750408189401  1.0000
  H   H40       1.0  0.9267408634024932  0.6932562297866057  0.6694708167950554  1.0000
  H   H41       1.0  0.10647799117879941  0.18555086929646344  0.3358929491541503  1.0000
  H   H42       1.0  0.8289599648575745  0.12355644162582992  0.2840144850073045  1.0000
  H   H43       1.0  0.0463777739587385  0.16735562625709122  0.7946441175803687  1.0000
  H   H44       1.0  0.8820343669514159  0.19473456136369546  0.5634001670201771  1.0000
  H   H45       1.0  0.9702845266725078  0.3694041595294877  0.37423195487050986  1.0000
  H   H46       1.0  0.7928224245432888  0.4562515601048461  0.5646841166231911  1.0000
  C   C1        1.0  0.016383917074804803  0.27893653681473307  0.5656106461222947  1.0000
  C   C2        1.0  0.09214402561092781  0.2688542874921894  0.5483815036564297  1.0000
  C   C3        1.0  0.09454533842453121  0.2540551719310145  0.46959283361262283  1.0000
  C   C4        1.0  0.0207314618946057  0.2568456091529114  0.4375990995609841  1.0000
  C   C5        1.0  0.7506550547081262  0.5478061476269501  0.3725362656025269  1.0000
  C   C6        1.0  0.6741787581308712  0.5586908242104728  0.386641817884069  1.0000
  C   C7        1.0  0.6683709568105128  0.5721302548539099  0.46510148681344543  1.0000
  C   C8        1.0  0.7411050200952545  0.5696443448359008  0.49993547750261774  1.0000
  C   C9        1.0  0.24176267209619337  0.5097028009094446  0.10397687837012633  1.0000
  C   C10       1.0  0.228709666235126  0.4961666656161158  0.17924214965128735  1.0000
  C   C11       1.0  0.21991357023374286  0.41622029092789603  0.18713184079424391  1.0000
  C   C12       1.0  0.2270549384345983  0.3801048425862136  0.11657548614552131  1.0000
  C   C13       1.0  0.5064726894467668  0.31035207340702436  0.8302589224187502  1.0000
  C   C14       1.0  0.5222164423307021  0.32858057355645803  0.7567848330815182  1.0000
  C   C15       1.0  0.5386920346790944  0.4085117600642719  0.7559593938042327  1.0000
  C   C16       1.0  0.5315169873111074  0.4402058009601293  0.8283992780111903  1.0000
  C   C17       1.0  0.47343354206243055  0.043894200057813706  0.3342808192265495  1.0000
  C   C18       1.0  0.45993999664671037  0.1211557798520602  0.3319574765565961  1.0000
  C   C19       1.0  0.3796662704455542  0.127930058955215  0.3189669300823895  1.0000
  C   C20       1.0  0.3439876572811968  0.0552759903317579  0.3152663198678951  1.0000
  C   C21       1.0  0.28061961462662305  0.7856458789580003  0.6013229694819274  1.0000
  C   C22       1.0  0.2937399303684529  0.7083649330168386  0.6043437872504925  1.0000
  C   C23       1.0  0.3738287273266181  0.7014429207278993  0.6180532683587929  1.0000
  C   C24       1.0  0.409914236190609  0.7740163115855696  0.6215854532504396  1.0000
  C   C25       1.0  0.9357561672334427  0.05528514531019371  0.7762795897791648  1.0000
  C   C26       1.0  0.6449648231450453  0.8741500220788084  0.8517825795528753  1.0000
  C   C27       1.0  0.8401720750254213  0.798252207531178  0.7373840148889672  1.0000
  C   C28       1.0  0.7299596798680312  0.10280060145907301  0.9164537716998  1.0000
  C   C29       1.0  0.8210720281387224  0.7629669718909254  0.15359638973754391  1.0000
  C   C30       1.0  0.10626448353159652  0.9568890549835704  0.08736535886480822  1.0000
  C   C31       1.0  0.7602755996206055  0.678828091910134  0.9283205220352005  1.0000
  C   C32       1.0  0.6798033830289754  0.9671463916744261  0.10633273617391843  1.0000
  C   C33       1.0  0.9984703610141066  0.1435157050605511  0.014067374534789687  1.0000
  C   C34       1.0  0.068779691180346  0.8621797505237723  0.8232065959886441  1.0000
  C   C35       1.0  0.019042435712897494  0.7196297515504638  0.0242312574454644  1.0000
  C   C36       1.0  0.9181204310263168  0.0339550520427494  0.19723637090118734  1.0000
  C   C37       1.0  0.096420524445179  0.7965020508090248  0.7002904755455293  1.0000
  C   C38       1.0  0.11641182347459285  0.8545597962992065  0.7561998804731049  1.0000
  C   C39       1.0  0.1843323129440577  0.8992607504398508  0.7471620582693392  1.0000
  C   C40       1.0  0.23403448713452243  0.8822718196611208  0.6907912725926338  1.0000
  C   C41       1.0  0.21681885263144807  0.8208491980713362  0.6376145983450173  1.0000
  C   C42       1.0  0.1442679574358721  0.7822698430061976  0.6419231601138764  1.0000
  C   C43       1.0  0.49288901530135115  0.7516748846153194  0.7326742011954936  1.0000
  C   C44       1.0  0.47663620463109885  0.7984502914753973  0.6714156479019168  1.0000
  C   C45       1.0  0.517158012328082  0.8703321329138376  0.674351654959537  1.0000
  C   C46       1.0  0.5690601107370057  0.8944337262124834  0.7326144440907074  1.0000
  C   C47       1.0  0.5826948711347769  0.8485637451944258  0.7944806098122117  1.0000
  C   C48       1.0  0.5427695877444876  0.7769154042928221  0.7924292674647619  1.0000
  C   C49       1.0  0.1803939091996156  0.9376809867128131  0.20745671032816662  1.0000
  C   C50       1.0  0.16963731663337  0.9816291452911798  0.14360677503223235  1.0000
  C   C51       1.0  0.2143268682152808  0.0503455797514292  0.1421971658033883  1.0000
  C   C52       1.0  0.2652052857742007  0.0752771783126178  0.20124724633253524  1.0000
  C   C53       1.0  0.2774649588519438  0.030895892127517793  0.26509004113670204  1.0000
  C   C54       1.0  0.2332459034686778  0.9613479270002615  0.26498584768631883  1.0000
  C   C55       1.0  0.6534572041701311  0.035074383417239105  0.22820878856622073  1.0000
  C   C56       1.0  0.6325071960618159  0.9760676193909604  0.17346079654953436  1.0000
  C   C57       1.0  0.5658963088979547  0.930475634510323  0.18537757448778797  1.0000
  C   C58       1.0  0.5181771992449882  0.9471598503160691  0.24352988521773977  1.0000
  C   C59       1.0  0.5362270801144078  0.009277316086787803  0.2957640387215292  1.0000
  C   C60       1.0  0.6078204484371241  0.0489114364773044  0.2884093562433137  1.0000
  C   C61       1.0  0.3409409040434852  0.9815543051003317  0.45703194000619624  1.0000
  C   C62       1.0  0.3881323845711933  0.9557515263763819  0.40018201013595  1.0000
  C   C63       1.0  0.42422064040653845  0.8875974020536931  0.4141521101250874  1.0000
  C   C64       1.0  0.4137677656567432  0.8478918093677168  0.4794305280569163  1.0000
  C   C65       1.0  0.3664038904481117  0.873625505495923  0.5361678797862481  1.0000
  C   C66       1.0  0.3304486809960494  0.9418750706584545  0.5223025290230013  1.0000
  C   C67       1.0  0.6117201206852769  0.13037026439074853  0.8418698675289137  1.0000
  C   C68       1.0  0.6608328405217208  0.14765843982004867  0.90608387804798  1.0000
  C   C69       1.0  0.6431332681793336  0.21056907901138544  0.9530221033955686  1.0000
  C   C70       1.0  0.5859728482270087  0.25902194237445303  0.9331788395869156  1.0000
  C   C71       1.0  0.5414608602208446  0.2457802182980799  0.8651951968434803  1.0000
  C   C72       1.0  0.5528729398992667  0.1768667152213155  0.8239299205293096  1.0000
  C   C73       1.0  0.6074612305477274  0.5606240010593666  0.8082998818341525  1.0000
  C   C74       1.0  0.5766266916457212  0.5080291727521881  0.8588803438582391  1.0000
  C   C75       1.0  0.6085285062330713  0.5154038780964285  0.9334869612419683  1.0000
  C   C76       1.0  0.669031462849567  0.5669069506418936  0.9561292104885624  1.0000
  C   C77       1.0  0.7024085230992796  0.6146200020720444  0.90390531618084  1.0000
  C   C78       1.0  0.6689292060779621  0.610485520122225  0.8308989893257677  1.0000
  C   C79       1.0  0.08566757364888392  0.21019845320803657  0.11534575480674653  1.0000
  C   C80       1.0  0.05698788754058629  0.20579248249532614  0.04041920384703701  1.0000
  C   C81       1.0  0.09399473757090962  0.2528062385975502  0.9897765176658742  1.0000
  C   C82       1.0  0.1534315680619116  0.3055038050650652  0.011833105276046807  1.0000
  C   C83       1.0  0.18201032439333184  0.3115808304199845  0.08778117189645233  1.0000
  C   C84       1.0  0.14805185177037572  0.2595101237683366  0.13661051910644775  1.0000
  C   C85       1.0  0.10046680590121329  0.6118843503671555  0.9868263195420471  1.0000
  C   C86       1.0  0.08884485457645042  0.6756285246457524  0.03525574713427911  1.0000
  C   C87       1.0  0.1442372944689438  0.6919042614233605  0.09460855700521623  1.0000
  C   C88       1.0  0.2024819450869586  0.6435242588578092  0.11043410608456843  1.0000
  C   C89       1.0  0.20778627152024146  0.5740384638805339  0.06809219494930122  1.0000
  C   C90       1.0  0.1588915430368516  0.5638049037533077  0.002369924797399385  1.0000
  C   C91       1.0  0.3409938470712817  0.3514380964169916  0.0079673181111914  1.0000
  C   C92       1.0  0.31012927188054823  0.4239557672749541  0.015055889621912415  1.0000
  C   C93       1.0  0.3472258530108476  0.4805225502664855  0.9732987011750256  1.0000
  C   C94       1.0  0.4091684876567641  0.46651076380936024  0.9289907244055657  1.0000
  C   C95       1.0  0.44031967904432173  0.3941336531045962  0.9223523428231035  1.0000
  C   C96       1.0  0.40267010688751265  0.3373801574380835  0.9634724112987674  1.0000
  C   C97       1.0  0.8623917652989165  0.6887910324504248  0.26326553116537355  1.0000
  C   C98       1.0  0.8126466061331499  0.694345197840832  0.19963966992115456  1.0000
  C   C99       1.0  0.7543297857133879  0.636076555375233  0.18728827363736403  1.0000
  C   C100      1.0  0.7413983150155801  0.579440007639022  0.23808670525940565  1.0000
  C   C101      1.0  0.785177388670121  0.5796982646433977  0.3066859989501439  1.0000
  C   C102      1.0  0.849223141059511  0.6329907109107965  0.3145699633297597  1.0000
  C   C103      1.0  0.7158137826168627  0.6701460684118035  0.5959035352085708  1.0000
  C   C104      1.0  0.7678816526652098  0.6183500574855003  0.5660819862447044  1.0000
  C   C105      1.0  0.8444275743928457  0.6312657032578456  0.5944702108999637  1.0000
  C   C106      1.0  0.867345850277971  0.6892024845203295  0.6476651968906993  1.0000
  C   C107      1.0  0.8157114157274847  0.7420849779634011  0.6737563715067908  1.0000
  C   C108      1.0  0.7397543926878783  0.7307117653076676  0.6453830179350464  1.0000
  C   C109      1.0  0.0450285830737585  0.1726851679111974  0.3271421024174971  1.0000
  C   C110      1.0  0.9917922648793793  0.21283706931050972  0.36961222607872213  1.0000
  C   C111      1.0  0.9138581252796385  0.19177232052125967  0.3509174310564234  1.0000
  C   C112      1.0  0.8902166943215803  0.1351029082941722  0.2965324049592938  1.0000
  C   C113      1.0  0.9438433053386532  0.09201881792829171  0.25920936240660813  1.0000
  C   C114      1.0  0.021152979846839108  0.11275660345746273  0.2769604756700091  1.0000
  C   C115      1.0  0.009064001870562801  0.17489161124523633  0.745017203806789  1.0000
  C   C116      1.0  0.9464453637069212  0.12194318123713548  0.7281371936923764  1.0000
  C   C117      1.0  0.8988541298691572  0.1351646402778997  0.6645651281524323  1.0000
  C   C118      1.0  0.9164032642042415  0.1926431621628382  0.6158520569660199  1.0000
  C   C119      1.0  0.9824099371409005  0.24211120628936572  0.629434939442703  1.0000
  C   C120      1.0  0.024465795057118107  0.23403587188622058  0.6979916360474194  1.0000
  C   C121      1.0  0.9311974970090234  0.38679380264525787  0.41722888281089615  1.0000
  C   C122      1.0  0.9252500219514134  0.3458765520348948  0.4832463320739181  1.0000
  C   C123      1.0  0.8739365449040619  0.3749473049330662  0.5348775915120499  1.0000
  C   C124      1.0  0.8322401231269722  0.4389490263936295  0.5219553121776103  1.0000
  C   C125      1.0  0.8387690865763489  0.48038000037078643  0.4562566800340378  1.0000
  C   C126      1.0  0.8893673287386649  0.45071958908062026  0.40419531236619843  1.0000
  N   N1        1.0  0.972983344442177  0.2827868419756854  0.49560796875757535  1.0000
  N   N2        1.0  0.7908224379314107  0.54314803279091  0.4436793829151996  1.0000
  N   N3        1.0  0.25114826866126805  0.437355169934321  0.06668797808312381  1.0000
  N   N4        1.0  0.5012659226873383  0.38113042643093553  0.8728655149546116  1.0000
  N   N5        1.0  0.4003738057826994  0.0020776668667821  0.3356013033180788  1.0000
  N   N6        1.0  0.35377587857504283  0.827192628795551  0.6006301866713174  1.0000
  O   O1        1.0  0.9913997214543074  0.040765308251018005  0.8212032162853617  1.0000
  O   O2        1.0  0.6494623454998703  0.8476395529550089  0.91711419195903  1.0000
  O   O3        1.0  0.8141348350061366  0.8643678416661587  0.7431449443480035  1.0000
  O   O4        1.0  0.7466811819751413  0.05926665683352183  0.8607239268132079  1.0000
  O   O5        1.0  0.7689550831645703  0.1114121785644855  0.9797090503229174  1.0000
  O   O6        1.0  0.8867195058528807  0.7693420789589637  0.7853650316738553  1.0000
  O   O7        1.0  0.6940779943502097  0.9222613229969243  0.8252774915772038  1.0000
  O   O8        1.0  0.8702541649530033  0.017717631332111204  0.7709012710632521  1.0000
  O   O9        1.0  0.7843843388104687  0.949977139899808  0.9626849558368991  1.0000
  O   O10       1.0  0.9155014697307565  0.9079949293366526  0.8771425677926674  1.0000
  O   O11       1.0  0.7938884520557892  0.829002972886606  0.884482377078058  1.0000
  O   O12       1.0  0.8857926614300452  0.04095106234876061  0.9210010857129519  1.0000
  O   O13       1.0  0.7654942242111318  0.7783308795102002  0.1093702321593497  1.0000
  O   O14       1.0  0.1011783477375303  0.9839500655165808  0.02226074649709631  1.0000
  O   O15       1.0  0.8269598431051932  0.6837234052323639  0.9031150771202122  1.0000
  O   O16       1.0  0.7246172549734381  0.023857506761451902  0.09191791424293431  1.0000
  O   O17       1.0  0.9334378977159971  0.13697366947145176  0.04267376258976441  1.0000
  O   O18       1.0  0.024100901048065292  0.8049320707715992  0.836805703180332  1.0000
  O   O19       1.0  0.9993644665951251  0.7621327841064414  0.07919985447856702  1.0000
  O   O20       1.0  0.9462019122698564  0.968883759661111  0.19197768968292195  1.0000
  O   O21       1.0  0.9832746458984546  0.7117982653413933  0.958967561685981  1.0000
  O   O22       1.0  0.8664377112912903  0.059486899566557776  0.15230197195359102  1.0000
  O   O23       1.0  0.7307672166095713  0.7273329743572887  0.9731777736892087  1.0000
  O   O24       1.0  0.07665102349155013  0.9254184038609171  0.8629685075369127  1.0000
  O   O25       1.0  0.024584743188008  0.09873989133243552  0.9631389330467928  1.0000
  O   O26       1.0  0.6741623281367808  0.9022385340673721  0.06907502901052003  1.0000
  O   O27       1.0  0.8846681286319794  0.8037540589675773  0.16447454327792604  1.0000
  O   O28       1.0  0.0582480827241554  0.907325403501794  0.11340744393040582  1.0000
  O   O29       1.0  0.9397775177571647  0.9764054500967488  0.03172644530203431  1.0000
  O   O30       1.0  0.8704164612953846  0.8194078516501124  0.0040856371398021165  1.0000
  O   O31       1.0  0.0038928784993430996  0.8637913192267846  0.9761408926972027  1.0000
  O   O32       1.0  0.8261573482904936  0.9195843990982061  0.09350732376255885  1.0000
  F   F1        1.0  0.12372379783302988  0.72351501259719  0.5903963496144159  1.0000
  F   F2        1.0  0.20789834348208563  0.9568532300012863  0.7978009602250966  1.0000
  F   F3        1.0  0.5518160050016547  0.7292484411638541  0.8502444479690895  1.0000
  F   F4        1.0  0.50493147000153  0.9193433924472598  0.6176827712349395  1.0000
  F   F5        1.0  0.24238471466502184  0.9144864338445304  0.3240997801503483  1.0000
  F   F6        1.0  0.20923240068044888  0.09541075959414512  0.08195542665055913  1.0000
  F   F7        1.0  0.6294875218555731  0.1083338932792444  0.3388632835250364  1.0000
  F   F8        1.0  0.5418006574241828  0.871942437121824  0.13600531644770092  1.0000
  F   F9        1.0  0.2837099781835661  0.9727915699531449  0.5736511469442435  1.0000
  F   F10       1.0  0.47124276918170693  0.8568332519373741  0.36286261151348503  1.0000
  F   F11       1.0  0.5085898671421418  0.15931500747923616  0.7593731380316627  1.0000
  F   F12       1.0  0.6856551266049423  0.2302480365052162  0.017407347106491496  1.0000
  F   F13       1.0  0.695971288822342  0.6609986135535948  0.7802548258265534  1.0000
  F   F14       1.0  0.5817423355280766  0.46747489257958114  0.986525907670462  1.0000
  F   F15       1.0  0.17545779905540831  0.2594537584922421  0.21040043710829084  1.0000
  F   F16       1.0  0.0681114094886084  0.2501410378862873  0.9160404042140018  1.0000
  F   F17       1.0  0.16372434440360453  0.5000688364935115  0.9558357173125178  1.0000
  F   F18       1.0  0.1420758751803746  0.7563666729692927  0.13993592044156605  1.0000
  F   F19       1.0  0.4257838352638927  0.26414312508219245  0.961499306843088  1.0000
  F   F20       1.0  0.323961867357511  0.5538019890128538  0.9753768853269876  1.0000
  F   F21       1.0  0.8957482684546819  0.635744313152003  0.37831192319888635  1.0000
  F   F22       1.0  0.7064428708971917  0.634294096153731  0.12472508686516905  1.0000
  F   F23       1.0  0.6856925878174565  0.7786369498849554  0.668738998315341  1.0000
  F   F24       1.0  0.9001267735932288  0.5862106537628192  0.5686505256789476  1.0000
  F   F25       1.0  0.0763364893659002  0.07456977166253861  0.2411981209264057  1.0000
  F   F26       1.0  0.8576693951896815  0.22596434782158073  0.3893002593873192  1.0000
  F   F27       1.0  0.08729557303658451  0.28269900915837104  0.7150859213176519  1.0000
  F   F28       1.0  0.8362718989708214  0.08812227371546301  0.6449031256034277  1.0000
  F   F29       1.0  0.8994700772646738  0.4834753631107632  0.3368014166765151  1.0000
  F   F30       1.0  0.8627287597051351  0.34053896577301407  0.6012563205844901  1.0000
