data_image0
_chemical_formula_structural       Zn4H56C56N24O8
_chemical_formula_sum              "Zn4 H56 C56 N24 O8"
_cell_length_a       7.141600759061018
_cell_length_b       8.278322942090043
_cell_length_c       26.42815209807614
_cell_angle_alpha    89.99972896106193
_cell_angle_beta     89.99995646847347
_cell_angle_gamma    89.99953367726448

_space_group_name_H-M_alt    "P 1"
_space_group_IT_number       1

loop_
  _space_group_symop_operation_xyz
  'x, y, z'

loop_
  _atom_site_type_symbol
  _atom_site_label
  _atom_site_symmetry_multiplicity
  _atom_site_fract_x
  _atom_site_fract_y
  _atom_site_fract_z
  _atom_site_occupancy
  Zn  Zn1       1.0  0.2778520702617441  0.04251243384621971  0.0027489040912414007  1.0000
  Zn  Zn2       1.0  0.22214806749522606  0.9574876549028629  0.5027476247602394  1.0000
  Zn  Zn3       1.0  0.7221471560899814  0.5425141892508095  0.497248823264087  1.0000
  Zn  Zn4       1.0  0.7778556099852733  0.45748695391854716  0.9972497870817918  1.0000
  H   H1        1.0  0.2903643343826161  0.9846118782917942  0.1016699910900556  1.0000
  H   H2        1.0  0.20963971085810576  0.015380675720415104  0.6016693525276153  1.0000
  H   H3        1.0  0.7096363719311398  0.4846179887783892  0.3983274599654862  1.0000
  H   H4        1.0  0.7903582859603373  0.5153822333209561  0.8983287140052454  1.0000
  H   H5        1.0  0.6638350078104408  0.992584676209404  0.2234995035772229  1.0000
  H   H6        1.0  0.8361769713397179  0.007425435614301501  0.7234973387092082  1.0000
  H   H7        1.0  0.3361572227300654  0.49258320157019153  0.2765066385190664  1.0000
  H   H8        1.0  0.16383510217416128  0.5074091263993453  0.7765041450754425  1.0000
  H   H9        1.0  0.2064433354751145  0.7003265267055383  0.07634948364914611  1.0000
  H   H10       1.0  0.29355798435263836  0.299663993988311  0.5763502997378112  1.0000
  H   H11       1.0  0.7935628212720757  0.20033407419958146  0.4236487667717626  1.0000
  H   H12       1.0  0.7064359622831659  0.7996669732332934  0.9236477241992133  1.0000
  H   H13       1.0  0.96669748106639  0.6527417241062636  0.0764130136712708  1.0000
  H   H14       1.0  0.5333023320167669  0.34725490675991477  0.5764157017299851  1.0000
  H   H15       1.0  0.033310519497817395  0.15274742656231408  0.4235830369102516  1.0000
  H   H16       1.0  0.46668977076767953  0.8472547585401884  0.9235849004254392  1.0000
  H   H17       1.0  0.9026782132171147  0.9588898071794107  0.063352099490956  1.0000
  H   H18       1.0  0.5973286398290014  0.04110581307163841  0.5633529581744838  1.0000
  H   H19       1.0  0.09732273285587917  0.4588972733456557  0.4366461464227243  1.0000
  H   H20       1.0  0.40267751866969786  0.5411071303069335  0.9366473405691167  1.0000
  H   H21       1.0  0.9801176419490499  0.8951382410420123  0.1237055832662861  1.0000
  H   H22       1.0  0.5198834311984084  0.1048516353039233  0.6237059841959081  1.0000
  H   H23       1.0  0.019885298620771194  0.3951471694694178  0.3762920002835557  1.0000
  H   H24       1.0  0.48011093112049247  0.6048545223127422  0.8762938417656088  1.0000
  H   H25       1.0  0.024501863078206988  0.1842633292356624  0.1268384682764676  1.0000
  H   H26       1.0  0.4755021075625832  0.8157252205356542  0.6268358361491194  1.0000
  H   H27       1.0  0.9754876404333358  0.6842736155435533  0.3731594275467458  1.0000
  H   H28       1.0  0.5245070920698893  0.31572819485127473  0.873161407233475  1.0000
  H   H29       1.0  0.40073642480638216  0.2882749578432425  0.0802126960404124  1.0000
  H   H30       1.0  0.0992592825597072  0.711720336386705  0.5802136964247637  1.0000
  H   H31       1.0  0.5992577101444209  0.7882860048136777  0.4197880728317358  1.0000
  H   H32       1.0  0.9007410848428704  0.2117175168934864  0.9197889983594578  1.0000
  H   H33       1.0  0.25285157978749595  0.41229549101095136  0.117372235188256  1.0000
  H   H34       1.0  0.24714681790162263  0.5876992416799214  0.6173722553687143  1.0000
  H   H35       1.0  0.7471371983720019  0.9123072567489601  0.38262797164429685  1.0000
  H   H36       1.0  0.7528561058064227  0.0876956185388167  0.8826302446874975  1.0000
  H   H37       1.0  0.6437920066346052  0.0931713715631659  0.1337084224577154  1.0000
  H   H38       1.0  0.8562160380434918  0.9068280173967835  0.6337083272750875  1.0000
  H   H39       1.0  0.3561983459386226  0.593189785806608  0.3662952840182143  1.0000
  H   H40       1.0  0.14379231246036278  0.40681205708389007  0.8662940785938246  1.0000
  H   H41       1.0  0.03987422740774348  0.36132874787502794  0.2040665880551629  1.0000
  H   H42       1.0  0.4601351151812663  0.6386719225167852  0.7040695184900727  1.0000
  H   H43       1.0  0.9601178264119027  0.8613233987999964  0.2959306671885429  1.0000
  H   H44       1.0  0.5398659330887057  0.1386795786725514  0.7959332844597072  1.0000
  H   H45       1.0  0.9579360101618517  0.3111129496358275  0.29350714443719983  1.0000
  H   H46       1.0  0.5420715606891803  0.6888948962750733  0.7935093248868554  1.0000
  H   H47       1.0  0.042060712575150185  0.811086483837471  0.2064924554898013  1.0000
  H   H48       1.0  0.45793041965087866  0.1889081101048049  0.7064934036862738  1.0000
  H   H49       1.0  0.1665749185777158  0.14248457011340318  0.34877265540237096  1.0000
  H   H50       1.0  0.3334283939474715  0.8575259933327145  0.8487730160439426  1.0000
  H   H51       1.0  0.8334149745430182  0.642456940530103  0.1512290861605763  1.0000
  H   H52       1.0  0.6665818162754248  0.35753010396399537  0.6512290844342061  1.0000
  H   H53       1.0  0.45509768725245436  0.020195743646006303  0.3153946748367246  1.0000
  H   H54       1.0  0.04491272544576219  0.9798201560870936  0.8153918833132822  1.0000
  H   H55       1.0  0.5448919454779642  0.5201781155055726  0.1846106532690968  1.0000
  H   H56       1.0  0.9551075468813933  0.4798048006179841  0.6846096576952121  1.0000
  C   C1        1.0  0.06668889611896839  0.735079763933804  0.005830730969414301  1.0000
  C   C2        1.0  0.43331263275988624  0.2649166542951207  0.5058323281587178  1.0000
  C   C3        1.0  0.9333169366893728  0.23508525279502376  0.4941663328357393  1.0000
  C   C4        1.0  0.5666872387605364  0.764918352901816  0.9941668823872547  1.0000
  C   C5        1.0  0.06899219183195267  0.7406142669062632  0.0622557840818345  1.0000
  C   C6        1.0  0.4310133705012262  0.2593800906632496  0.5622577682994958  1.0000
  C   C7        1.0  0.9310163898810371  0.24061941681728172  0.43774127152755676  1.0000
  C   C8        1.0  0.5689851523884356  0.7593802096604705  0.9377418288309513  1.0000
  C   C9        1.0  0.022959683858672992  0.9078172152973848  0.0838417369752023  1.0000
  C   C10       1.0  0.4770458144848674  0.0921756081171168  0.5838416895539567  1.0000
  C   C11       1.0  0.9770431385194198  0.4078271962401986  0.4161562061826487  1.0000
  C   C12       1.0  0.5229584677278679  0.5921763803379747  0.9161573984106327  1.0000
  C   C13       1.0  0.12449348236463459  0.18763104589034194  0.09507460074365072  1.0000
  C   C14       1.0  0.37550638169308564  0.8123616078122213  0.5950727497789856  1.0000
  C   C15       1.0  0.8755001904871232  0.6876427706282799  0.40492329009102696  1.0000
  C   C16       1.0  0.6244972483179722  0.3123621836793691  0.9049252553556784  1.0000
  C   C17       1.0  0.027374891845397497  0.26798133730282103  0.0502371365580672  1.0000
  C   C18       1.0  0.4726251051681841  0.7320071620582596  0.550236142499763  1.0000
  C   C19       1.0  0.9726166318284724  0.7679820306228109  0.4497625272205639  1.0000
  C   C20       1.0  0.5273708723440078  0.23201620627676794  0.9497623600062469  1.0000
  C   C21       1.0  0.2983951850814108  0.28663224110447066  0.1113806071223351  1.0000
  C   C22       1.0  0.2016060308651646  0.7133625821231604  0.61138007167078  1.0000
  C   C23       1.0  0.7015947644391147  0.7866442398954946  0.38861978579774353  1.0000
  C   C24       1.0  0.7983999222218613  0.2133585448463151  0.8886214855287378  1.0000
  C   C25       1.0  0.381537864460931  0.21692423479598943  0.1584259376537673  1.0000
  C   C26       1.0  0.11846881296791169  0.7830747093832287  0.6584253151107902  1.0000
  C   C27       1.0  0.618447133840412  0.7169387432524489  0.3415753152604637  1.0000
  C   C28       1.0  0.8815406910790526  0.28306233648243756  0.8415765172460752  1.0000
  C   C29       1.0  0.5424825957040438  0.12501612722523706  0.1626158403463194  1.0000
  C   C30       1.0  0.9575295639859005  0.8749876567844127  0.6626153942675188  1.0000
  C   C31       1.0  0.45751026054839616  0.6250294265729012  0.33738668382285647  1.0000
  C   C32       1.0  0.0424832840493679  0.3749728531481439  0.8373870587507497  1.0000
  C   C33       1.0  0.2956620852435633  0.21715851415112303  0.2077544041637509  1.0000
  C   C34       1.0  0.2043486466560296  0.7828433084997928  0.707754900448883  1.0000
  C   C35       1.0  0.7043257114064473  0.7171647020387583  0.2922460916406706  1.0000
  C   C36       1.0  0.7956594592609676  0.2828395390929971  0.7922473106288023  1.0000
  C   C37       1.0  0.13163967880888086  0.2872383587232862  0.22755976351896123  1.0000
  C   C38       1.0  0.3683695941111082  0.7127655805772619  0.7275622236633907  1.0000
  C   C39       1.0  0.8683460643962134  0.7872352246742905  0.2724387365932515  1.0000
  C   C40       1.0  0.631636364502924  0.21276931578245953  0.7724404695675914  1.0000
  C   C41       1.0  0.08645238682512259  0.2590935476755902  0.2781433480876387  1.0000
  C   C42       1.0  0.41355253535601105  0.7409156671111674  0.7781465145478847  1.0000
  C   C43       1.0  0.9135406200202777  0.7590775692044148  0.22185595048025417  1.0000
  C   C44       1.0  0.5864531608424243  0.24092290370967362  0.7218561369946102  1.0000
  C   C45       1.0  0.2026060180625677  0.16323894422018273  0.309267793516085  1.0000
  C   C46       1.0  0.29739881183330397  0.8367722161985682  0.8092681918851171  1.0000
  C   C47       1.0  0.7973808810570232  0.6632218454542882  0.1907331605365812  1.0000
  C   C48       1.0  0.7026129920948918  0.3367754738450871  0.6907339393266412  1.0000
  C   C49       1.0  0.3669476742032386  0.0940868118172915  0.290896131866532  1.0000
  C   C50       1.0  0.13305861041485656  0.9059234182549006  0.7908953245799212  1.0000
  C   C51       1.0  0.6330384692311027  0.5940766429777469  0.2091075732753467  1.0000
  C   C52       1.0  0.8669539492047988  0.4059191906941919  0.7091074610038532  1.0000
  C   C53       1.0  0.4121769758427405  0.12179554524784923  0.24015438294496513  1.0000
  C   C54       1.0  0.08783926094523047  0.878214243602031  0.7401532470851889  1.0000
  C   C55       1.0  0.5878131100034238  0.6217945947766454  0.2598485243886017  1.0000
  C   C56       1.0  0.9121763574906935  0.378202888078306  0.7598488227677933  1.0000
  N   N1        1.0  0.12645781344639315  0.8548658108612914  0.9756589432362474  1.0000
  N   N2        1.0  0.37354652318021647  0.1451319633614361  0.47566043041133804  1.0000
  N   N3        1.0  0.8735482208463026  0.3548691604258352  0.52433748541646  1.0000
  N   N4        1.0  0.626461548334184  0.6451330892502228  0.0243390369018854  1.0000
  N   N5        1.0  0.09969380192683268  0.8067140065606181  0.9272708083271651  1.0000
  N   N6        1.0  0.4003078776526506  0.19328812281541732  0.4272718406143455  1.0000
  N   N7        1.0  0.90030427975838  0.3067116028690152  0.5727260700203232  1.0000
  N   N8        1.0  0.5997025454773063  0.6932874996420539  0.0727279337725122  1.0000
  N   N9        1.0  0.024925521086970492  0.6625908721214698  0.9280579618105022  1.0000
  N   N10       1.0  0.47507615615852916  0.3374112453583464  0.4280591445446759  1.0000
  N   N11       1.0  0.9750725037953314  0.16258674110090965  0.5719387515779246  1.0000
  N   N12       1.0  0.524930123041642  0.8374111653500125  0.0719404164181583  1.0000
  N   N13       1.0  0.0020862567244250996  0.6142498755174658  0.9768665580277514  1.0000
  N   N14       1.0  0.49791667606371687  0.3857502964067906  0.4768684215131174  1.0000
  N   N15       1.0  0.9979192199779091  0.11424994368706358  0.5231298485579927  1.0000
  N   N16       1.0  0.5020863520496732  0.8857511162786412  0.023131446251092303  1.0000
  N   N17       1.0  0.1799902291766458  0.0239468442849144  0.07987425915764129  1.0000
  N   N18       1.0  0.32001248042720914  0.9760484550491667  0.5798733117254784  1.0000
  N   N19       1.0  0.8200077699513598  0.5239563176841602  0.4201231173004771  1.0000
  N   N20       1.0  0.6799896237951298  0.4760471989590087  0.9201248294002086  1.0000
  N   N21       1.0  0.5616311514932375  0.06919399709962448  0.21149481752267013  1.0000
  N   N22       1.0  0.9383808632528668  0.9308150881521442  0.7114935357242161  1.0000
  N   N23       1.0  0.43835802440096927  0.5691985073440549  0.288509681239205  1.0000
  N   N24       1.0  0.06163426488591029  0.43079967909968536  0.7885088346224904  1.0000
  O   O1        1.0  0.07984515230959488  0.232527446782413  0.005666126203031799  1.0000
  O   O2        1.0  0.42014517506154186  0.7674762218613226  0.5056620627427151  1.0000
  O   O3        1.0  0.9201439013126345  0.7325375032026784  0.49433131976434197  1.0000
  O   O4        1.0  0.5798476714044938  0.2674709319195756  0.9943348737124963  1.0000
  O   O5        1.0  0.8985068327556007  0.36896842687497877  0.060462058392523894  1.0000
  O   O6        1.0  0.6014846261470267  0.6310296530957091  0.5604571236868523  1.0000
  O   O7        1.0  0.10149775204227038  0.8689682164846602  0.4395363206861234  1.0000
  O   O8        1.0  0.3985108924020507  0.13103372750747866  0.9395385012798768  1.0000
