data_image0
_chemical_formula_structural       Ag2H46C44N4O8
_chemical_formula_sum              "Ag2 H46 C44 N4 O8"
_cell_length_a       6.6275640368428315
_cell_length_b       11.474001535984648
_cell_length_c       14.246139272212826
_cell_angle_alpha    120.28715998791488
_cell_angle_beta     89.99368315630093
_cell_angle_gamma    90.007655274954

_space_group_name_H-M_alt    "P 1"
_space_group_IT_number       1

loop_
  _space_group_symop_operation_xyz
  'x, y, z'

loop_
  _atom_site_type_symbol
  _atom_site_label
  _atom_site_symmetry_multiplicity
  _atom_site_fract_x
  _atom_site_fract_y
  _atom_site_fract_z
  _atom_site_occupancy
  Ag  Ag1       1.0  0.2501819701619752  0.9589489438080322  0.052574919937448825  1.0000
  Ag  Ag2       1.0  0.7499732785348884  0.04105090432189939  0.9474185432796103  1.0000
  H   H1        1.0  0.2506193754363721  0.7429654925432914  0.7276662851792963  1.0000
  H   H2        1.0  0.7503778096453003  0.2570323749562959  0.272342571993768  1.0000
  H   H3        1.0  0.24980551737023401  0.24667961552508194  0.2005259618771191  1.0000
  H   H4        1.0  0.7499016034445775  0.7533114880935943  0.7994536887831813  1.0000
  H   H5        1.0  0.2499175341239024  0.4675717178923263  0.21119720589202728  1.0000
  H   H6        1.0  0.7499766830659809  0.5324168534201948  0.7887892173264676  1.0000
  H   H7        1.0  0.2500742732193899  0.2511462651221096  0.8587238547471614  1.0000
  H   H8        1.0  0.749969320090983  0.7488475737862432  0.14126805652820454  1.0000
  H   H9        1.0  0.2500236070376758  0.0407430266268136  0.86307613824372  1.0000
  H   H10       1.0  0.7499551066494091  0.9592576030016103  0.13691411012380422  1.0000
  H   H11       1.0  0.2500483337019546  0.6461650509596667  0.8702258971586617  1.0000
  H   H12       1.0  0.7499816807617422  0.3538440451526698  0.1297738540773352  1.0000
  H   H13       1.0  0.2501007425962102  0.42672996935750274  0.8613505703567411  1.0000
  H   H14       1.0  0.7499790639047249  0.5732686468095239  0.1386389189348307  1.0000
  H   H15       1.0  0.24986564437493536  0.6432580771353217  0.21301091273625167  1.0000
  H   H16       1.0  0.7500330984754982  0.35672997276223134  0.7869830433027687  1.0000
  H   H17       1.0  0.2497974065264401  0.8543380685799563  0.20665816289835703  1.0000
  H   H18       1.0  0.7500636155970068  0.14566225703611482  0.7933432162912766  1.0000
  H   H19       1.0  0.11621399869884641  0.35206416567146454  0.4227883784068496  1.0000
  H   H20       1.0  0.616164128399788  0.6479289075889341  0.5772201513242906  1.0000
  H   H21       1.0  0.8837798032986867  0.6479816809819214  0.5772483664909701  1.0000
  H   H22       1.0  0.38381760091420597  0.35204463010973097  0.42276202707904537  1.0000
  H   H23       1.0  0.061370618437870006  0.44263706213595816  0.7145902404498585  1.0000
  H   H24       1.0  0.561397099268156  0.5573432573044883  0.28541287985547104  1.0000
  H   H25       1.0  0.9387197519765137  0.5574201794403424  0.28543954075520633  1.0000
  H   H26       1.0  0.43868119269374967  0.4425978937412723  0.7145711815644873  1.0000
  H   H27       1.0  0.9245130244274834  0.4071893027862004  0.5954388336943524  1.0000
  H   H28       1.0  0.42451097473644245  0.5927983777729154  0.40457316491143314  1.0000
  H   H29       1.0  0.07555772966177442  0.5928697430250269  0.40460427299752416  1.0000
  H   H30       1.0  0.5755507206840349  0.4071443911353826  0.5954051811545398  1.0000
  H   H31       1.0  0.9249606183707685  0.20636586804045723  0.6198594090622648  1.0000
  H   H32       1.0  0.4250335731476583  0.7936071418388198  0.380121758192594  1.0000
  H   H33       1.0  0.07506185186655762  0.7937155901206838  0.3802117920174766  1.0000
  H   H34       1.0  0.5749828585681129  0.20630833768780127  0.6198133139961186  1.0000
  H   H35       1.0  0.05708232448656501  0.03729603739223109  0.4373362292494534  1.0000
  H   H36       1.0  0.5571151275945637  0.9626982957985748  0.5626590322318066  1.0000
  H   H37       1.0  0.9428345234479706  0.9627430235282688  0.5627183444406398  1.0000
  H   H38       1.0  0.4427881440687004  0.03727162971772201  0.43729649691156414  1.0000
  H   H39       1.0  0.9253242965492062  0.16666789065823204  0.4299365397344417  1.0000
  H   H40       1.0  0.42531115665472896  0.8333206183397696  0.5700560541680559  1.0000
  H   H41       1.0  0.07457897301193131  0.8333945383192402  0.570129623576527  1.0000
  H   H42       1.0  0.5745966404627438  0.1666331741165266  0.4298934140777249  1.0000
  H   H43       1.0  0.24992266475008051  0.08940184004926272  0.609506632044706  1.0000
  H   H44       1.0  0.7500319058748203  0.9105944109655013  0.39049251133046425  1.0000
  H   H45       1.0  0.24998427641943982  0.2556623768821922  0.7218187714690032  1.0000
  H   H46       1.0  0.750112124880836  0.7443272628462411  0.27818491067114337  1.0000
  C   C1        1.0  0.24988982057271167  0.2533010931450406  0.1268986319740719  1.0000
  C   C2        1.0  0.7499395157549316  0.7466771716111823  0.8730804079473273  1.0000
  C   C3        1.0  0.24993302039261073  0.37691776685608164  0.13147262854783293  1.0000
  C   C4        1.0  0.7499581787925605  0.6230720339443395  0.8685177697385881  1.0000
  C   C5        1.0  0.24999251823369661  0.3819925528888462  0.03501156211468269  1.0000
  C   C6        1.0  0.7499892121453868  0.6180023808963925  0.9649821673522325  1.0000
  C   C7        1.0  0.25004214480323833  0.2577287975163358  0.9375195677442392  1.0000
  C   C8        1.0  0.7499637288496428  0.7422724872813262  0.06246530507458915  1.0000
  C   C9        1.0  0.2499986350336769  0.13718465191337262  0.9387933444246597  1.0000
  C   C10       1.0  0.7499483931886174  0.8628136503040906  0.0611911120894675  1.0000
  C   C11       1.0  0.2500094200534164  0.6415573991237126  0.9447249984240147  1.0000
  C   C12       1.0  0.7499949432874687  0.3584395077742358  0.055268769072910125  1.0000
  C   C13       1.0  0.2500566890122968  0.5179734237821734  0.9407464581773936  1.0000
  C   C14       1.0  0.7499959577283022  0.48202756219113496  0.05924954306880889  1.0000
  C   C15       1.0  0.2500050830908123  0.5122951177414239  0.03669693887415096  1.0000
  C   C16       1.0  0.7500007883721693  0.4876990739896813  0.963300726905679  1.0000
  C   C17       1.0  0.24991138639793323  0.6369742877436624  0.1342037683286037  1.0000
  C   C18       1.0  0.7500220602705953  0.3630188491260641  0.8657928004594098  1.0000
  C   C19       1.0  0.24988399618133883  0.7566824071385554  0.1319575647165649  1.0000
  C   C20       1.0  0.7500192743895938  0.24332173185298706  0.868041732843821  1.0000
  C   C21       1.0  0.24992443356938313  0.10212789897012443  0.2920532108449763  1.0000
  C   C22       1.0  0.7498536037079263  0.8978901756170289  0.707948514789031  1.0000
  C   C23       1.0  0.24996397327883807  0.17658053260048942  0.4176030551781764  1.0000
  C   C24       1.0  0.7499438234628074  0.8234248803685277  0.5824009365846906  1.0000
  C   C25       1.0  0.2500081018745064  0.32815427538042036  0.4551137683411  1.0000
  C   C26       1.0  0.7499826803920371  0.6718445244460087  0.5448947630435655  1.0000
  C   C27       1.0  0.25004154417962354  0.4150673717600811  0.5799106253187957  1.0000
  C   C28       1.0  0.7500337335444839  0.5849304666581504  0.4200982452779698  1.0000
  C   C29       1.0  0.2501086135129285  0.5623634783161365  0.610397840132201  1.0000
  C   C30       1.0  0.7500753023955083  0.4376442697744309  0.38961193992491155  1.0000
  C   C31       1.0  0.0604382970765727  0.381326572178736  0.6252238103977206  1.0000
  C   C32       1.0  0.5604554297482452  0.6186636828956367  0.3747816867253988  1.0000
  C   C33       1.0  0.9396294387392813  0.618716030573431  0.3748082007956199  1.0000
  C   C34       1.0  0.43959419590562016  0.3812931579327383  0.6252012434996458  1.0000
  C   C35       1.0  0.061299462593396505  0.2300675213423987  0.5881685527415783  1.0000
  C   C36       1.0  0.5613535840421662  0.7699181806580172  0.41182605337932887  1.0000
  C   C37       1.0  0.9387184802641216  0.769977716011603  0.41187428620235533  1.0000
  C   C38       1.0  0.4386598309657899  0.23004391245059008  0.588146203785648  1.0000
  C   C39       1.0  0.060360960558107  0.14538393730857993  0.4633148549107061  1.0000
  C   C40       1.0  0.5603758473642914  0.8546043752073443  0.5366751615628829  1.0000
  C   C41       1.0  0.939561924138374  0.8546511695435299  0.5367234781531351  1.0000
  C   C42       1.0  0.4395425117419052  0.14536827546059783  0.4632926328751665  1.0000
  C   C43       1.0  0.24996806987499545  0.19643795532252992  0.6323204856346649  1.0000
  C   C44       1.0  0.7500619425910885  0.8035565911827831  0.3676829337488527  1.0000
  N   N1        1.0  0.24990539325451522  0.1346459104141573  0.0323153255449284  1.0000
  N   N2        1.0  0.7499269617003889  0.8653391472039684  0.9676620504799799  1.0000
  N   N3        1.0  0.24992182738272825  0.7601405544136599  0.038806979315417434  1.0000
  N   N4        1.0  0.7500010583068574  0.23986459352181563  0.961192696761337  1.0000
  O   O1        1.0  0.4201176115923531  0.0756501603675233  0.2437344272933046  1.0000
  O   O2        1.0  0.9200283244740035  0.9244328350974843  0.7562784821561905  1.0000
  O   O3        1.0  0.5796226828525661  0.9241153291009568  0.7562124589199826  1.0000
  O   O4        1.0  0.07971201318511588  0.075841988283976  0.2437817569381622  1.0000
  O   O5        1.0  0.24989232067818531  0.6018433485381892  0.5450337577777518  1.0000
  O   O6        1.0  0.7499883142932261  0.39815198978359234  0.4549826101800321  1.0000
  O   O7        1.0  0.25048061333566096  0.6521465290111765  0.7191781068701034  1.0000
  O   O8        1.0  0.7502796813176504  0.34785295886313616  0.2808412019758677  1.0000
