data_image0
_chemical_formula_structural       Zn2H24C24S8N4O8
_chemical_formula_sum              "Zn2 H24 C24 S8 N4 O8"
_cell_length_a       7.4522466899067705
_cell_length_b       8.561840622258048
_cell_length_c       13.521786171955165
_cell_angle_alpha    98.61548994879278
_cell_angle_beta     90.02629418947004
_cell_angle_gamma    115.83164663092471

_space_group_name_H-M_alt    "P 1"
_space_group_IT_number       1

loop_
  _space_group_symop_operation_xyz
  'x, y, z'

loop_
  _atom_site_type_symbol
  _atom_site_label
  _atom_site_symmetry_multiplicity
  _atom_site_fract_x
  _atom_site_fract_y
  _atom_site_fract_z
  _atom_site_occupancy
  Zn  Zn1       1.0  0.19987412844831454  0.0003602187759880994  0.7501847724064277  1.0000
  Zn  Zn2       1.0  0.8001262034955658  0.9996335589523042  0.24981741840583993  1.0000
  H   H1        1.0  0.8828699163049405  0.6749633236763727  0.6246821770583821  1.0000
  H   H2        1.0  0.20757288725651082  0.32551704564075834  0.8754234721656431  1.0000
  H   H3        1.0  0.11713708662992423  0.325033063890345  0.3753150815931079  1.0000
  H   H4        1.0  0.7924186416750628  0.6744832807497191  0.12457341321825062  1.0000
  H   H5        1.0  0.5357115730712819  0.4451058939778463  0.6218986787660796  1.0000
  H   H6        1.0  0.0900526703247024  0.5549780886257736  0.8778682303755402  1.0000
  H   H7        1.0  0.46429802357155847  0.5549010381348367  0.37810326338158257  1.0000
  H   H8        1.0  0.9099355349828785  0.4450182789105241  0.12212606599257472  1.0000
  H   H9        1.0  0.48124844307287873  0.21899100091722798  0.6021229235757488  1.0000
  H   H10       1.0  0.2617609370132924  0.7812160645709695  0.8978600902321149  1.0000
  H   H11       1.0  0.5187544893301278  0.7810106588394773  0.3978770459593051  1.0000
  H   H12       1.0  0.7382319047400612  0.21878688702359023  0.1021355615454596  1.0000
  H   H13       1.0  0.5389871103796151  0.33559420880384744  0.4999208787654865  1.0000
  H   H14       1.0  0.20279956845974567  0.6643764355326454  0.9999363594059716  1.0000
  H   H15       1.0  0.46101977687384715  0.6644153540293372  0.5000813089176432  1.0000
  H   H16       1.0  0.7971859063703163  0.33562520121048317  5.990817481209951e-05  1.0000
  H   H17       1.0  0.7793672384543767  0.0559211192753253  0.4940079096421641  1.0000
  H   H18       1.0  0.7234405465101117  0.944780716606104  0.006011642921983187  1.0000
  H   H19       1.0  0.22063439546383984  0.944077939308528  0.5059984725953797  1.0000
  H   H20       1.0  0.27657046369219523  0.0552183142296059  0.9939880818775677  1.0000
  H   H21       1.0  0.6362915410921488  0.0337441511012457  0.5983123738336644  1.0000
  H   H22       1.0  0.6021314185678647  0.9668527738280658  0.9017883035345378  1.0000
  H   H23       1.0  0.3637027850709201  0.9662456703061367  0.4016879674337162  1.0000
  H   H24       1.0  0.3978714757551386  0.0331541697673572  0.0982165970966946  1.0000
  C   C1        1.0  0.8979547385444562  0.9958858006014353  0.6177138439571053  1.0000
  C   C2        1.0  0.9018292387763436  0.005076092214700599  0.8823065556098442  1.0000
  C   C3        1.0  0.10204956728986761  0.004113238283984798  0.3822880994551383  1.0000
  C   C4        1.0  0.09816706071566733  0.9949176738648619  0.1176934149898017  1.0000
  C   C5        1.0  0.8832037024865828  0.2877702256570913  0.604862533232648  1.0000
  C   C6        1.0  0.5951534736652421  0.7130276147574507  0.8951631318547014  1.0000
  C   C7        1.0  0.11680663636111895  0.7122301413619995  0.3951417536599137  1.0000
  C   C8        1.0  0.40484540929404034  0.28697667870291343  0.1048378228867151  1.0000
  C   C9        1.0  0.11593988224446858  0.6060232367089569  0.6453379246094855  1.0000
  C   C10       1.0  0.5098947193599699  0.39488225172247143  0.8548784998466914  1.0000
  C   C11       1.0  0.8840610917733045  0.3939718295901499  0.3546584703034483  1.0000
  C   C12       1.0  0.4900921329977024  0.6051167710154318  0.1451212213530439  1.0000
  C   C13       1.0  0.790864955317943  0.39535124395440846  0.6028709701885688  1.0000
  C   C14       1.0  0.3951526705752713  0.6051606235443359  0.8971327611838191  1.0000
  C   C15       1.0  0.20913935051638796  0.6046477949310117  0.3971309732236747  1.0000
  C   C16       1.0  0.6048395229597502  0.3948410291803127  0.10286646688044239  1.0000
  C   C17       1.0  0.575829707711229  0.3462191242291794  0.5801306075068737  1.0000
  C   C18       1.0  0.2290770686873032  0.6539463588443652  0.9197507885844801  1.0000
  C   C19       1.0  0.42417454365797613  0.653785171030691  0.4198703480345003  1.0000
  C   C20       1.0  0.7709164941827635  0.34605266614293123  0.0802489336152021  1.0000
  C   C21       1.0  0.7912196943869176  0.09219561902477841  0.5765215575218221  1.0000
  C   C22       1.0  0.6987740032797873  0.908623203558129  0.9235022610616781  1.0000
  C   C23       1.0  0.20878259450077497  0.9078020759114337  0.4234743436556698  1.0000
  C   C24       1.0  0.3012295998710925  0.09137979283183739  0.0765022707663761  1.0000
  S   S1        1.0  0.137313271531724  0.41306530556988014  0.6384495890599666  1.0000
  S   S2        1.0  0.7241464543565286  0.5879975409980104  0.8616857662390842  1.0000
  S   S3        1.0  0.8626823803486943  0.5869244888231221  0.36154483344036237  1.0000
  S   S4        1.0  0.2758464017338084  0.4120054346277725  0.1383150646346536  1.0000
  S   S5        1.0  0.3177972744542713  0.8057493915278328  0.6752497821200834  1.0000
  S   S6        1.0  0.5124394819157772  0.19543083454827578  0.8252219680584716  1.0000
  S   S7        1.0  0.6822096781117466  0.1942522592794091  0.3247479684022991  1.0000
  S   S8        1.0  0.4875594241797928  0.8045708238587965  0.1747780008766213  1.0000
  N   N1        1.0  0.9247661485944363  0.5722942616263752  0.6256714172202109  1.0000
  N   N2        1.0  0.35229349498759177  0.42829729604219585  0.8744554920338317  1.0000
  N   N3        1.0  0.07523546689051135  0.42770476606018804  0.3743283061794074  1.0000
  N   N4        1.0  0.6476960163906182  0.5717043592157224  0.1255444755013286  1.0000
  O   O1        1.0  0.0768865724527004  0.09409984066461159  0.6588785329211219  1.0000
  O   O2        1.0  0.982859561320261  0.9071181913282659  0.8414152073680086  1.0000
  O   O3        1.0  0.9231244357014673  0.9058991867380685  0.3411204520075515  1.0000
  O   O4        1.0  0.017142041269110602  0.09288348857675288  0.15858920119234196  1.0000
  O   O5        1.0  0.8099049197695508  0.8315419328661164  0.6075762797801616  1.0000
  O   O6        1.0  0.9778896679384204  0.16940192139677632  0.8922553960093255  1.0000
  O   O7        1.0  0.1900940952562635  0.16844921279202651  0.3924256648966633  1.0000
  O   O8        1.0  0.022111882840697164  0.8306023454990878  0.1077396401650219  1.0000
