data_image0
_chemical_formula_structural       Cu12H120C96I12N24
_chemical_formula_sum              "Cu12 H120 C96 I12 N24"
_cell_length_a       16.24638579437837
_cell_length_b       16.246369637119102
_cell_length_c       16.24634212083783
_cell_angle_alpha    105.59985306531928
_cell_angle_beta     105.59961409953758
_cell_angle_gamma    105.59970839792153

_space_group_name_H-M_alt    "P 1"
_space_group_IT_number       1

loop_
  _space_group_symop_operation_xyz
  'x, y, z'

loop_
  _atom_site_type_symbol
  _atom_site_label
  _atom_site_symmetry_multiplicity
  _atom_site_fract_x
  _atom_site_fract_y
  _atom_site_fract_z
  _atom_site_occupancy
  Cu  Cu1       1.0  0.2505246066445467  0.5664635475995466  0.9346399400103633  1.0000
  Cu  Cu2       1.0  0.5664615071746083  0.9346430069258815  0.25052435037827064  1.0000
  Cu  Cu3       1.0  0.9346445676130204  0.2505254567711006  0.566461319820732  1.0000
  Cu  Cu4       1.0  0.7494763332274204  0.43353966247968867  0.06535571116799586  1.0000
  Cu  Cu5       1.0  0.43353121486054397  0.06536232258110891  0.7494758243256782  1.0000
  Cu  Cu6       1.0  0.0653632127891655  0.749475128934648  0.43352807315352476  1.0000
  Cu  Cu7       1.0  0.4338797844667255  0.7496472544926717  0.06566169526612241  1.0000
  Cu  Cu8       1.0  0.7496464046228797  0.06566664510476271  0.4338710882643396  1.0000
  Cu  Cu9       1.0  0.06565791241069262  0.43388365145998614  0.7496462116920668  1.0000
  Cu  Cu10      1.0  0.5661273242622258  0.25035309573124204  0.9343342257593645  1.0000
  Cu  Cu11      1.0  0.250351787462563  0.9343413028674731  0.5661183246325975  1.0000
  Cu  Cu12      1.0  0.9343313863637592  0.5661268145384711  0.25035195932412785  1.0000
  H   H1        1.0  0.9084548445847247  0.47119183065257897  0.7400282628536771  1.0000
  H   H2        1.0  0.47118639676196494  0.7400236029245663  0.9084538036811266  1.0000
  H   H3        1.0  0.7400241179297495  0.908451518242131  0.47118490639080307  1.0000
  H   H4        1.0  0.0915447653155752  0.5288179385672507  0.2599792514130641  1.0000
  H   H5        1.0  0.5288104297508767  0.25997428358786584  0.09154855535943077  1.0000
  H   H6        1.0  0.2599713092460831  0.09154265186136  0.5288093130653522  1.0000
  H   H7        1.0  0.8622158869278922  0.3709047269074476  0.7594446216013679  1.0000
  H   H8        1.0  0.370901938858836  0.7594463911340271  0.8622160547800061  1.0000
  H   H9        1.0  0.7594457263714532  0.86221537206211  0.37090090363391676  1.0000
  H   H10       1.0  0.137783008126469  0.6290996605602645  0.24055572168497008  1.0000
  H   H11       1.0  0.6290962643509417  0.24055518913262827  0.13778458332429006  1.0000
  H   H12       1.0  0.24055520614699336  0.1377833654728917  0.6290960109663999  1.0000
  H   H13       1.0  0.24040686898108282  0.6292622531585365  0.13805040622713688  1.0000
  H   H14       1.0  0.6292625178976012  0.13804801357457563  0.240409531791471  1.0000
  H   H15       1.0  0.13805111721166705  0.24040901507553514  0.6292622977277275  1.0000
  H   H16       1.0  0.7595899597521126  0.3707388249942341  0.8619497297637151  1.0000
  H   H17       1.0  0.3707397920102197  0.8619493153378669  0.7595910675997358  1.0000
  H   H18       1.0  0.8619511921693006  0.7595895890771233  0.37073679616105437  1.0000
  H   H19       1.0  0.2600517085710905  0.5290986033137058  0.0918155353206842  1.0000
  H   H20       1.0  0.5291020442220359  0.09181297570777504  0.26005665953466206  1.0000
  H   H21       1.0  0.09181302957837542  0.2600544875537878  0.5291005809804046  1.0000
  H   H22       1.0  0.7399423671295154  0.47089763922696193  0.9081856478203887  1.0000
  H   H23       1.0  0.47090026382670663  0.9081837134606726  0.7399437681839414  1.0000
  H   H24       1.0  0.9081844677195576  0.7399423577843364  0.47089613922879886  1.0000
  H   H25       1.0  0.790900595954895  0.6073239951830587  0.8596673569119415  1.0000
  H   H26       1.0  0.6073261961941226  0.8596663964725904  0.7909064054391589  1.0000
  H   H27       1.0  0.8596689347872657  0.7909065313028876  0.6073233149275834  1.0000
  H   H28       1.0  0.20908936880265833  0.3926764944640624  0.14033201609460375  1.0000
  H   H29       1.0  0.3926775018134664  0.14033272395314367  0.2090993533884813  1.0000
  H   H30       1.0  0.14033131190790024  0.2090919565910809  0.39267396489856304  1.0000
  H   H31       1.0  0.9072193069857235  0.6190124394070224  0.9069989276277751  1.0000
  H   H32       1.0  0.6190112595140748  0.906997683005983  0.9072236094161779  1.0000
  H   H33       1.0  0.9069997200551186  0.9072237719598988  0.6190093771722471  1.0000
  H   H34       1.0  0.09277271665667543  0.3809888005790966  0.09299996598384298  1.0000
  H   H35       1.0  0.3809889990279843  0.09299954097512853  0.09278010617271802  1.0000
  H   H36       1.0  0.09300052664004713  0.09277471593407681  0.3809879026538922  1.0000
  H   H37       1.0  0.8591412394736013  0.6074126350822909  0.7908150141989407  1.0000
  H   H38       1.0  0.6074139566190837  0.7908155799332588  0.8591470586496964  1.0000
  H   H39       1.0  0.7908180813213407  0.8591470970176901  0.607411284532688  1.0000
  H   H40       1.0  0.14084871174355135  0.39258465159714007  0.2091816515969782  1.0000
  H   H41       1.0  0.3925890560092925  0.20918392917952391  0.14085862079382142  1.0000
  H   H42       1.0  0.20918284978209564  0.14085163910139192  0.3925850137850873  1.0000
  H   H43       1.0  0.7391082187902571  0.45605945629671407  0.6700071433296414  1.0000
  H   H44       1.0  0.4560593516229119  0.6700056551730781  0.7391072127695961  1.0000
  H   H45       1.0  0.6700067657200038  0.7391084951682741  0.45606235120807515  1.0000
  H   H46       1.0  0.26088929310179054  0.5439380415286762  0.32999529509503833  1.0000
  H   H47       1.0  0.5439402139380506  0.3299932256556914  0.26089183652004516  1.0000
  H   H48       1.0  0.3299934899092563  0.26089063954928793  0.5439381817033747  1.0000
  H   H49       1.0  0.7010512021124526  0.3597038489367391  0.7009151560602261  1.0000
  H   H50       1.0  0.3597073284319166  0.7009151177700372  0.7010508151807711  1.0000
  H   H51       1.0  0.7009137679018452  0.7010475352907762  0.3597044154277569  1.0000
  H   H52       1.0  0.2989476795670854  0.6402935084267084  0.2990863802402045  1.0000
  H   H53       1.0  0.6402963633887852  0.2990852722322401  0.29895097301427137  1.0000
  H   H54       1.0  0.2990837285079451  0.29894803339121256  0.6402931940013231  1.0000
  H   H55       1.0  0.6701481208231428  0.45609866406844196  0.7388415319223112  1.0000
  H   H56       1.0  0.4561016451066067  0.7388421786252479  0.6701496702643863  1.0000
  H   H57       1.0  0.7388446001210554  0.6701485327370734  0.4561021766147632  1.0000
  H   H58       1.0  0.32984662521848657  0.5438958989698505  0.26115445699735307  1.0000
  H   H59       1.0  0.5439006797566179  0.2611583546708048  0.32985425261998796  1.0000
  H   H60       1.0  0.26115565223412324  0.3298499608205745  0.543897568341542  1.0000
  H   H61       1.0  0.28805856739975166  0.3928021045515635  0.0292994215266162  1.0000
  H   H62       1.0  0.39280431607002003  0.029298259746902026  0.28806170237501044  1.0000
  H   H63       1.0  0.029297682658850004  0.288059296487134  0.3928014699743798  1.0000
  H   H64       1.0  0.711940315694797  0.6071952542278041  0.9707027310563558  1.0000
  H   H65       1.0  0.6071980129554294  0.9707041913651935  0.7119421192446251  1.0000
  H   H66       1.0  0.9707025728876177  0.7119417517987116  0.607197112824707  1.0000
  H   H67       1.0  0.2316115559195779  0.3991144373409553  0.922769569656644  1.0000
  H   H68       1.0  0.3991158802667912  0.9227726925740141  0.23161018043484913  1.0000
  H   H69       1.0  0.9227753032765452  0.2316113480100911  0.39911453376531375  1.0000
  H   H70       1.0  0.7683914420318844  0.6008863328528449  0.07722844145903446  1.0000
  H   H71       1.0  0.6008857526690577  0.07722694708926534  0.7683920871551277  1.0000
  H   H72       1.0  0.0772297699301845  0.7683933783222443  0.600886937731154  1.0000
  H   H73       1.0  0.6012731201390054  0.7683775585766098  0.07817487876733502  1.0000
  H   H74       1.0  0.7683770933687414  0.07817737731022593  0.6012714817154502  1.0000
  H   H75       1.0  0.0781773256630913  0.6012696520588249  0.7683752221057103  1.0000
  H   H76       1.0  0.3987312490149577  0.23162307257118186  0.921822846506643  1.0000
  H   H77       1.0  0.23162384994287785  0.9218226467923428  0.39872885764278004  1.0000
  H   H78       1.0  0.9218201673898322  0.3987271890315398  0.23161964925586886  1.0000
  H   H79       1.0  0.6074021597605467  0.7127776285155463  0.9712863959717095  1.0000
  H   H80       1.0  0.7127834527474236  0.9712874370769741  0.6074038749258647  1.0000
  H   H81       1.0  0.971287417377795  0.6074049300995485  0.7127843830575386  1.0000
  H   H82       1.0  0.3925966935059933  0.2872114079283108  0.028711059737283127  1.0000
  H   H83       1.0  0.2872188674267095  0.028712453643251538  0.39259864372082387  1.0000
  H   H84       1.0  0.02871146510710081  0.3925956174883253  0.28721431391065266  1.0000
  H   H85       1.0  0.2219637408249113  0.29236214473314703  0.7776435278812455  1.0000
  H   H86       1.0  0.2923640924845969  0.777640270046234  0.22195965001580464  1.0000
  H   H87       1.0  0.7776418682310793  0.22196089913598627  0.29236402874860795  1.0000
  H   H88       1.0  0.7780378912227947  0.707636218274004  0.22235962892860067  1.0000
  H   H89       1.0  0.7076375366503032  0.22236000369736086  0.7780403241166027  1.0000
  H   H90       1.0  0.22235839253134065  0.7780395164854567  0.7076374637905828  1.0000
  H   H91       1.0  0.3427614104076541  0.3406801898168298  0.8084813920677332  1.0000
  H   H92       1.0  0.3406806958625737  0.808484226610247  0.34275822125352556  1.0000
  H   H93       1.0  0.8084840923116874  0.3427602834237079  0.3406817552273226  1.0000
  H   H94       1.0  0.6572402102372268  0.6593200754312464  0.19151488436941824  1.0000
  H   H95       1.0  0.6593209383227007  0.19151924160552622  0.6572407623942595  1.0000
  H   H96       1.0  0.1915182268915174  0.6572402442086726  0.6593197025268864  1.0000
  H   H97       1.0  0.28860634178876415  0.22045249054311006  0.7768484008731277  1.0000
  H   H98       1.0  0.2204551321233978  0.7768478207413166  0.28860622875401987  1.0000
  H   H99       1.0  0.7768497582335316  0.2886055126385046  0.22045471516410234  1.0000
  H   H100      1.0  0.7113925412229919  0.7795467818045482  0.22315180159748138  1.0000
  H   H101      1.0  0.7795471847766606  0.22315142881900124  0.711395501937531  1.0000
  H   H102      1.0  0.22315118790809413  0.7113945142958967  0.7795468567592108  1.0000
  H   H103      1.0  0.2267545342567133  0.2275947937026572  0.984019377098164  1.0000
  H   H104      1.0  0.22759548847296435  0.9840193976378229  0.22675346691464418  1.0000
  H   H105      1.0  0.9840162491597015  0.22675067210364835  0.22759186623049038  1.0000
  H   H106      1.0  0.7732491565930603  0.7724062332117754  0.015981350204405893  1.0000
  H   H107      1.0  0.7724061518991903  0.015982801001413784  0.7732494873657314  1.0000
  H   H108      1.0  0.0159846913219113  0.7732493491670882  0.772407240562657  1.0000
  H   H109      1.0  0.15362974229152834  0.2229081358700782  0.8775191657287136  1.0000
  H   H110      1.0  0.22290756532535036  0.8775192901061076  0.15362580629671646  1.0000
  H   H111      1.0  0.8775183463960305  0.1536250639902903  0.22290533973410476  1.0000
  H   H112      1.0  0.8463746366846792  0.7770944187574286  0.1224809234106914  1.0000
  H   H113      1.0  0.7770933821484931  0.1224826518125042  0.8463744317967749  1.0000
  H   H114      1.0  0.1224825936415144  0.8463743189523782  0.7770942116689806  1.0000
  H   H115      1.0  0.2221868102530138  0.15392470169388156  0.8778136638778165  1.0000
  H   H116      1.0  0.15392684258556238  0.8778144045125843  0.22218584113941367  1.0000
  H   H117      1.0  0.8778138048513356  0.22218402992939454  0.1539252664330634  1.0000
  H   H118      1.0  0.7778155024020279  0.8460745436186768  0.12218621796611022  1.0000
  H   H119      1.0  0.8460754826389447  0.12218868067982676  0.7778156870226594  1.0000
  H   H120      1.0  0.12218644794791801  0.777815101956321  0.8460740339132966  1.0000
  C   C1        1.0  0.12446523390226363  0.5241970728271569  0.0285551871846579  1.0000
  C   C2        1.0  0.5241965384146425  0.02855363650647995  0.12447052672600015  1.0000
  C   C3        1.0  0.028555605280161003  0.1244692984681564  0.5241975991797928  1.0000
  C   C4        1.0  0.8755288495959307  0.47580428058580526  0.9714442879245195  1.0000
  C   C5        1.0  0.4758050880558288  0.9714428072687082  0.8755321150660504  1.0000
  C   C6        1.0  0.9714446470750179  0.8755291950894916  0.4758021457765124  1.0000
  C   C7        1.0  0.0388117600232079  0.5114464482716415  0.03882650365837042  1.0000
  C   C8        1.0  0.5114464829892142  0.03882299662817699  0.03881324588157035  1.0000
  C   C9        1.0  0.03882591352131471  0.03881342089482591  0.5114481814510582  1.0000
  C   C10       1.0  0.961186441854352  0.4885532170108106  0.9611754682757405  1.0000
  C   C11       1.0  0.48855719581796114  0.9611729151661945  0.9611873406052706  1.0000
  C   C12       1.0  0.9611757185263913  0.9611849421123252  0.48855497535879494  1.0000
  C   C13       1.0  0.9715765886237265  0.4759413321756015  0.8755671204829838  1.0000
  C   C14       1.0  0.4759426412572695  0.8755649826196219  0.9715766679957196  1.0000
  C   C15       1.0  0.8755653773144377  0.9715775190900047  0.4759380411422853  1.0000
  C   C16       1.0  0.02842094044408581  0.5240625616737375  0.1244364183851658  1.0000
  C   C17       1.0  0.52406035580605  0.12443451091805002  0.028422232339842465  1.0000
  C   C18       1.0  0.1244335074736043  0.028424306569924302  0.5240603828885638  1.0000
  C   C19       1.0  0.8886413910404586  0.44664671747113266  0.7912691425208745  1.0000
  C   C20       1.0  0.4466436373845327  0.7912643679180817  0.8886404673035739  1.0000
  C   C21       1.0  0.7912679553133162  0.8886408515299352  0.44664257802828894  1.0000
  C   C22       1.0  0.11135477009894153  0.5533579565841363  0.20873547014411278  1.0000
  C   C23       1.0  0.553355234472768  0.20873106596564378  0.1113587051314297  1.0000
  C   C24       1.0  0.2087322932409279  0.11135827610802809  0.5533548734704538  1.0000
  C   C25       1.0  0.8126550619354092  0.47864150590265814  0.8125651683778726  1.0000
  C   C26       1.0  0.47864101390430863  0.8125628795115246  0.8126567161474083  1.0000
  C   C27       1.0  0.8125614232033771  0.8126539274421063  0.47863740847560615  1.0000
  C   C28       1.0  0.18734040921847855  0.5213610006955421  0.18743991077767663  1.0000
  C   C29       1.0  0.52136062327655  0.1874367643995143  0.18734740029019287  1.0000
  C   C30       1.0  0.1874360745386241  0.1873435562240857  0.5213588671236521  1.0000
  C   C31       1.0  0.20870724218443126  0.5535116515292557  0.11155363406165009  1.0000
  C   C32       1.0  0.5535113251848429  0.11155170243117137  0.20871080586346832  1.0000
  C   C33       1.0  0.1115511130411306  0.20870826455400504  0.5535110177828881  1.0000
  C   C34       1.0  0.7912909681003627  0.44648993581699875  0.8884500854553535  1.0000
  C   C35       1.0  0.4464896176827082  0.8884476833433296  0.7912899781046999  1.0000
  C   C36       1.0  0.8884470761841785  0.7912894744168923  0.44648735772071285  1.0000
  C   C37       1.0  0.8446444961740697  0.5839279415054931  0.8446830268543974  1.0000
  C   C38       1.0  0.5839267493183229  0.8446818050058409  0.8446470146045326  1.0000
  C   C39       1.0  0.8446836383306293  0.8446472070205999  0.5839241148831817  1.0000
  C   C40       1.0  0.15534821656569875  0.41607418928155937  0.15531628948654227  1.0000
  C   C41       1.0  0.4160741954910918  0.15531630694436419  0.15535589114860218  1.0000
  C   C42       1.0  0.1553166069495262  0.15535127945744875  0.41607254866041626  1.0000
  C   C43       1.0  0.7257249080949465  0.435042921575203  0.7255610246773825  1.0000
  C   C44       1.0  0.4350443753013593  0.7255610739202537  0.7257249378526891  1.0000
  C   C45       1.0  0.7255593862991747  0.7257226963508784  0.435043224473368  1.0000
  C   C46       1.0  0.27427260096709466  0.5649545734183476  0.27444018118220725  1.0000
  C   C47       1.0  0.56495794859093  0.2744400962879538  0.27427792413920565  1.0000
  C   C48       1.0  0.2744388029261345  0.2742750426200189  0.5649551510302402  1.0000
  C   C49       1.0  0.5274605313150859  0.623271636384679  0.017933149237045157  1.0000
  C   C50       1.0  0.623273166945694  0.017930931584721997  0.5274600560341937  1.0000
  C   C51       1.0  0.017927835833567905  0.5274586484126901  0.6232702306180042  1.0000
  C   C52       1.0  0.4725404177393458  0.37672647981327856  0.982071605363714  1.0000
  C   C53       1.0  0.37672709054264436  0.9820688428768277  0.47254064854985955  1.0000
  C   C54       1.0  0.9820696604934372  0.4725388338375822  0.3767254286987196  1.0000
  C   C55       1.0  0.5380232641628028  0.5379899468060216  0.007271454117400789  1.0000
  C   C56       1.0  0.5379915055969279  0.007265385039161681  0.5380212892252914  1.0000
  C   C57       1.0  0.007268456029862601  0.5380216661661307  0.5379905506085406  1.0000
  C   C58       1.0  0.4619797583706031  0.4620095722181928  0.9927385393039002  1.0000
  C   C59       1.0  0.462008743566962  0.9927305537902954  0.46197961788823233  1.0000
  C   C60       1.0  0.9927345461666167  0.46197910827542904  0.4620093093547696  1.0000
  C   C61       1.0  0.3768009101605402  0.47272798851300024  0.9821671244429664  1.0000
  C   C62       1.0  0.4727263274137813  0.982160294490761  0.3768008010776781  1.0000
  C   C63       1.0  0.9821628388670547  0.3767993541968479  0.47272803291408366  1.0000
  C   C64       1.0  0.6232028042174493  0.527274337712271  0.017842574160383186  1.0000
  C   C65       1.0  0.5272732513262995  0.01783923740934772  0.6232033501448979  1.0000
  C   C66       1.0  0.0178408618049559  0.6232035961972997  0.527275058253913  1.0000
  C   C67       1.0  0.29386457673737  0.39181180842371083  0.9627828240941765  1.0000
  C   C68       1.0  0.3918141755107953  0.9627828534823736  0.2938652246898527  1.0000
  C   C69       1.0  0.9627828202242058  0.2938649138045831  0.39181236674956205  1.0000
  C   C70       1.0  0.7061356733146554  0.6081854070618817  0.03721719379947063  1.0000
  C   C71       1.0  0.6081881455514875  0.03721831389399444  0.7061364047369594  1.0000
  C   C72       1.0  0.0372174390404183  0.7061374139692304  0.608186559394724  1.0000
  C   C73       1.0  0.2985720320169635  0.29875695593322144  0.9124860817619264  1.0000
  C   C74       1.0  0.29875851110508495  0.9124855068994365  0.2985683581097617  1.0000
  C   C75       1.0  0.9124850336550808  0.298569170640171  0.298757090456533  1.0000
  C   C76       1.0  0.7014330272880828  0.7012420155350654  0.08751507724621634  1.0000
  C   C77       1.0  0.7012431198888933  0.08751540658814598  0.7014317876952416  1.0000
  C   C78       1.0  0.08751522189139392  0.7014318776456676  0.7012414923425537  1.0000
  C   C79       1.0  0.6084551997278994  0.7063105024696271  0.03757455169235168  1.0000
  C   C80       1.0  0.706311782655888  0.037573370987210766  0.6084546111231431  1.0000
  C   C81       1.0  0.037572428313467306  0.608454883782855  0.7063122116098837  1.0000
  C   C82       1.0  0.3915477983891479  0.2936864405876065  0.9624273596480533  1.0000
  C   C83       1.0  0.2936905346882385  0.962426516901175  0.39154667495846235  1.0000
  C   C84       1.0  0.9624264541714356  0.39154566380501876  0.2936864853583074  1.0000
  C   C85       1.0  0.2874672273429227  0.28761365789036125  0.8129100057537357  1.0000
  C   C86       1.0  0.2876139592872633  0.8129100614491094  0.2874631423841051  1.0000
  C   C87       1.0  0.8129108343637484  0.28746412029376245  0.2876149322226738  1.0000
  C   C88       1.0  0.7125357748535565  0.7123871165512058  0.18708985420957447  1.0000
  C   C89       1.0  0.7123862976742146  0.18709098825264894  0.712536056697523  1.0000
  C   C90       1.0  0.1870901085038028  0.7125352654807385  0.7123858517454946  1.0000
  C   C91       1.0  0.2206882370705331  0.22118564828721793  0.9131988797191182  1.0000
  C   C92       1.0  0.22118689733225247  0.9131988537878826  0.22068536112741544  1.0000
  C   C93       1.0  0.9131971225680005  0.22068503662897854  0.22118577234704154  1.0000
  C   C94       1.0  0.7793140755845088  0.7788135970253477  0.08680100212480804  1.0000
  C   C95       1.0  0.7788147373798824  0.086803339187668  0.7793151280227946  1.0000
  C   C96       1.0  0.08680381932861539  0.7793149860576704  0.778813950728647  1.0000
  I   I1        1.0  0.2613537645007399  0.7389723851056049  0.0001398199414453429  1.0000
  I   I2        1.0  0.7389688885771477  0.0001341543580223241  0.26134470558864104  1.0000
  I   I3        1.0  0.0001421257534275003  0.26135400805752346  0.7389711895330959  1.0000
  I   I4        1.0  0.7386533549385916  0.26103116525416675  0.9998575757295921  1.0000
  I   I5        1.0  0.2610230981622195  0.999858756212987  0.7386464097362903  1.0000
  I   I6        1.0  0.9998553768733702  0.7386504972174208  0.26102019535682075  1.0000
  I   I7        1.0  0.23800138066701496  0.5001729648666782  0.762214586589465  1.0000
  I   I8        1.0  0.5001698984027882  0.7622199042873632  0.23800833352493805  1.0000
  I   I9        1.0  0.7622244246564307  0.23801700147905072  0.500173710399629  1.0000
  I   I10       1.0  0.7619816961425913  0.4998249986358871  0.23777549674193207  1.0000
  I   I11       1.0  0.4998310429669672  0.23778139363950146  0.7619898840483257  1.0000
  I   I12       1.0  0.23778409625748514  0.7619953704982905  0.4998276516937493  1.0000
  N   N1        1.0  0.1308947468266695  0.5138452422038853  0.9464778592619252  1.0000
  N   N2        1.0  0.5138427405815236  0.9464763961371145  0.13089507567333658  1.0000
  N   N3        1.0  0.9464746434530299  0.13089645807462355  0.5138418420148908  1.0000
  N   N4        1.0  0.8691034736416514  0.48616082051844234  0.053525829398203904  1.0000
  N   N5        1.0  0.48615614190337203  0.05352415145075181  0.8691036212948545  1.0000
  N   N6        1.0  0.05352285889527052  0.8691035817356861  0.4861538877096903  1.0000
  N   N7        1.0  0.0537026891926757  0.486421482569483  0.869249051330847  1.0000
  N   N8        1.0  0.4864193555286676  0.8692450084183889  0.05370314667440107  1.0000
  N   N9        1.0  0.8692469601855494  0.05370291131780658  0.4864155549498221  1.0000
  N   N10       1.0  0.9462934732789351  0.5135851064699821  0.13075422750432608  1.0000
  N   N11       1.0  0.5135815780434997  0.13075117863617441  0.9462967789307581  1.0000
  N   N12       1.0  0.1307512228528793  0.9462960972296273  0.5135788499211954  1.0000
  N   N13       1.0  0.4463507840000461  0.6305645497712861  0.012247624188241006  1.0000
  N   N14       1.0  0.6305664221363685  0.012248197113528599  0.4463498972891172  1.0000
  N   N15       1.0  0.012245990009873304  0.446349686143499  0.630565510605308  1.0000
  N   N16       1.0  0.553652900828425  0.36943391958311617  0.9877530327064645  1.0000
  N   N17       1.0  0.36943521548856495  0.9877520851255782  0.5536537745385387  1.0000
  N   N18       1.0  0.9877535848464731  0.5536523934052084  0.3694343970473497  1.0000
  N   N19       1.0  0.36959492692813717  0.5538710727853767  0.9878616046611766  1.0000
  N   N20       1.0  0.5538726871108324  0.9878637231359234  0.3695962550062644  1.0000
  N   N21       1.0  0.9878620792570986  0.3695953418736195  0.5538701554847164  1.0000
  N   N22       1.0  0.6304053240120383  0.4461274193563511  0.012137524012587143  1.0000
  N   N23       1.0  0.4461296335073754  0.01213680591237681  0.6304058190304926  1.0000
  N   N24       1.0  0.0121388606976538  0.6304059546373323  0.44612744580600594  1.0000
