data_image0
_chemical_formula_structural       Zr6H30C52O56
_chemical_formula_sum              "Zr6 H30 C52 O56"
_cell_length_a       14.854742303322295
_cell_length_b       14.793167062423127
_cell_length_c       14.832832698292242
_cell_angle_alpha    60.033919421900535
_cell_angle_beta     60.04731137674282
_cell_angle_gamma    60.03666557757775

_space_group_name_H-M_alt    "P 1"
_space_group_IT_number       1

loop_
  _space_group_symop_operation_xyz
  'x, y, z'

loop_
  _atom_site_type_symbol
  _atom_site_label
  _atom_site_symmetry_multiplicity
  _atom_site_fract_x
  _atom_site_fract_y
  _atom_site_fract_z
  _atom_site_occupancy
  Zr  Zr1       1.0  0.8850124074421187  0.8786570663844201  0.6211211799287215  1.0000
  Zr  Zr2       1.0  0.12091776379779158  0.11955107752936558  0.3803177835443351  1.0000
  Zr  Zr3       1.0  0.122544871354371  0.880296772646709  0.6190420436702199  1.0000
  Zr  Zr4       1.0  0.8832995571066534  0.1172229075443242  0.3841250250739493  1.0000
  Zr  Zr5       1.0  0.12252838863688013  0.8805808491290391  0.3826689466905933  1.0000
  Zr  Zr6       1.0  0.8864385734003475  0.11803191659484477  0.6197550910255957  1.0000
  H   H1        1.0  0.09888828063957082  0.716944224838322  0.5918620101425205  1.0000
  H   H2        1.0  0.09493680562967198  0.0924907745455386  0.21938383602180522  1.0000
  H   H3        1.0  0.0986526511119762  0.09485212414349321  0.5926168146890022  1.0000
  H   H4        1.0  0.7232084728077979  0.09258695441144478  0.5984588156986634  1.0000
  H   H5        1.0  0.962447576582768  0.5794435088731407  0.7447260388074927  1.0000
  H   H6        1.0  0.8935735119339298  0.27999518510094384  0.10447889490496476  1.0000
  H   H7        1.0  0.1743999350193589  0.33094230866661434  0.36171178094717504  1.0000
  H   H8        1.0  0.813060232037287  0.7014995786562465  0.5915631290218929  1.0000
  H   H9        1.0  0.1720172416903126  0.6379975963622542  0.3626187824657165  1.0000
  H   H10       1.0  0.818714382795143  0.3906294005794917  0.5959601119026702  1.0000
  H   H11       1.0  0.33904890704486224  0.1653969348261981  0.14185879773577886  1.0000
  H   H12       1.0  0.6803802889126516  0.8252246174009982  0.871462324961321  1.0000
  H   H13       1.0  0.6508120631027341  0.15927095116560974  0.842913079198759  1.0000
  H   H14       1.0  0.3640009668787414  0.8357302804704645  0.16546730745734808  1.0000
  H   H15       1.0  0.8269135862443732  0.11218507438048433  0.8795558503640283  1.0000
  H   H16       1.0  0.163596053743852  0.8461343114246918  0.15090183013754915  1.0000
  H   H17       1.0  0.8257137392823565  0.10860277080701755  0.18891283716040883  1.0000
  H   H18       1.0  0.17037535139586174  0.8533648052006412  0.83820469114265  1.0000
  H   H19       1.0  0.3702137611212778  0.667555748714598  0.33250170389103323  1.0000
  H   H20       1.0  0.6434251486316995  0.33617758121496166  0.6681716476417849  1.0000
  H   H21       1.0  0.6817907298415449  0.36740492405018427  0.3301775493245174  1.0000
  H   H22       1.0  0.33717980081419086  0.6414751465941605  0.6659208200345857  1.0000
  H   H23       1.0  0.3535060957583409  0.8427681324657285  0.6484821876751783  1.0000
  H   H24       1.0  0.6514853100980177  0.15642658028631462  0.35418359877538574  1.0000
  H   H25       1.0  0.6443572910262031  0.8540724470701165  0.6653063136978261  1.0000
  H   H26       1.0  0.3606558638483222  0.1444580818861354  0.3375621561808374  1.0000
  H   H27       1.0  0.09568682679571332  0.3848830186843415  0.19430121048370105  1.0000
  H   H28       1.0  0.10305792484066952  0.688324760445127  0.8898885044697451  1.0000
  H   H29       1.0  0.8448621329783349  0.4004318717720068  0.7866560424373219  1.0000
  H   H30       1.0  0.8103024998493635  0.24594175383718664  0.021773528527909012  1.0000
  C   C1        1.0  0.9970155329321317  0.7033191803411541  0.48675890158427415  1.0000
  C   C2        1.0  0.3111389715490272  0.9994836453518873  0.19514212000357406  1.0000
  C   C3        1.0  0.9994162083787614  0.3147762087615719  0.4874018738050127  1.0000
  C   C4        1.0  0.7043459190255772  0.9946415562535407  0.8140358544650826  1.0000
  C   C5        1.0  0.004147457072661983  0.6924198876139087  0.8039626812436113  1.0000
  C   C6        1.0  0.6939247985045469  0.00019993516443864766  0.5048949478033153  1.0000
  C   C7        1.0  0.9938449529027125  0.30538585638502996  0.19673122991159203  1.0000
  C   C8        1.0  0.31428046806209414  0.9955510872963769  0.4944507192297821  1.0000
  C   C9        1.0  0.31321756349141316  0.695618970856053  0.49830194987050913  1.0000
  C   C10       1.0  0.0020453544519652618  0.9893583989495552  0.813130283424215  1.0000
  C   C11       1.0  0.7014789581914015  0.30938253981958047  0.5009330951543731  1.0000
  C   C12       1.0  0.9971639381180278  0.9854405278191507  0.2047820560499931  1.0000
  C   C13       1.0  0.9948681703113773  0.4201699752037414  0.4771597457642259  1.0000
  C   C14       1.0  0.9931544152815943  0.6128387850582371  0.47554381108625426  1.0000
  C   C15       1.0  0.09130940093299947  0.451730379872629  0.41407116391144433  1.0000
  C   C16       1.0  0.8943047818018073  0.5862992009888544  0.5308319474113292  1.0000
  C   C17       1.0  0.09072275028307787  0.5468988390509182  0.414109678293002  1.0000
  C   C18       1.0  0.8958951480028216  0.48941145044668843  0.533525042769654  1.0000
  C   C19       1.0  0.41118786024626525  0.9980913219467739  0.09895114314621628  1.0000
  C   C20       1.0  0.6063902067456298  0.9944619972365345  0.9126402410774547  1.0000
  C   C21       1.0  0.4527847441635515  0.08770476429115344  0.044540658614138896  1.0000
  C   C22       1.0  0.5656184025925691  0.9042390165849953  0.9677695197681547  1.0000
  C   C23       1.0  0.5493361301153215  0.0858617989864143  0.9522506196180204  1.0000
  C   C24       1.0  0.4680457513207089  0.906890436721774  0.05904707154832785  1.0000
  C   C25       1.0  0.9970697631252035  0.9805487699620986  0.917954947182445  1.0000
  C   C26       1.0  0.9945166622084043  0.9782937601093592  0.11126345573780608  1.0000
  C   C27       1.0  0.90148648054474  0.0467984260200467  0.9806131398595073  1.0000
  C   C28       1.0  0.08702738888290178  0.906676912825489  0.05325418044616728  1.0000
  C   C29       1.0  0.9015988860474665  0.04638276133979257  0.07477374243170251  1.0000
  C   C30       1.0  0.08873661201702993  0.9087953731369467  0.9562311331796921  1.0000
  C   C31       1.0  0.412219229430974  0.5981919008705034  0.4986198937910234  1.0000
  C   C32       1.0  0.6043703000464616  0.4087485849528889  0.49939005333391867  1.0000
  C   C33       1.0  0.47062474889857925  0.5583743964402359  0.40746246964308613  1.0000
  C   C34       1.0  0.5457276415150714  0.4481758349043757  0.5908200631827186  1.0000
  C   C35       1.0  0.5666793813500063  0.4652795109111805  0.407122062282845  1.0000
  C   C36       1.0  0.45068594629678654  0.5422608296500115  0.590373275505563  1.0000
  C   C37       1.0  0.01078831107882648  0.5868568072934578  0.895989618439927  1.0000
  C   C38       1.0  0.9703183213748688  0.5079730999802052  0.9107997184890595  1.0000
  C   C39       1.0  0.05317051461992151  0.5661756201892273  0.9729215862246577  1.0000
  C   C40       1.0  0.9479748977362943  0.5155079678927592  0.8247563385794053  1.0000
  C   C41       1.0  0.9056645705458308  0.4430207788052768  0.8396724465047214  1.0000
  C   C42       1.0  0.9986306978032644  0.39898954455708946  0.09268875615205759  1.0000
  C   C43       1.0  0.04968347857258946  0.4703502866788369  0.07006346410921083  1.0000
  C   C44       1.0  0.9570125160692198  0.41717489640898014  0.012716538910986343  1.0000
  C   C45       1.0  0.9089954168690824  0.34653512466998415  0.027015456394330936  1.0000
  C   C46       1.0  0.8804479413143724  0.36099504780395364  0.9439646407974254  1.0000
  C   C47       1.0  0.41120250618370574  0.9962342812923807  0.49655565186385797  1.0000
  C   C48       1.0  0.595671889646745  0.0011400346048375354  0.5041891333131974  1.0000
  C   C49       1.0  0.45532926479945934  0.9157524615734615  0.583598072148135  1.0000
  C   C50       1.0  0.5503885986980207  0.082721473463252  0.4181283794683069  1.0000
  C   C51       1.0  0.5458978144717365  0.918937866091177  0.5881053167932607  1.0000
  C   C52       1.0  0.45992494227517255  0.07948883658568916  0.41362443073929006  1.0000
  O   O1        1.0  0.9193422844041521  0.745682498409181  0.5624983360203475  1.0000
  O   O2        1.0  0.26426366116774597  0.07933896018912626  0.23475100407129906  1.0000
  O   O3        1.0  0.08209427043541237  0.2639583679690389  0.41933410142440414  1.0000
  O   O4        1.0  0.7486044401755124  0.9170584757395233  0.7725547910031526  1.0000
  O   O5        1.0  0.0742963037877471  0.7404200330580437  0.7699268016095361  1.0000
  O   O6        1.0  0.7376590436517602  0.07607594060092276  0.4282652099675774  1.0000
  O   O7        1.0  0.92142886952076  0.2588260926107823  0.24024906318349096  1.0000
  O   O8        1.0  0.27092561190240627  0.9195658901121105  0.5709592551106156  1.0000
  O   O9        1.0  0.2723692965083513  0.7398249026839993  0.4203103305308249  1.0000
  O   O10       1.0  0.9265069148852517  0.06721701007071372  0.7704376435950736  1.0000
  O   O11       1.0  0.7406076702666764  0.2634474621148686  0.5807249637357544  1.0000
  O   O12       1.0  0.07959805128041349  0.9174672247896253  0.24034319363003215  1.0000
  O   O13       1.0  0.08383270046315502  0.919720499054833  0.7641080349189695  1.0000
  O   O14       1.0  0.746223371504577  0.2675746410622254  0.42367436876789827  1.0000
  O   O15       1.0  0.918863654720745  0.060470629483226894  0.24814093705359136  1.0000
  O   O16       1.0  0.26665174701275113  0.7361228013530763  0.5772020465234038  1.0000
  O   O17       1.0  0.9291435230854574  0.7362232486760549  0.7608356530068223  1.0000
  O   O18       1.0  0.2719617538972585  0.07148779105149575  0.4178139947944218  1.0000
  O   O19       1.0  0.0652346000479511  0.2705309498011986  0.24364702253495105  1.0000
  O   O20       1.0  0.7362417280474458  0.92409358177936  0.5815582676129413  1.0000
  O   O21       1.0  0.7443172909836092  0.07398954646935609  0.7683537003115293  1.0000
  O   O22       1.0  0.0813672561136229  0.7372654161428471  0.4214537691881688  1.0000
  O   O23       1.0  0.26984087612829183  0.921603907759561  0.23933833552744244  1.0000
  O   O24       1.0  0.9231803455249903  0.2727214089541404  0.564519295049202  1.0000
  O   O25       1.0  0.8031435277138638  0.06557809042656261  0.5706199830488928  1.0000
  O   O26       1.0  0.07104887852972307  0.06774505520866114  0.5671609552327298  1.0000
  O   O27       1.0  0.06852604600513958  0.06596031470299828  0.29947219919949225  1.0000
  O   O28       1.0  0.07094232158606648  0.797227485848076  0.5673259906478735  1.0000
  O   O29       1.0  0.15153596747928325  0.9508268460902514  0.4507866539133972  1.0000
  O   O30       1.0  0.9542342666941078  0.9490547426988699  0.45277125683551145  1.0000
  O   O31       1.0  0.9540781625129  0.14638670066539544  0.45225163610778213  1.0000
  O   O32       1.0  0.9556173224136731  0.9498953614138443  0.6480263212664782  1.0000
  O   O33       1.0  0.18789653283353394  0.3925998689205842  0.35629171059705567  1.0000
  O   O34       1.0  0.7970664209119391  0.6491226286484704  0.5837878820069026  1.0000
  O   O35       1.0  0.18699430322264718  0.5675725784820926  0.3571900161073884  1.0000
  O   O36       1.0  0.800825461720294  0.4655949227333664  0.5932756903827612  1.0000
  O   O37       1.0  0.4034165416398423  0.17798184815337953  0.07526339927066066  1.0000
  O   O38       1.0  0.6156493539255192  0.813376630632938  0.9379070209588962  1.0000
  O   O39       1.0  0.5818183529524532  0.17469553028848855  0.9044304984991954  1.0000
  O   O40       1.0  0.43369126929542995  0.8197692467395895  0.10471840110121643  1.0000
  O   O41       1.0  0.8087454097192576  0.11186277049802142  0.9534995797965852  1.0000
  O   O42       1.0  0.17757734456889543  0.8373466956183934  0.08267616025461434  1.0000
  O   O43       1.0  0.8096176204855254  0.11649541704104396  0.12733461499464505  1.0000
  O   O44       1.0  0.18175383842134335  0.8427979310625343  0.9034970177277944  1.0000
  O   O45       1.0  0.4397195301006108  0.6061123629356472  0.3179841310241542  1.0000
  O   O46       1.0  0.5747957606844593  0.398639758871944  0.6818118120552938  1.0000
  O   O47       1.0  0.6187289254113323  0.4354061964144051  0.31621163604273067  1.0000
  O   O48       1.0  0.39943344246478324  0.5728948149057941  0.680732667095569  1.0000
  O   O49       1.0  0.4145771753989818  0.8343038725754114  0.6650434311701903  1.0000
  O   O50       1.0  0.5897163245264069  0.16574522280233578  0.33813620710764536  1.0000
  O   O51       1.0  0.5801950227026818  0.8418079577486639  0.6747486893554042  1.0000
  O   O52       1.0  0.4239280006777549  0.1580785994706985  0.32836733690208325  1.0000
  O   O53       1.0  0.09453912670404913  0.4584772463003759  0.13631000387678688  1.0000
  O   O54       1.0  0.09614819914745712  0.632393969490657  0.9646898396177194  1.0000
  O   O55       1.0  0.8869015769848473  0.44945650384877917  0.7557505728663405  1.0000
  O   O56       1.0  0.8310276157469332  0.30194122105616844  0.9485933834797111  1.0000
