data_image0
_chemical_formula_structural       Zn6H32C64N8O24
_chemical_formula_sum              "Zn6 H32 C64 N8 O24"
_cell_length_a       23.704205534603005
_cell_length_b       23.704167581524217
_cell_length_c       25.532247004768596
_cell_angle_alpha    117.6615008012914
_cell_angle_beta     117.66022383418715
_cell_angle_gamma    90.00136415707284

_space_group_name_H-M_alt    "P 1"
_space_group_IT_number       1

loop_
  _space_group_symop_operation_xyz
  'x, y, z'

loop_
  _atom_site_type_symbol
  _atom_site_label
  _atom_site_symmetry_multiplicity
  _atom_site_fract_x
  _atom_site_fract_y
  _atom_site_fract_z
  _atom_site_occupancy
  Zn  Zn1       1.0  0.5000210956772406  0.05449567796576815  1.651644221568546e-05  1.0000
  Zn  Zn2       1.0  0.033839267633332816  0.033844237935071  0.0676815540441353  1.0000
  Zn  Zn3       1.0  0.9661559365795825  0.9661589994209122  0.9323185371882801  1.0000
  Zn  Zn4       1.0  0.9455060249497792  0.4999794813361903  0.9999862791031617  1.0000
  Zn  Zn5       1.0  0.49997291067765587  0.9454852576894053  0.9999704619739589  1.0000
  Zn  Zn6       1.0  0.054513838598872204  0.5000253454971285  2.6661310513948058e-05  1.0000
  H   H1        1.0  0.24790743816869565  0.7788403077358766  0.6510555469224927  1.0000
  H   H2        1.0  0.8722166007715585  0.24792102636583013  0.6510625107695913  1.0000
  H   H3        1.0  0.4031210783360775  0.8722087749776362  0.6510385599976373  1.0000
  H   H4        1.0  0.7788614250857008  0.4031388807647076  0.6510531297707017  1.0000
  H   H5        1.0  0.7520739706764134  0.12778295801293635  0.3489354005919552  1.0000
  H   H6        1.0  0.127825283595655  0.5968555565448951  0.34895739579589247  1.0000
  H   H7        1.0  0.5968589773949304  0.22114061326627873  0.34895054618101534  1.0000
  H   H8        1.0  0.22112542481469422  0.7521144660230944  0.34894478483358427  1.0000
  H   H9        1.0  0.2518242124997129  0.8077043696978092  0.7535480542370862  1.0000
  H   H10       1.0  0.3320671105827416  0.8196356906909017  0.8210832466602015  1.0000
  H   H11       1.0  0.3002685335426635  0.88821833401024  0.8270048495113828  1.0000
  H   H12       1.0  0.9458389996467533  0.2518346515509079  0.7535711027651003  1.0000
  H   H13       1.0  0.0014587771058886256  0.33206861621738437  0.821130744999124  1.0000
  H   H14       1.0  0.9387427282957715  0.300283031183511  0.8269894155155056  1.0000
  H   H15       1.0  0.5017599439461053  0.9458676561627329  0.7535716583284896  1.0000
  H   H16       1.0  0.48904670665980643  0.001453801884807103  0.8211045902089824  1.0000
  H   H17       1.0  0.5267416389880919  0.9387752560403939  0.8269987671057777  1.0000
  H   H18       1.0  0.8077168193977046  0.5017564810795251  0.7535614563922124  1.0000
  H   H19       1.0  0.8196538855890126  0.4890483494626706  0.8210971213892364  1.0000
  H   H20       1.0  0.8882377947766785  0.5267616590705088  0.8270088581811238  1.0000
  H   H21       1.0  0.7481635874492696  0.054164356976166006  0.24642562656263312  1.0000
  H   H22       1.0  0.6679306023470701  0.9985435583784862  0.17886738862673462  1.0000
  H   H23       1.0  0.699713637584111  0.06126027956987908  0.17300805052882134  1.0000
  H   H24       1.0  0.054182227484936576  0.4982065725933039  0.24642035336928805  1.0000
  H   H25       1.0  0.9985828018721605  0.5109091187015551  0.17888635923369386  1.0000
  H   H26       1.0  0.061278976180034334  0.4732405647346524  0.17299625760015402  1.0000
  H   H27       1.0  0.49824502825525496  0.19228973395618704  0.24644381810803398  1.0000
  H   H28       1.0  0.5109504990193301  0.18034800148402744  0.17890531919459812  1.0000
  H   H29       1.0  0.47323845134894793  0.1117665097649336  0.17299747313263225  1.0000
  H   H30       1.0  0.1922445187485451  0.7482062974830227  0.24645130497168563  1.0000
  H   H31       1.0  0.1803298296038633  0.6679676834080155  0.17891056243335873  1.0000
  H   H32       1.0  0.11173593411085396  0.6997417569834284  0.1729987866678115  1.0000
  C   C1        1.0  0.39013490509932336  0.9999957396117622  0.9999586144125417  1.0000
  C   C2        1.0  0.894178653932215  0.394185495204617  0.7882970401032308  1.0000
  C   C3        1.0  0.813666423664735  0.38387018105616033  0.6801534897196435  1.0000
  C   C4        1.0  0.7036664170329487  0.13343987345997016  0.31984696875043284  1.0000
  C   C5        1.0  0.13349021847299983  0.6161438050294875  0.31985152919956755  1.0000
  C   C6        1.0  0.6161276250374074  0.1863358438566109  0.31984875282869757  1.0000
  C   C7        1.0  0.18633351126844389  0.7037325660634863  0.31985652234904893  1.0000
  C   C8        1.0  0.32176344774247667  0.8217822956301787  0.6435388379676396  1.0000
  C   C9        1.0  0.8218221919733821  0.321806614302659  0.6435420472334528  1.0000
  C   C10       1.0  0.6781901598362199  0.1781793390441422  0.35645918778184443  1.0000
  C   C11       1.0  0.17821586657263577  0.678235783301723  0.356459387260692  1.0000
  C   C12       1.0  0.605813479212685  0.10582437546775478  0.2117037445279024  1.0000
  C   C13       1.0  0.3023917680197385  0.8406588386364291  0.7904563041587949  1.0000
  C   C14       1.0  0.949798508977672  0.3024096887616991  0.7904735354718185  1.0000
  C   C15       1.0  0.48808513135546144  0.9498020721103159  0.7904632322839547  1.0000
  C   C16       1.0  0.840672517382096  0.4880961011493455  0.7904675081197183  1.0000
  C   C17       1.0  0.6975892210728106  0.050204577582178396  0.2095246664177566  1.0000
  C   C18       1.0  0.050237727591806315  0.5118838771429352  0.209529041520291  1.0000
  C   C19       1.0  0.511904042334919  0.15933193411213858  0.20953763696870448  1.0000
  C   C20       1.0  0.10585654527461943  0.605840317770024  0.211717403260252  1.0000
  C   C21       1.0  0.15930593717561686  0.6976287249166616  0.20954207221203794  1.0000
  C   C22       1.0  0.39415850720008205  0.8941443165367744  0.7882809746482594  1.0000
  C   C23       1.0  0.21637629417416795  0.7163779130683922  0.43276719387498025  1.0000
  C   C24       1.0  0.7163544518350804  0.2163452008430084  0.4327688896299832  1.0000
  C   C25       1.0  0.7836530826625181  0.2836406675656986  0.5672324710549361  1.0000
  C   C26       1.0  5.609055570321575e-06  0.39013733877202844  0.9999657167539625  1.0000
  C   C27       1.0  0.2836218804478746  0.7836223600097297  0.5672316066749161  1.0000
  C   C28       1.0  0.9999736961461354  0.8909308500887718  0.9999404001055086  1.0000
  C   C29       1.0  0.10906980556495678  2.717928586550293e-05  6.177122623540323e-05  1.0000
  C   C30       1.0  1.6111819022093268e-05  0.109067744301754  5.476925715438888e-05  1.0000
  C   C31       1.0  0.8909319024410894  0.9999841045678508  0.9999463389182923  1.0000
  C   C32       1.0  0.6098619290422675  0.9999927005827801  3.3789731553104536e-05  1.0000
  C   C33       1.0  0.43298998004528505  0.9329480907034268  0.8659543152888104  1.0000
  C   C34       1.0  0.932985151470902  0.4330012784352987  0.8659721018385155  1.0000
  C   C35       1.0  0.566998594407039  0.06701848441237965  0.13402869787476135  1.0000
  C   C36       1.0  0.06705175756280811  0.5670102703861204  0.13404405815460038  1.0000
  C   C37       1.0  3.1682205658575734e-06  0.609864335760804  4.1832303146792386e-05  1.0000
  C   C38       1.0  0.32955309783042713  0.9999769667024339  0.9999468018247128  1.0000
  C   C39       1.0  0.9999736650399672  0.3295526720418281  0.9999467699347239  1.0000
  C   C40       1.0  0.6704459784640022  2.4652222023665106e-05  5.1222175358110335e-05  1.0000
  C   C41       1.0  2.248090765993414e-05  0.6704466273387908  5.377056353952982e-05  1.0000
  C   C42       1.0  0.27792812682770335  0.9999526879662994  0.9999966055730384  1.0000
  C   C43       1.0  0.9999541288681402  0.27792848662937775  0.999995717759262  1.0000
  C   C44       1.0  0.7220706213389719  4.492064902446415e-05  2.0814338697493608e-06  1.0000
  C   C45       1.0  4.793760516717119e-05  0.7220708331494379  3.819757097204321e-06  1.0000
  C   C46       1.0  0.2212388247607321  0.9999965403208361  6.934236596817245e-05  1.0000
  C   C47       1.0  0.9999996056884868  0.22123468720801037  6.363003313924313e-05  1.0000
  C   C48       1.0  0.778763123493107  0.9999998083414852  0.9999361365994304  1.0000
  C   C49       1.0  3.6551558652552704e-06  0.7787611674820096  0.9999296629506561  1.0000
  C   C50       1.0  0.169589425234463  3.7031331466193826e-05  6.970171639859765e-05  1.0000
  C   C51       1.0  3.248520492598147e-05  0.16958192315209433  5.134959696556805e-05  1.0000
  C   C52       1.0  0.8304189435598914  0.9999683699469912  0.9999495623416549  1.0000
  C   C53       1.0  0.9999629256542878  0.8304094799178684  0.9999300916293381  1.0000
  C   C54       1.0  0.33173977081685274  0.8494268022166976  0.7526061880567311  1.0000
  C   C55       1.0  0.9032351964130786  0.33177959066770063  0.7526153219417682  1.0000
  C   C56       1.0  0.4208792715406703  0.9032052393131592  0.752602124840763  1.0000
  C   C57       1.0  0.8494411344243462  0.42090135778258286  0.7526119142910234  1.0000
  C   C58       1.0  0.6682186294515731  0.09676737792325704  0.24738430727214927  1.0000
  C   C59       1.0  0.09681530595172917  0.5791046176616986  0.24739391944627437  1.0000
  C   C60       1.0  0.5790977097652289  0.15056247427394004  0.2473900272470502  1.0000
  C   C61       1.0  0.15055477937566764  0.6682718791672783  0.2473930805164953  1.0000
  C   C62       1.0  0.2962805036104044  0.8136464851337094  0.6801434213728754  1.0000
  C   C63       1.0  0.8665610185623367  0.2963300060256486  0.6801525076536096  1.0000
  C   C64       1.0  0.38384376341930715  0.8665251564979354  0.6801447239487146  1.0000
  N   N1        1.0  0.3026116868646653  0.8029623637828536  0.5341572079887342  1.0000
  N   N2        1.0  0.7312232870268077  0.3026186888809264  0.5341602186289266  1.0000
  N   N3        1.0  0.23156457873863462  0.7311885568914887  0.5341566252998007  1.0000
  N   N4        1.0  0.8029677583409339  0.23154903869377108  0.5341556618958022  1.0000
  N   N5        1.0  0.6973775706765296  0.2687744843610674  0.46584493332945703  1.0000
  N   N6        1.0  0.2687869707602674  0.7684584305638468  0.4658421602071032  1.0000
  N   N7        1.0  0.7684424688850627  0.1970250929507031  0.4658408847787642  1.0000
  N   N8        1.0  0.19705998549406425  0.6973644467635295  0.46584179137389  1.0000
  O   O1        1.0  0.41445057007593533  0.048813654632169794  0.0009519396434782382  1.0000
  O   O2        1.0  0.9521405498614471  0.414412285372954  0.0009067461428031904  1.0000
  O   O3        1.0  0.5865031391476447  0.9521109127283153  0.0009264943955143372  1.0000
  O   O4        1.0  0.04881961114406864  0.58654915067536  0.0009945422342738694  1.0000
  O   O5        1.0  0.5855869144248589  0.04785854872691423  0.999092764186365  1.0000
  O   O6        1.0  0.047888284144527136  0.4134964691454925  0.9990731242103907  1.0000
  O   O7        1.0  0.4134492543592504  0.9511793057009612  0.9990031427142654  1.0000
  O   O8        1.0  0.951187476693747  0.5855499681825693  0.9990516175545141  1.0000
  O   O9        1.0  0.4473079513970434  0.996095182008851  0.8963917618090916  1.0000
  O   O10       1.0  0.9002302097648001  0.44729425460217687  0.8963537926314089  1.0000
  O   O11       1.0  0.4490624989936051  0.9002044955940178  0.8963517553424154  1.0000
  O   O12       1.0  0.9961361593819336  0.44909679435315275  0.8964160085466091  1.0000
  O   O13       1.0  0.5527071844122419  0.09977566443808428  0.10364846656842984  1.0000
  O   O14       1.0  0.09979296814405102  0.5509383017938134  0.1036441001472639  1.0000
  O   O15       1.0  0.5509007631284462  0.003868555057657364  0.10358323672864597  1.0000
  O   O16       1.0  0.003906372985333918  0.5526925589488628  0.10361127055243465  1.0000
  O   O17       1.0  0.9706272840671988  0.885172182391841  0.9404711160502545  1.0000
  O   O18       1.0  0.055371104720912126  0.9706701807181233  0.9405739446509999  1.0000
  O   O19       1.0  0.9698706052731655  0.05535757702091352  0.9405736287687817  1.0000
  O   O20       1.0  0.8851485522289693  0.9698487449594353  0.940467733428619  1.0000
  O   O21       1.0  0.029329447485203306  0.9446287785495359  0.05942605937794098  1.0000
  O   O22       1.0  0.9446392038983545  0.030129439437096915  0.05942394985165589  1.0000
  O   O23       1.0  0.030149248094637916  0.11485006303575321  0.059530386268711814  1.0000
  O   O24       1.0  0.11482698472367052  0.029373516797583907  0.05952898084906621  1.0000
