data_image0
_chemical_formula_structural       Zn2H16C28N16
_chemical_formula_sum              "Zn2 H16 C28 N16"
_cell_length_a       8.71803092241295
_cell_length_b       9.344506668284838
_cell_length_c       9.344486996329378
_cell_angle_alpha    76.7001929311282
_cell_angle_beta     81.41724545408475
_cell_angle_gamma    81.41719999299445

_space_group_name_H-M_alt    "P 1"
_space_group_IT_number       1

loop_
  _space_group_symop_operation_xyz
  'x, y, z'

loop_
  _atom_site_type_symbol
  _atom_site_label
  _atom_site_symmetry_multiplicity
  _atom_site_fract_x
  _atom_site_fract_y
  _atom_site_fract_z
  _atom_site_occupancy
  Zn  Zn1       1.0  0.7500006707041676  0.30644350283329663  0.6935572284028951  1.0000
  Zn  Zn2       1.0  0.2500025726369088  0.6935551768047504  0.30644467296797023  1.0000
  H   H1        1.0  0.12301841589047774  0.9630701328572826  0.42171129597165463  1.0000
  H   H2        1.0  0.3769836895480907  0.5782904362223888  0.036927747694655046  1.0000
  H   H3        1.0  0.8769857169738912  0.03693077201180019  0.5782931705291361  1.0000
  H   H4        1.0  0.623016068657506  0.42170823401711727  0.9630703647919109  1.0000
  H   H5        1.0  0.541315698688777  0.8461708094473223  0.17725665319841977  1.0000
  H   H6        1.0  0.9586877037860759  0.8227460515017101  0.1538309039851669  1.0000
  H   H7        1.0  0.4586813259306338  0.1538311799850831  0.8227389267231829  1.0000
  H   H8        1.0  0.0413130829421249  0.1772537448022433  0.8461721514754361  1.0000
  H   H9        1.0  0.6379399979252867  0.0882505173323267  0.17252884221412051  1.0000
  H   H10       1.0  0.8620596908876477  0.8274758957273108  0.9117531249299021  1.0000
  H   H11       1.0  0.36205674767020213  0.9117536662394274  0.8274609129857071  1.0000
  H   H12       1.0  0.137939799572429  0.17252501478362356  0.08825092220381953  1.0000
  H   H13       1.0  0.46404298286982737  0.27389648382659  0.2984302761437618  1.0000
  H   H14       1.0  0.03595200657615999  0.7015738508508776  0.7261049370643917  1.0000
  H   H15       1.0  0.5359592946532387  0.7261099193343344  0.70156246355306  1.0000
  H   H16       1.0  0.964041542135561  0.2984281669274226  0.2738964752747605  1.0000
  C   C1        1.0  0.031074650291657194  0.42468035236709767  0.49662939901823944  1.0000
  C   C2        1.0  0.46892683816665937  0.5033709701937924  0.5753176837499226  1.0000
  C   C3        1.0  0.9689249760917987  0.5753194463957813  0.5033738188589824  1.0000
  C   C4        1.0  0.5310753817783648  0.4966266043489399  0.4246846198145989  1.0000
  C   C5        1.0  0.16853466095702876  0.2334896547098708  0.4453901146632973  1.0000
  C   C6        1.0  0.3314619626486958  0.5546109056097493  0.7665090822092469  1.0000
  C   C7        1.0  0.8314672861159167  0.7665101391351641  0.5546127783806869  1.0000
  C   C8        1.0  0.6685348623174364  0.4453833417895652  0.23349047663532474  1.0000
  C   C9        1.0  0.2810904334321335  0.1322872670369861  0.3729914556631543  1.0000
  C   C10       1.0  0.21890892255429856  0.6270124104239017  0.86771264248371  1.0000
  C   C11       1.0  0.7189156082503415  0.8677169513831375  0.6270108976397424  1.0000
  C   C12       1.0  0.7810874915657565  0.3729851596381266  0.13228619702974243  1.0000
  C   C13       1.0  0.23717947486480986  0.9946884557159946  0.3697152489655694  1.0000
  C   C14       1.0  0.2628212853430654  0.6302862324498831  0.005311275577014366  1.0000
  C   C15       1.0  0.7628226071062089  0.005310222187148399  0.6302857457883705  1.0000
  C   C16       1.0  0.7371775894911038  0.3697102377215415  0.9946906859808566  1.0000
  C   C17       1.0  0.47061665186729573  0.9302026266670821  0.230819658312548  1.0000
  C   C18       1.0  0.02938600292659287  0.7691825735659708  0.06980074257035804  1.0000
  C   C19       1.0  0.52938166799494  0.06979824436451311  0.7691738609023988  1.0000
  C   C20       1.0  0.9706162190690506  0.230815009364413  0.9302036990612451  1.0000
  C   C21       1.0  0.5229693476543246  0.06438679454345221  0.22899243336907202  1.0000
  C   C22       1.0  0.9770311782515648  0.7710119481284322  0.9356143986370213  1.0000
  C   C23       1.0  0.47702801459237776  0.9356218335616336  0.7710004764401432  1.0000
  C   C24       1.0  0.02296728573652729  0.22898784470571346  0.06438684358973752  1.0000
  C   C25       1.0  0.4271015220661241  0.16745227030234128  0.2996118586821055  1.0000
  C   C26       1.0  0.07289622295621712  0.7003930831689188  0.8325479771049729  1.0000
  C   C27       1.0  0.5728982351141666  0.8325463957433359  0.7003851847709159  1.0000
  C   C28       1.0  0.9271003332390748  0.29960340030800126  0.16745644735321727  1.0000
  N   N1        1.0  0.9583253763394738  0.3070957821665345  0.5728678620323607  1.0000
  N   N2        1.0  0.5416752467281611  0.4271338626532001  0.6929057730454107  1.0000
  N   N3        1.0  0.04167670665685818  0.692902899930438  0.42713420175512345  1.0000
  N   N4        1.0  0.4583266993194783  0.5728659269980058  0.3070960509650362  1.0000
  N   N5        1.0  0.046773742130376696  0.1833921960930951  0.5413084456512041  1.0000
  N   N6        1.0  0.4532251470235664  0.45869361300373873  0.8166087634288318  1.0000
  N   N7        1.0  0.9532293652873205  0.8166075952930214  0.4586942849761685  1.0000
  N   N8        1.0  0.5467737267852897  0.5413028529738639  0.1833921290955018  1.0000
  N   N9        1.0  0.16411644223723704  0.3837322253413689  0.4147327437179413  1.0000
  N   N10       1.0  0.33588299005759126  0.58526784455227  0.6162676822331151  1.0000
  N   N11       1.0  0.8358863902577626  0.6162697769593919  0.5852684383218119  1.0000
  N   N12       1.0  0.6641161566233434  0.4147264021230371  0.3837326208117561  1.0000
  N   N13       1.0  0.3285290746293796  0.8970361891702509  0.29935920382848036  1.0000
  N   N14       1.0  0.1714744864080089  0.7006433840514249  0.10296216032611483  1.0000
  N   N15       1.0  0.6714692513847068  0.1029647070242987  0.7006407295877041  1.0000
  N   N16       1.0  0.8285275935123907  0.2993552854640669  0.8970366963607573  1.0000
