data_image0
_chemical_formula_structural       Zn4H18C32O13
_chemical_formula_sum              "Zn4 H18 C32 O13"
_cell_length_a       13.255347930606353
_cell_length_b       13.061472095803428
_cell_length_c       18.12827981570285
_cell_angle_alpha    71.95816548747527
_cell_angle_beta     68.70930658628028
_cell_angle_gamma    88.5544729474807

_space_group_name_H-M_alt    "P 1"
_space_group_IT_number       1

loop_
  _space_group_symop_operation_xyz
  'x, y, z'

loop_
  _atom_site_type_symbol
  _atom_site_label
  _atom_site_symmetry_multiplicity
  _atom_site_fract_x
  _atom_site_fract_y
  _atom_site_fract_z
  _atom_site_occupancy
  Zn  Zn1       1.0  0.5609631552091938  0.5735952591349472  0.5541838348963141  1.0000
  Zn  Zn2       1.0  0.6099690629149493  0.43639466110827374  0.4286577724545424  1.0000
  Zn  Zn3       1.0  0.43368296423007274  0.5963811626100223  0.42586410711203376  1.0000
  Zn  Zn4       1.0  0.3806758338887802  0.3943844049659687  0.5949215505943144  1.0000
  H   H1        1.0  0.24400422875338276  0.32565759414844564  0.12100123139094884  1.0000
  H   H2        1.0  0.4427381202446199  0.49213884203803093  0.20639655518937172  1.0000
  H   H3        1.0  0.7557024185600696  0.66073290128773  0.884725542509436  1.0000
  H   H4        1.0  0.20824259761779018  0.28795290544459107  0.008423014811938937  1.0000
  H   H5        1.0  0.2574408624619053  0.316445842513943  0.8562233555303322  1.0000
  H   H6        1.0  0.5350059642610958  0.531269861983688  0.7956462543353312  1.0000
  H   H7        1.0  0.3575243700994761  0.4123224922691762  0.16930822551778138  1.0000
  H   H8        1.0  0.6326912810243428  0.5908862902106619  0.8347371288046972  1.0000
  H   H9        1.0  0.1109859487138181  0.5611557623306992  0.4309043466740832  1.0000
  H   H10       1.0  0.7595855511593966  0.6352636164650958  0.1524218380885217  1.0000
  H   H11       1.0  0.8049325776818038  0.6736898266397376  0.9996346558208699  1.0000
  H   H12       1.0  0.5493014054477569  0.11476934180925719  0.41772954268559204  1.0000
  H   H13       1.0  0.49598434344586206  0.8915100982342067  0.5602187894427432  1.0000
  H   H14       1.0  0.45000217671205434  0.051537147878917694  0.6104025625875948  1.0000
  H   H15       1.0  0.5319059145571003  0.9484692928410678  0.3733708858680984  1.0000
  H   H16       1.0  0.8805817224186467  0.5317880279101671  0.5714312283893079  1.0000
  H   H17       1.0  0.9540631343250183  0.5287697160086893  0.38982886307611153  1.0000
  H   H18       1.0  0.0377328566303987  0.4784584269246253  0.6233251091390316  1.0000
  C   C1        1.0  0.4886330098734391  0.22093352025220264  0.5305963182726998  1.0000
  C   C2        1.0  0.609377776324024  0.5750908810984116  0.9016655855806947  1.0000
  C   C3        1.0  0.6784939307432153  0.614631482228951  0.9292900080674686  1.0000
  C   C4        1.0  0.510320693896432  0.7811333175732924  0.45686682016665264  1.0000
  C   C5        1.0  0.6523426445226832  0.5961407637630529  0.016103195508627252  1.0000
  C   C6        1.0  0.5496093080425836  0.5393573791722447  0.07474285354857807  1.0000
  C   C7        1.0  0.7264565977663081  0.6314757155670139  0.045243609831715034  1.0000
  C   C8        1.0  0.7014157251819525  0.6115813171262943  0.12948542841873942  1.0000
  C   C9        1.0  0.5224884723843886  0.5286828483413473  0.15987311282380293  1.0000
  C   C10       1.0  0.5212434247875349  0.8998801618109977  0.43714456039827354  1.0000
  C   C11       1.0  0.5116639641971403  0.9453595211524545  0.496658114911945  1.0000
  C   C12       1.0  0.30664120520004456  0.3566563315991117  0.8778702654139963  1.0000
  C   C13       1.0  0.4861478810029994  0.1030269592004629  0.5451708356341527  1.0000
  C   C14       1.0  0.5184465749103353  0.0601427490215443  0.48229149848740605  1.0000
  C   C15       1.0  0.0918412947194085  0.5084232796019775  0.5576399610194329  1.0000
  C   C16       1.0  0.781920347445805  0.5204577941626238  0.467992164187649  1.0000
  C   C17       1.0  0.052794170537538286  0.537785748012439  0.4956046879810216  1.0000
  C   C18       1.0  0.8997370489252245  0.5319337819910216  0.4508522737757092  1.0000
  C   C19       1.0  0.9385199060280413  0.5352062469864549  0.5095249395621337  1.0000
  C   C20       1.0  0.20976884478406527  0.5044668188304086  0.5397744985989306  1.0000
  C   C21       1.0  0.567527953263358  0.5446589329451258  0.2779948394686897  1.0000
  C   C22       1.0  0.4274401426525216  0.4470327515260095  0.7271924104033475  1.0000
  C   C23       1.0  0.4645961787155527  0.4781461674241712  0.844091402236444  1.0000
  C   C24       1.0  0.39939796035739045  0.42695759807384803  0.8182381364051494  1.0000
  C   C25       1.0  0.5970307553284684  0.5623724242516914  0.18708432537810182  1.0000
  C   C26       1.0  0.2801268072692764  0.3412286440510356  0.9616764325721264  1.0000
  C   C27       1.0  0.44071694618883567  0.46228478175394366  0.9295324819597681  1.0000
  C   C28       1.0  0.3450196940552317  0.39339365483874633  0.9893110484880906  1.0000
  C   C29       1.0  0.5094784200805834  0.5115022751471371  0.9584448972364754  1.0000
  C   C30       1.0  0.47901546026040615  0.4937958343707792  0.04536068126768815  1.0000
  C   C31       1.0  0.38111692503214567  0.42704342727315475  0.1024770574867162  1.0000
  C   C32       1.0  0.3172630647262196  0.3781168340198916  0.07582745310280371  1.0000
  O   O1        1.0  0.4957765598265169  0.49871480731138007  0.5014848790635611  1.0000
  O   O2        1.0  0.6391988895729027  0.5080640745972785  0.3084946061152182  1.0000
  O   O3        1.0  0.36939890840944395  0.3927000576896731  0.7067156573537404  1.0000
  O   O4        1.0  0.4733216461433827  0.5670190049673138  0.3185286738251207  1.0000
  O   O5        1.0  0.5075070815343138  0.5175278904038264  0.6763491297470595  1.0000
  O   O6        1.0  0.7187764378512895  0.5635330129149593  0.5197874496071364  1.0000
  O   O7        1.0  0.23589020295844423  0.4331293490859879  0.5946832645594925  1.0000
  O   O8        1.0  0.5588781171198178  0.2827584330411952  0.4621237026087429  1.0000
  O   O9        1.0  0.4867978356592317  0.7461413711516939  0.4057235149603713  1.0000
  O   O10       1.0  0.418536104183552  0.2496006995262547  0.5889856914789604  1.0000
  O   O11       1.0  0.5242773721597658  0.7236313472667889  0.5230769429238791  1.0000
  O   O12       1.0  0.7541997456751588  0.466697810754681  0.42901594631455  1.0000
  O   O13       1.0  0.2746647589811957  0.5711171894610273  0.4713228150361033  1.0000
