data_image0
_chemical_formula_structural       Li2P4H26C24O12
_chemical_formula_sum              "Li2 P4 H26 C24 O12"
_cell_length_a       5.372163969398485
_cell_length_b       8.501031540106348
_cell_length_c       15.179785506186139
_cell_angle_alpha    79.87751376229872
_cell_angle_beta     90.09237096251606
_cell_angle_gamma    89.54078285625974

_space_group_name_H-M_alt    "P 1"
_space_group_IT_number       1

loop_
  _space_group_symop_operation_xyz
  'x, y, z'

loop_
  _atom_site_type_symbol
  _atom_site_label
  _atom_site_symmetry_multiplicity
  _atom_site_fract_x
  _atom_site_fract_y
  _atom_site_fract_z
  _atom_site_occupancy
  Li  Li1       1.0  0.7516093995172923  0.9942208087841141  0.9999482254852411  1.0000
  Li  Li2       1.0  0.2483869036490631  0.005778772772664801  5.183814658239955e-05  1.0000
  P   P1        1.0  0.9914098639067176  0.7777027330896119  0.8807063748880994  1.0000
  P   P2        1.0  0.0085901475055721  0.22229563845932893  0.1192931381269915  1.0000
  P   P3        1.0  0.5164463085069002  0.6978542917061717  0.11568173040866012  1.0000
  P   P4        1.0  0.4835481684406561  0.30214649635104257  0.884319536679719  1.0000
  H   H1        1.0  0.6760387832837225  0.6108602990659621  0.8953772063607277  1.0000
  H   H2        1.0  0.3239593423422704  0.3891428584756726  0.10462183575874207  1.0000
  H   H3        1.0  0.8256631057123017  0.5263965158607534  0.10329405494792353  1.0000
  H   H4        1.0  0.1743332363858627  0.4735994835231453  0.8967070245595965  1.0000
  H   H5        1.0  0.2650783896527784  0.6151072577148754  0.0068840090603856895  1.0000
  H   H6        1.0  0.7349123354378976  0.3848911474547949  0.9931161906144582  1.0000
  H   H7        1.0  0.7920125141113916  0.7030508906602152  0.7131410275069854  1.0000
  H   H8        1.0  0.2079894473338229  0.296946290472036  0.286861232910482  1.0000
  H   H9        1.0  0.9374512171483931  0.7695176242339486  0.5561322230772989  1.0000
  H   H10       1.0  0.0625376366929657  0.23048676456020445  0.44386804504534894  1.0000
  H   H11       1.0  0.3192823191181446  0.9307831287905588  0.5195688822671302  1.0000
  H   H12       1.0  0.680704632060376  0.06922126083036771  0.4804300745391856  1.0000
  H   H13       1.0  0.5525376042856321  0.0307268604197475  0.6415256217760898  1.0000
  H   H14       1.0  0.4474641859753632  0.9692714942186814  0.3584712516963791  1.0000
  H   H15       1.0  0.4047530445885457  0.9662078760329397  0.7979862352639984  1.0000
  H   H16       1.0  0.5952580939011298  0.0337904530266329  0.20201192697818732  1.0000
  H   H17       1.0  0.6906871305308471  0.4984444035490016  0.2809904428133764  1.0000
  H   H18       1.0  0.3093129015171314  0.5015539706805614  0.7190097286782022  1.0000
  H   H19       1.0  0.5165022247972716  0.44814775545374647  0.4342671914817587  1.0000
  H   H20       1.0  0.48350716015851  0.5518577682652223  0.5657348709341008  1.0000
  H   H21       1.0  0.13869026270183582  0.5973821908531747  0.4697610273908879  1.0000
  H   H22       1.0  0.8613209714479879  0.4026257165801113  0.530240791122182  1.0000
  H   H23       1.0  0.9338945693321821  0.7953719124394072  0.35047183763165185  1.0000
  H   H24       1.0  0.06610735318121641  0.20462885086572413  0.6495294069101123  1.0000
  H   H25       1.0  0.10313665159924308  0.8419862790039973  0.19623462909785874  1.0000
  H   H26       1.0  0.8968596698632326  0.15800971769927233  0.8037657919331664  1.0000
  C   C1        1.0  0.08978249040561082  0.8292756023118959  0.7658575704607601  1.0000
  C   C2        1.0  0.9102231464524382  0.17072275603423046  0.23414324259734806  1.0000
  C   C3        1.0  0.9595627877011667  0.7736660157454481  0.6974366759804982  1.0000
  C   C4        1.0  0.040442781151107  0.22633352950997934  0.3025620425150706  1.0000
  C   C5        1.0  0.04223241686893431  0.8108641827766762  0.6091517113819904  1.0000
  C   C6        1.0  0.957762053979913  0.18913780023170557  0.3908494365733192  1.0000
  C   C7        1.0  0.2559984274666078  0.9023903435656494  0.5887337786636737  1.0000
  C   C8        1.0  0.7439959256668232  0.09761042840781904  0.4112635375657591  1.0000
  C   C9        1.0  0.38624743268890427  0.9583204679231228  0.6567466933127479  1.0000
  C   C10       1.0  0.6137525726246764  0.04167909857698502  0.3432527005692735  1.0000
  C   C11       1.0  0.30348248892769897  0.9224201159435668  0.7450393376566424  1.0000
  C   C12       1.0  0.6965248977051033  0.07757583022846151  0.254957757172015  1.0000
  C   C13       1.0  0.4070551950579429  0.6726287505153509  0.22886703861491506  1.0000
  C   C14       1.0  0.5929448369900358  0.32736962371421907  0.7711331328766635  1.0000
  C   C15       1.0  0.5239574585631459  0.5624414849606938  0.2961537015759887  1.0000
  C   C16       1.0  0.4760425673861234  0.43755808422004355  0.7038463507825201  1.0000
  C   C17       1.0  0.4266879095542322  0.5354132513152479  0.3825918758479717  1.0000
  C   C18       1.0  0.5733177648160392  0.4645898948774274  0.6174104361073348  1.0000
  C   C19       1.0  0.21463034826033578  0.61883240697442  0.40216031527901214  1.0000
  C   C20       1.0  0.7853753115729561  0.3811695415864592  0.5978414573328693  1.0000
  C   C21       1.0  0.09917399473030028  0.7299198317749217  0.3354483900153796  1.0000
  C   C22       1.0  0.9008260870273261  0.2700809403988558  0.6645535186395366  1.0000
  C   C23       1.0  0.1943048078699121  0.7567470722908994  0.24870671889752322  1.0000
  C   C24       1.0  0.8056933688853222  0.24325011317552744  0.7512935773637823  1.0000
  O   O1        1.0  0.708434132513581  0.7283808790471368  0.8765045541258732  1.0000
  O   O2        1.0  0.2915677074570624  0.2716198735354994  0.12349405650993361  1.0000
  O   O3        1.0  0.14598417634438482  0.6312942873201807  0.9254449730935406  1.0000
  O   O4        1.0  0.8540158641418643  0.3687064794923458  0.07455561860839313  1.0000
  O   O5        1.0  0.011107159701666107  0.9204336404536592  0.9269532259503637  1.0000
  O   O6        1.0  0.9888928395132053  0.07956712099761631  0.073046048798588  1.0000
  O   O7        1.0  0.7931162568376139  0.6381695789885669  0.11969168126928052  1.0000
  O   O8        1.0  0.20688188474495212  0.36182640616543443  0.8803074171721121  1.0000
  O   O9        1.0  0.3570431642096565  0.5785749920695977  0.07068105348160002  1.0000
  O   O10       1.0  0.6429513310340269  0.42142221113410744  0.9293205710059951  1.0000
  O   O11       1.0  0.49229604325549303  0.8680569546301201  0.06845422466847141  1.0000
  O   O12       1.0  0.5077003194783599  0.13193904743440038  0.9315475133155362  1.0000
