data_image0
_chemical_formula_structural       In4H16C32O20
_chemical_formula_sum              "In4 H16 C32 O20"
_cell_length_a       12.448069765743682
_cell_length_b       12.686418604538016
_cell_length_c       12.68641054126275
_cell_angle_alpha    76.0701596253868
_cell_angle_beta     60.619177067397146
_cell_angle_gamma    60.61849482802334

_space_group_name_H-M_alt    "P 1"
_space_group_IT_number       1

loop_
  _space_group_symop_operation_xyz
  'x, y, z'

loop_
  _atom_site_type_symbol
  _atom_site_label
  _atom_site_symmetry_multiplicity
  _atom_site_fract_x
  _atom_site_fract_y
  _atom_site_fract_z
  _atom_site_occupancy
  In  In1       1.0  0.18596960162032852  0.9999988597565235  0.6280468249837412  1.0000
  In  In2       1.0  0.5640235715076827  0.8719652224933939  0.4999975196514868  1.0000
  In  In3       1.0  0.8140275088542097  7.432488274838719e-06  0.3719443344775399  1.0000
  In  In4       1.0  0.9359763359644475  0.1280494352748536  0.4999949448298366  1.0000
  H   H1        1.0  0.374993198773751  0.06541699993957195  0.43458747617836485  1.0000
  H   H2        1.0  0.5596170715470591  0.06537457951144879  0.5654754500897355  1.0000
  H   H3        1.0  0.8749955933351642  0.9345731553664577  0.565429229039573  1.0000
  H   H4        1.0  0.1903829157127815  0.9345233406442335  0.4346295395260498  1.0000
  H   H5        1.0  0.1256957032840589  9.13404228685491e-07  1.4467861220000001e-06  1.0000
  H   H6        1.0  0.8756916840869735  0.5000034649845732  0.499998583727745  1.0000
  H   H7        1.0  0.6243134042389896  0.4999913341691311  0.5000029270791159  1.0000
  H   H8        1.0  0.8742998126052512  2.2077109277581428e-06  1.0976989201999984e-06  1.0000
  H   H9        1.0  0.546546130913278  0.941060934675825  0.8132717780662873  1.0000
  H   H10       1.0  0.10981832142543624  0.6867261039303545  0.44105731667549  1.0000
  H   H11       1.0  0.3008680225594134  0.058928706265824415  0.18673523266290454  1.0000
  H   H12       1.0  0.2376099987261426  0.3132624165982636  0.5589402804167279  1.0000
  H   H13       1.0  0.2034559252578488  0.6867223727402634  0.5589438140593259  1.0000
  H   H14       1.0  0.5123910498542655  0.9410641742584288  0.18673790210743144  1.0000
  H   H15       1.0  0.44913965318597354  0.31326817438441174  0.4410574261581742  1.0000
  H   H16       1.0  0.6401844354001441  0.058936611141248825  0.8132682286100205  1.0000
  C   C1        1.0  0.3460303263558587  0.948233731503436  0.7794765596810579  1.0000
  C   C2        1.0  0.8755104426597526  0.7205298295693866  0.4482369186048416  1.0000
  C   C3        1.0  0.07373034279456193  0.051770548419639816  0.2205163055885038  1.0000
  C   C4        1.0  0.04426466819686684  0.27947284660628213  0.5517744062192663  1.0000
  C   C5        1.0  0.4039629201246627  0.7205272404838184  0.5517727476119845  1.0000
  C   C6        1.0  0.7057380124292437  0.9482268337497215  0.2205220012065112  1.0000
  C   C7        1.0  0.6762696971021213  0.2794797166899132  0.4482245456038285  1.0000
  C   C8        1.0  0.8744918224557026  0.0517633081711964  0.779475660023884  1.0000
  C   C9        1.0  0.3364537352960609  0.9722098522524832  0.8945079776661515  1.0000
  C   C10       1.0  0.9809582863673398  0.6054907667451277  0.4722151798781979  1.0000
  C   C11       1.0  0.20316930959021565  0.027794124520369192  0.1054854466367914  1.0000
  C   C12       1.0  0.05866596811320346  0.3945067378628765  0.5277831351952854  1.0000
  C   C13       1.0  0.41355636436880155  0.6054900576782956  0.5277878707258807  1.0000
  C   C14       1.0  0.6913355503501037  0.9722100782901182  0.10549241327355928  1.0000
  C   C15       1.0  0.5468337698274154  0.39451300555590757  0.4722124818609643  1.0000
  C   C16       1.0  0.7690349697177511  0.02779026666450343  0.8945101162854882  1.0000
  C   C17       1.0  0.21314725254976705  3.093152649607681e-06  0.9999961418230614  1.0000
  C   C18       1.0  0.9631486539527926  0.4999981852643101  0.5000010454750524  1.0000
  C   C19       1.0  0.536860121035012  0.49999892758608416  0.5000013698697998  1.0000
  C   C20       1.0  0.7868484839795329  0.9999999051557684  4.096580795499999e-06  1.0000
  C   C21       1.0  0.44998819344073154  0.9690334448470994  0.8955543293951677  1.0000
  C   C22       1.0  0.09554455494293283  0.6044397292572655  0.4690362942565969  1.0000
  C   C23       1.0  0.31457676808687307  0.030962584191975364  0.10444568330735389  1.0000
  C   C24       1.0  0.16902986176645393  0.39554793844096287  0.5309579233447651  1.0000
  C   C25       1.0  0.3000157934790694  0.604442038164706  0.5309651550975473  1.0000
  C   C26       1.0  0.5809702234293469  0.9690384054534961  0.1044507015054279  1.0000
  C   C27       1.0  0.43542907782050827  0.3955548820177129  0.4690376553252378  1.0000
  C   C28       1.0  0.6544515391970408  0.03096486207520147  0.895557904097899  1.0000
  C   C29       1.0  0.4404251661807376  0.9999975252601135  1.4769997135999917e-06  1.0000
  C   C30       1.0  0.19043736868611205  0.4999931977760925  0.49999694116446153  1.0000
  C   C31       1.0  0.3095763127266196  0.49999621224126417  0.5000020251905681  1.0000
  C   C32       1.0  0.5595649270804302  3.3366740841330085e-07  7.4326949075e-06  1.0000
  O   O1        1.0  0.37499572319540425  0.003407416082403375  0.496588716949482  1.0000
  O   O2        1.0  0.6215251047115798  0.0035024784320185714  0.5033462305074821  1.0000
  O   O3        1.0  0.8749978336110613  0.9965774667504806  0.5034234653865113  1.0000
  O   O4        1.0  0.12847140241228075  0.9966488289517628  0.49650637219274074  1.0000
  O   O5        1.0  0.23231714799607048  0.995465514361449  0.7726969172368428  1.0000
  O   O6        1.0  0.7549992612805667  0.7273269258969961  0.49551214898564677  1.0000
  O   O7        1.0  0.0005121357320022216  0.0044908781807678115  0.22729920169736323  1.0000
  O   O8        1.0  0.9778040314483293  0.27268967275259837  0.5045167326554535  1.0000
  O   O9        1.0  0.5176764450355835  0.7273140225718394  0.504530736942378  1.0000
  O   O10       1.0  0.7721894987760006  0.9954881119087703  0.227308948451018  1.0000
  O   O11       1.0  0.7494971900558768  0.2726900639260278  0.4955049149407316  1.0000
  O   O12       1.0  0.9949880765369842  0.004493450710889138  0.7726881739732506  1.0000
  O   O13       1.0  0.46497664249025666  0.8854607712451853  0.6991259446810077  1.0000
  O   O14       1.0  0.91411104205244  0.8008624315988371  0.3854283041187471  1.0000
  O   O15       1.0  0.049511093623991115  0.11458109778040179  0.30085126863235695  1.0000
  O   O16       1.0  0.1003943346735597  0.1991387617164975  0.614578224651339  1.0000
  O   O17       1.0  0.2850230473063958  0.8008622303650486  0.6145585004694426  1.0000
  O   O18       1.0  0.6496082360256422  0.8854196341983569  0.3008613612314194  1.0000
  O   O19       1.0  0.7004918576994683  0.19915542593422947  0.38540559560821913  1.0000
  O   O20       1.0  0.8358902169483143  0.1145684451843749  0.6991356685591015  1.0000
