data_image0
_chemical_formula_structural       Cd4H44C68N12O16
_chemical_formula_sum              "Cd4 H44 C68 N12 O16"
_cell_length_a       7.10039923
_cell_length_b       12.185627917691152
_cell_length_c       17.733
_cell_angle_alpha    90.0
_cell_angle_beta     90.0
_cell_angle_gamma    97.61978468702368

_space_group_name_H-M_alt    "P 1"
_space_group_IT_number       1

loop_
  _space_group_symop_operation_xyz
  'x, y, z'

loop_
  _atom_site_type_symbol
  _atom_site_label
  _atom_site_symmetry_multiplicity
  _atom_site_fract_x
  _atom_site_fract_y
  _atom_site_fract_z
  _atom_site_occupancy
  Cd  Cd1       1.0  0.7245834782522922  0.8405023762039221  0.8977894321321855  1.0000
  Cd  Cd2       1.0  0.7754122070358351  0.6594984684704954  0.3977849207691904  1.0000
  Cd  Cd3       1.0  0.2754067290234872  0.1594987388789093  0.1022116957085686  1.0000
  Cd  Cd4       1.0  0.2245949006980865  0.3405026466123359  0.6022116957085686  1.0000
  H   H1        1.0  0.4926919907165015  0.6413796144159676  0.7996830767495596  1.0000
  H   H2        1.0  0.0073106279845802985  0.8586212302584499  0.2996808210680655  1.0000
  H   H3        1.0  0.5073075099242104  0.3586190168173715  0.2003152314893129  1.0000
  H   H4        1.0  0.9926862443249931  0.1413782289247223  0.7003152314893129  1.0000
  H   H5        1.0  0.069717124562807  0.7474631700867036  0.8220250380646237  1.0000
  H   H6        1.0  0.4302842741786463  0.7525385025375471  0.3220210906220018  1.0000
  H   H7        1.0  0.9302815329420471  0.2525379449961278  0.1779777815372441  1.0000
  H   H8        1.0  0.5697129749546974  0.2474626125452843  0.6779817289798657  1.0000
  H   H9        1.0  0.29910813945130604  0.7067636403499832  0.8987526081317301  1.0000
  H   H10       1.0  0.20088893525205262  0.7932314086756307  0.3987497885298623  1.0000
  H   H11       1.0  0.700879251081446  0.2932374747328481  0.10124908362939071  1.0000
  H   H12       1.0  0.7991208008130146  0.2067688784573676  0.6012479557886437  1.0000
  H   H13       1.0  0.12522356159463038  0.9072343044593012  0.9820600011278415  1.0000
  H   H14       1.0  0.3747706963657081  0.5927607445663128  0.4820560536852199  1.0000
  H   H15       1.0  0.8747773474175987  0.092764326774045  0.017942254553659602  1.0000
  H   H16       1.0  0.6252231707889565  0.4072378866670334  0.5179456380759007  1.0000
  H   H17       1.0  0.8036280412807743  0.6446102746481372  0.1661986127558777  1.0000
  H   H18       1.0  0.6963787225675659  0.8553897420764471  0.6661941013928825  1.0000
  H   H19       1.0  0.1963720245955898  0.35539084043469416  0.8337996954829948  1.0000
  H   H20       1.0  0.30363477229994373  0.1446146848056955  0.3338013872441223  1.0000
  H   H21       1.0  0.5407339683027105  0.577217642429332  0.13829132126543442  1.0000
  H   H22       1.0  0.9592732618577243  0.922778234546108  0.6382868099024392  1.0000
  H   H23       1.0  0.4592771761338669  0.4227826447036662  0.861708114814185  1.0000
  H   H24       1.0  0.040724641999588605  0.0772195687374051  0.36170980657531265  1.0000
  H   H25       1.0  0.218432763243392  0.4970298735555048  0.09621214684486293  1.0000
  H   H26       1.0  0.28156914437840197  0.002966544236763  0.5962048158800003  1.0000
  H   H27       1.0  0.7815741560786551  0.5029704135774935  0.9037923645181322  1.0000
  H   H28       1.0  0.7184277279311715  0.9970329149464091  0.40379292843850584  1.0000
  H   H29       1.0  0.15027905089142726  0.5920859654558015  0.7404821519201477  1.0000
  H   H30       1.0  0.3497255414168166  0.9079173630681012  0.240477076636779  1.0000
  H   H31       1.0  0.8497294652140113  0.4079151496270299  0.259522923363221  1.0000
  H   H32       1.0  0.6502662626423614  0.0920845799645562  0.7595251790447222  1.0000
  H   H33       1.0  0.13117326248682562  0.7280195963060194  0.1928782495911605  1.0000
  H   H34       1.0  0.3688337697406752  0.771982076318224  0.6928782495911605  1.0000
  H   H35       1.0  0.8688229550987714  0.2719831746764712  0.807118930806972  1.0000
  H   H36       1.0  0.6311786935790878  0.2280240064635777  0.3071223143292201  1.0000
  H   H37       1.0  0.09281896819218358  0.5607828383266877  0.9721321829357663  1.0000
  H   H38       1.0  0.40718731038778344  0.9392155224982446  0.4721248519709036  1.0000
  H   H39       1.0  0.9071786577649236  0.4392199326558028  0.0278745841087229  1.0000
  H   H40       1.0  0.5928173574268812  0.060787248484246  0.5278728923476024  1.0000
  H   H41       1.0  0.2995299225016126  0.8675788194567602  0.0996187898268772  1.0000
  H   H42       1.0  0.2004761676664728  0.632418713418339  0.5996187898268772  1.0000
  H   H43       1.0  0.7004699549628698  0.1324214676762381  0.9003812101731229  1.0000
  H   H44       1.0  0.7995329136746109  0.3675848855139776  0.4003834658546239  1.0000
  C   C1        1.0  0.6372808257055527  0.6283634151566346  0.785417019116899  1.0000
  C   C2        1.0  0.8627185194614599  0.8716349456682906  0.2854125077539038  1.0000
  C   C3        1.0  0.362716889739886  0.3716335601770453  0.21458467264422154  1.0000
  C   C4        1.0  0.13727393932169465  0.1283636855650485  0.714584108723848  1.0000
  C   C5        1.0  0.5925045474378764  0.6817305772747416  0.0390531776913079  1.0000
  C   C6        1.0  0.9074998659795386  0.8182652997006983  0.5390509220098139  1.0000
  C   C7        1.0  0.40749429847885926  0.3182713657579157  0.9609445666271911  1.0000
  C   C8        1.0  0.09250526814722801  0.18173333153264076  0.4609445666271911  1.0000
  C   C9        1.0  0.8566063990718292  0.5289630705043749  0.7190774262674111  1.0000
  C   C10       1.0  0.6434005531883997  0.9710377741700427  0.2190712231432954  1.0000
  C   C11       1.0  0.1433971382715384  0.4710347327791382  0.2809265211752106  1.0000
  C   C12       1.0  0.3565892772636162  0.0289616850131296  0.7809287768567046  1.0000
  C   C13       1.0  0.6682529148402525  0.5427550587533361  0.7363395928494896  1.0000
  C   C14       1.0  0.8317513101652736  0.9572399902722779  0.2363339536457474  1.0000
  C   C15       1.0  0.3317498688555816  0.45723943273086576  0.2636632267523852  1.0000
  C   C16       1.0  0.16824077179411032  0.0427569850614091  0.7636626628320116  1.0000
  C   C17       1.0  0.9587677446972978  0.6865980943185405  0.798514633733717  1.0000
  C   C18       1.0  0.5412335740768839  0.8134027503558698  0.2985084306096013  1.0000
  C   C19       1.0  0.041233352726813194  0.3134013648646317  0.2014887497885312  1.0000
  C   C20       1.0  0.4587594499419226  0.1865983647269545  0.7014938250719  1.0000
  C   C21       1.0  0.7892313643925775  0.7307211965975497  0.0592669035132261  1.0000
  C   C22       1.0  0.7107744573963474  0.7692746803778903  0.5592623921502309  1.0000
  C   C23       1.0  0.21076588474075925  0.2692799184852817  0.9407314047256535  1.0000
  C   C24       1.0  0.2892333050615576  0.2307231229056228  0.44073253256640044  1.0000
  C   C25       1.0  0.3467037887509221  0.6730453835701198  0.951394575085999  1.0000
  C   C26       1.0  0.1532957258717005  0.826948009555835  0.4513906276433772  1.0000
  C   C27       1.0  0.6532894236797661  0.3269565594625377  0.0486071166751287  1.0000
  C   C28       1.0  0.8467104398028058  0.17304896577784487  0.5486071166751287  1.0000
  C   C29       1.0  0.05956497851371269  0.8499857135435532  0.0247002763209849  1.0000
  C   C30       1.0  0.4404316298775513  0.650013475231205  0.5246980206394838  1.0000
  C   C31       1.0  0.9404310506599958  0.1500162294891041  0.9752985958382681  1.0000
  C   C32       1.0  0.559569090722789  0.3499843280523081  0.4753014154401427  1.0000
  C   C33       1.0  0.8775355372390194  0.7025833216641288  0.1258365758754891  1.0000
  C   C34       1.0  0.6224718813332972  0.7974133832611443  0.6258337562736145  1.0000
  C   C35       1.0  0.12246471704922611  0.2974186213685357  0.8741622962837639  1.0000
  C   C36       1.0  0.37753766631988134  0.20258607592202785  0.3741634241245109  1.0000
  C   C37       1.0  0.4845795510426926  0.6029023020198778  0.0847905035808978  1.0000
  C   C38       1.0  0.015422591911068678  0.8970902631562439  0.584785428297522  1.0000
  C   C39       1.0  0.5154261483197191  0.3970988130629465  0.9152117521006033  1.0000
  C   C40       1.0  0.98457512353437  0.1029067121774361  0.4152117521006034  1.0000
  C   C41       1.0  0.30384034145135536  0.5579396586144227  0.0609558450346839  1.0000
  C   C42       1.0  0.19615833003540217  0.9420562183610244  0.5609518975920622  1.0000
  C   C43       1.0  0.6961653579110562  0.4420614564684087  0.9390469745671908  1.0000
  C   C44       1.0  0.8038361023549143  0.057944896721807  0.4390464106468173  1.0000
  C   C45       1.0  0.0028512516487423883  0.6026713040176332  0.751454914566061  1.0000
  C   C46       1.0  0.4971570005383868  0.8973295406567843  0.2514487114419452  1.0000
  C   C47       1.0  0.9971566992210441  0.397327327215713  0.24855016071730773  1.0000
  C   C48       1.0  0.5028332067373924  0.10267157442604709  0.7485535442395559  1.0000
  C   C49       1.0  0.06303957758011339  0.7508155389437121  0.1410128009924989  1.0000
  C   C50       1.0  0.4369643505689283  0.7491786821320758  0.6410094174702508  1.0000
  C   C51       1.0  0.9369546663983215  0.24918474818929326  0.8589866350871276  1.0000
  C   C52       1.0  0.5630455739080205  0.2508224329507556  0.3589894546889951  1.0000
  C   C53       1.0  0.23365936958868622  0.5927441855697353  0.9928021203406062  1.0000
  C   C54       1.0  0.2663424954648619  0.9072533473053638  0.4927981728979844  1.0000
  C   C55       1.0  0.7663370364087927  0.4072594133625813  0.007201263181642001  1.0000
  C   C56       1.0  0.7336598219188774  0.0927452839279752  0.5072006992612614  1.0000
  C   C57       1.0  0.15603337763180036  0.8260372647441017  0.0898781931991195  1.0000
  C   C58       1.0  0.34396905265739974  0.6739627519804826  0.5898742457564978  1.0000
  C   C59       1.0  0.8439670650683341  0.1739655062383818  0.9101240624823745  1.0000
  C   C60       1.0  0.6560352383335015  0.3260383631023487  0.4101268820842492  1.0000
  C   C61       1.0  0.4967022216703256  0.4732238321266209  0.7034246884339908  1.0000
  C   C62       1.0  0.0033000627752314995  0.0267742415653132  0.20342186883212324  1.0000
  C   C63       1.0  0.5032921117964406  0.5267706593575809  0.2965786950882503  1.0000
  C   C64       1.0  0.9966899560886662  0.9732260455676922  0.7965741837252551  1.0000
  C   C65       1.0  0.9157729846616933  0.4362202704258777  0.6718321772965654  1.0000
  C   C66       1.0  0.5842391773407272  0.0637835989148527  0.1718293576946905  1.0000
  C   C67       1.0  0.08423618616772188  0.5637775328576353  0.32817120622568313  1.0000
  C   C68       1.0  0.4157596685760083  0.9362183441178117  0.8281728979868035  1.0000
  N   N1        1.0  0.7777649218839714  0.6990239653499016  0.8156803699317692  1.0000
  N   N2        1.0  0.722239402045112  0.8009777072743417  0.3156764224891475  1.0000
  N   N3        1.0  0.22223598712825773  0.3009746658834374  0.1843207579089849  1.0000
  N   N4        1.0  0.27775925545974195  0.19902340780848957  0.684321885749732  1.0000
  N   N5        1.0  0.8815488935975537  0.8035095778509599  0.0098223650820515  1.0000
  N   N6        1.0  0.6184460380430394  0.6964879550241391  0.5098201094005503  1.0000
  N   N7        1.0  0.11844938708352971  0.1964898813322122  0.9901753792364546  1.0000
  N   N8        1.0  0.3815520542261623  0.3035106762091999  0.49017876275869543  1.0000
  N   N9        1.0  0.5212315824297917  0.7154993389941637  0.973829583262841  1.0000
  N   N10       1.0  0.9787714226161128  0.7844965379812763  0.4738273275813469  1.0000
  N   N11       1.0  0.478761253177133  0.2845009481388345  0.026169852816785508  1.0000
  N   N12       1.0  0.0212337115106536  0.2155020932520699  0.5261698528167855  1.0000
  O   O1        1.0  0.5125260789458254  0.4395535964368236  0.635556871369765  1.0000
  O   O2        1.0  0.9874809158826424  0.0604461331547625  0.13555405176789043  1.0000
  O   O3        1.0  0.4874690081684676  0.5604442068466895  0.3644453843117361  1.0000
  O   O4        1.0  0.012505254690488157  0.9395558098778948  0.8644420007894882  1.0000
  O   O5        1.0  0.3492733432200623  0.45544692135140247  0.74351322393278  1.0000
  O   O6        1.0  0.1507245276990687  0.0445503243906913  0.2435104043309053  1.0000
  O   O7        1.0  0.650724372225369  0.5445500539822774  0.2564901595894682  1.0000
  O   O8        1.0  0.8492667111244573  0.955449134792481  0.7564839564653454  1.0000
  O   O9        1.0  0.025210591563087786  0.4678835557305447  0.6161461681610589  1.0000
  O   O10       1.0  0.47480625234491214  0.0321227974596709  0.1161410928776831  1.0000
  O   O11       1.0  0.9747987676782088  0.5321150755028015  0.3838566514408157  1.0000
  O   O12       1.0  0.525190530476337  0.9678824573722977  0.8838605988834374  1.0000
  O   O13       1.0  0.8706233794670696  0.338051915118939  0.693394800654147  1.0000
  O   O14       1.0  0.629381363854023  0.1619502983221324  0.1933919810522724  1.0000
  O   O15       1.0  0.1293791263285584  0.6619475440642262  0.306607455027347  1.0000
  O   O16       1.0  0.37061832519857063  0.8380491608610396  0.8066097107088481  1.0000
