data_image0
_chemical_formula_structural       Cd2H40C50N6O12
_chemical_formula_sum              "Cd2 H40 C50 N6 O12"
_cell_length_a       9.733470110841585
_cell_length_b       10.659708851738001
_cell_length_c       11.072787527333059
_cell_angle_alpha    108.86070447947336
_cell_angle_beta     99.4300318235927
_cell_angle_gamma    96.34319783477702

_space_group_name_H-M_alt    "P 1"
_space_group_IT_number       1

loop_
  _space_group_symop_operation_xyz
  'x, y, z'

loop_
  _atom_site_type_symbol
  _atom_site_label
  _atom_site_symmetry_multiplicity
  _atom_site_fract_x
  _atom_site_fract_y
  _atom_site_fract_z
  _atom_site_occupancy
  Cd  Cd1       1.0  0.19300155038637706  0.47447261598181006  0.6487377611664724  1.0000
  Cd  Cd2       1.0  0.8069976310794899  0.5255269967693437  0.3512619608250843  1.0000
  H   H1        1.0  0.9198060798203044  0.3188867928678718  0.4988827925832026  1.0000
  H   H2        1.0  0.0801939625666321  0.6811118168790955  0.5011167501016444  1.0000
  H   H3        1.0  0.0015599216400232839  0.26885968220906153  0.6117854634238427  1.0000
  H   H4        1.0  0.9984409816679828  0.7311379245337264  0.38821389995429456  1.0000
  H   H5        1.0  0.147164243355192  0.9348501805438754  0.6624296323729337  1.0000
  H   H6        1.0  0.8528328634535143  0.06514940726732019  0.3375670664091927  1.0000
  H   H7        1.0  0.5378429541928256  0.885659722457234  0.8722158738086349  1.0000
  H   H8        1.0  0.4621529163736184  0.11433887756371061  0.12778395336108156  1.0000
  H   H9        1.0  0.6313879376725994  0.131207364903787  0.9348829644328942  1.0000
  H   H10       1.0  0.3686087938149214  0.8687902321129711  0.06511668343011212  1.0000
  H   H11       1.0  0.48472726350761514  0.27343448772057843  0.8505616300041365  1.0000
  H   H12       1.0  0.5152700148858499  0.7265661241691814  0.14943811631164278  1.0000
  H   H13       1.0  0.02273882291810737  0.6546186302274818  0.8561835067108204  1.0000
  H   H14       1.0  0.9772594976266902  0.34538198552785093  0.14381639458744638  1.0000
  H   H15       1.0  0.020996671907617764  0.7395838986228469  0.09606794237925692  1.0000
  H   H16       1.0  0.979002506343086  0.26041571986456796  0.9039326840271187  1.0000
  H   H17       1.0  0.18498116609246298  0.6648649724419186  0.24744037155093668  1.0000
  H   H18       1.0  0.8150180121582407  0.3351346460455034  0.7525602548554389  1.0000
  H   H19       1.0  0.3299620337134854  0.42832997848934434  0.9113872092259142  1.0000
  H   H20       1.0  0.6700371509675449  0.5716696285255338  0.08861160835082409  1.0000
  H   H21       1.0  0.43321636402707486  0.42125703850381757  0.11630551600610052  1.0000
  H   H22       1.0  0.5667828174387921  0.578742574247336  0.8836942059854563  1.0000
  H   H23       1.0  0.467419143735647  0.5834252438795174  0.2362204679578922  1.0000
  H   H24       1.0  0.532582125248055  0.4165743708665061  0.7637786595838277  1.0000
  H   H25       1.0  0.25207776911437213  0.21143987681731596  0.02389221700190087  1.0000
  H   H26       1.0  0.7479245355903218  0.7885597532668241  0.9761088743519435  1.0000
  H   H27       1.0  0.12412589593161973  0.9961076607672935  0.02326214038333768  1.0000
  H   H28       1.0  0.8758764055579109  0.0038919750531078994  0.9767398553853185  1.0000
  H   H29       1.0  0.045802692117099746  0.9797008631904447  0.22169259384439496  1.0000
  H   H30       1.0  0.9541987516665246  0.020299769897867696  0.7783086768161595  1.0000
  H   H31       1.0  0.1010426921091536  0.17439841609946427  0.4281137482619144  1.0000
  H   H32       1.0  0.8989577127383084  0.825602207387014  0.571886463001327  1.0000
  H   H33       1.0  0.43809753240967086  0.6573236373988607  0.5733835467383271  1.0000
  H   H34       1.0  0.5619028692226211  0.3426769918238861  0.42661756893973296  1.0000
  H   H35       1.0  0.5191568905332317  0.646160833034557  0.43777979684937657  1.0000
  H   H36       1.0  0.48084387677475604  0.35384180419142547  0.5622210829922665  1.0000
  H   H37       1.0  0.2538931006932613  0.9304114854568012  0.36889676960443285  1.0000
  H   H38       1.0  0.7461085178902921  0.0695901659738141  0.631106644174956  1.0000
  H   H39       1.0  0.6171497760383176  0.8419845427500829  0.5864084857953954  1.0000
  H   H40       1.0  0.38285098162416625  0.1580181116847115  0.41359510729069626  1.0000
  C   C1        1.0  0.2212901186379881  0.20006570964935114  0.6973049307729013  1.0000
  C   C2        1.0  0.7787090628278789  0.7999339031018025  0.30269479121865567  1.0000
  C   C3        1.0  0.3063806493332848  0.11362296641111408  0.7515981921517678  1.0000
  C   C4        1.0  0.6936173151813205  0.886375624132171  0.24839923173846745  1.0000
  C   C5        1.0  0.2526237184463156  0.9777038196576842  0.7226890578954508  1.0000
  C   C6        1.0  0.7473742460682901  0.022294770885601195  0.27730836599478437  1.0000
  C   C7        1.0  0.33663789266701366  0.8959388321582366  0.7660653318557848  1.0000
  C   C8        1.0  0.6633588452508336  0.10405875338598487  0.2339325071775846  1.0000
  C   C9        1.0  0.47349754102229713  0.9515032575360606  0.8415985424588752  1.0000
  C   C10       1.0  0.5264993781258127  0.04849533487792  0.15839963086368403  1.0000
  C   C11       1.0  0.5255816364228139  0.08784666607713379  0.8749458104993907  1.0000
  C   C12       1.0  0.4744144218042265  0.9121529293410261  0.1250525421298859  1.0000
  C   C13       1.0  0.4429563777720348  0.16783907149935118  0.8285796711958112  1.0000
  C   C14       1.0  0.5570409006214306  0.832161540390409  0.17142007511996835  1.0000
  C   C15       1.0  0.28697968158747494  0.748268390031022  0.7270964375364101  1.0000
  C   C16       1.0  0.7130200079844401  0.25172818876762193  0.27289972332557966  1.0000
  C   C17       1.0  0.09183657766676129  0.6240155071375285  0.9255897042255157  1.0000
  C   C18       1.0  0.9081617428780362  0.3759851086177974  0.0744101970727584  1.0000
  C   C19       1.0  0.09238187699908446  0.6718008821893091  0.058759807236413004  1.0000
  C   C20       1.0  0.9076174856970454  0.32819973743159636  0.9412402490443412  1.0000
  C   C21       1.0  0.18378362546078356  0.6303077540296157  0.14312614359135972  1.0000
  C   C22       1.0  0.8162165981564158  0.36969186258710346  0.8568737333826844  1.0000
  C   C23       1.0  0.27395793617408504  0.5428361617164724  0.09173679666677256  1.0000
  C   C24       1.0  0.7260424718885474  0.4571644560337376  0.9082625101816503  1.0000
  C   C25       1.0  0.26431917709093966  0.49864359618659626  0.9570892938956559  1.0000
  C   C26       1.0  0.7356801888203536  0.5013570176980336  0.04290985797027953  1.0000
  C   C27       1.0  0.38241930474404734  0.498415049299453  0.17648736779398885  1.0000
  C   C28       1.0  0.6175819610244773  0.5015845711828391  0.8235126641625425  1.0000
  C   C29       1.0  0.24688802683917294  0.3141541802114389  0.22836460022070068  1.0000
  C   C30       1.0  0.7531123747931261  0.6858464490113007  0.7716365154573666  1.0000
  C   C31       1.0  0.2177786855982831  0.20496565596949515  0.11093170552172175  1.0000
  C   C32       1.0  0.7822225769550782  0.7950339702490651  0.8890692308496282  1.0000
  C   C33       1.0  0.1462299282536819  0.08474702510947907  0.11180578939846698  1.0000
  C   C34       1.0  0.8537734153871738  0.9152526145764951  0.8881963613526762  1.0000
  C   C35       1.0  0.10282537368031798  0.07498046168364428  0.22439918145150975  1.0000
  C   C36       1.0  0.8971771122546385  0.9250201752702409  0.7756022441915318  1.0000
  C   C37       1.0  0.1316964260636055  0.18431295009875728  0.340885363171239  1.0000
  C   C38       1.0  0.8683041600141124  0.815688680257473  0.6591151823811997  1.0000
  C   C39       1.0  0.20609146261931235  0.30556010200373146  0.34291031231519736  1.0000
  C   C40       1.0  0.7939099811643118  0.6944405310845879  0.6570909583453568  1.0000
  C   C41       1.0  0.3283421271020188  0.507306093291305  0.3947036252861906  1.0000
  C   C42       1.0  0.6716574200395442  0.49269552746308437  0.6052958608689423  1.0000
  C   C43       1.0  0.4171510491275042  0.6425378536233665  0.46863005034890637  1.0000
  C   C44       1.0  0.5828505791015459  0.35746378059843653  0.5313706501860266  1.0000
  C   C45       1.0  0.426892173107511  0.8704611637031404  0.47289863094615453  1.0000
  C   C46       1.0  0.5731084065398805  0.12954047812562658  0.5271037234359284  1.0000
  C   C47       1.0  0.3619216083073765  0.9611150373907618  0.4263425563783583  1.0000
  C   C48       1.0  0.6380798386914109  0.038885589961282094  0.5736578098673702  1.0000
  C   C49       1.0  0.5649830958371851  0.9098344176201673  0.5473067862507502  1.0000
  C   C50       1.0  0.4350164448740443  0.09016721460675828  0.45269450873401945  1.0000
  N   N1        1.0  0.17547918753000857  0.5376085967874146  0.8754907046955508  1.0000
  N   N2        1.0  0.8245199939358585  0.46239101596373183  0.12450901729600611  1.0000
  N   N3        1.0  0.3225265315377611  0.4431069772515741  0.2643233720022735  1.0000
  N   N4        1.0  0.6774749154610261  0.5568936501004771  0.7356769942434552  1.0000
  N   N5        1.0  0.25806696709546634  0.4279425785174383  0.4445706320159744  1.0000
  N   N6        1.0  0.7419344799033284  0.5720580488346129  0.5554297342297616  1.0000
  O   O1        1.0  0.2938192862323135  0.30297926608694337  0.6863731143142927  1.0000
  O   O2        1.0  0.7061798952335535  0.6970203466642032  0.3136266076772641  1.0000
  O   O3        1.0  0.0876575695843798  0.16764661554823587  0.6670813770262995  1.0000
  O   O4        1.0  0.91234179311175  0.8323540040726627  0.33291867925445456  1.0000
  O   O5        1.0  0.16042823645278753  0.6958411465239819  0.6598697990729078  1.0000
  O   O6        1.0  0.8395697216314844  0.3041574554918398  0.3401294336469646  1.0000
  O   O7        1.0  0.37280665135195074  0.67655706245462  0.7589589917782362  1.0000
  O   O8        1.0  0.6271953133983885  0.3234405137361236  0.24103510009348378  1.0000
  O   O9        1.0  0.3459706220355869  0.7447910625554428  0.44205606121746394  1.0000
  O   O10       1.0  0.6540311842085628  0.2552115842723879  0.5579458780214849  1.0000
  O   O11       1.0  0.971207981261628  0.3489444615816382  0.5913822645675211  1.0000
  O   O12       1.0  0.028792061125308445  0.651054148165329  0.408617278117326  1.0000
