data_image0
_chemical_formula_structural       Ca2H24C24N4O12
_chemical_formula_sum              "Ca2 H24 C24 N4 O12"
_cell_length_a       7.446164666148042
_cell_length_b       10.44190026114265
_cell_length_c       10.44205146350598
_cell_angle_alpha    69.20608961993392
_cell_angle_beta     88.38834639108244
_cell_angle_gamma    88.39191580964165

_space_group_name_H-M_alt    "P 1"
_space_group_IT_number       1

loop_
  _space_group_symop_operation_xyz
  'x, y, z'

loop_
  _atom_site_type_symbol
  _atom_site_label
  _atom_site_symmetry_multiplicity
  _atom_site_fract_x
  _atom_site_fract_y
  _atom_site_fract_z
  _atom_site_occupancy
  Ca  Ca1       1.0  0.24999248772788718  0.4485277602221912  0.5514656582454762  1.0000
  Ca  Ca2       1.0  0.7500123218630677  0.5514639759985371  0.4485372561748802  1.0000
  H   H1        1.0  0.82540228806171  0.0579816013644958  0.4803913244376972  1.0000
  H   H2        1.0  0.6746008285325686  0.5196066877019729  0.9420045010723824  1.0000
  H   H3        1.0  0.17462673635051834  0.9420100304914525  0.5196168239647533  1.0000
  H   H4        1.0  0.3253780434111135  0.4803975224157709  0.057986261379433336  1.0000
  H   H5        1.0  0.5582963808080663  0.7235894011608719  0.7483285921775575  1.0000
  H   H6        1.0  0.9417077370562622  0.2517083166086209  0.27638828881170235  1.0000
  H   H7        1.0  0.44171777776303855  0.2764043794331172  0.251674393655982  1.0000
  H   H8        1.0  0.0582707956346411  0.7483098219952776  0.7236122539910497  1.0000
  H   H9        1.0  0.37484820804507984  0.8726582974420577  0.8481483459969608  1.0000
  H   H10       1.0  0.12514635149419454  0.15187587647461234  0.127332670111457  1.0000
  H   H11       1.0  0.6251618341960707  0.12733677118706044  0.15184472778140898  1.0000
  H   H12       1.0  0.874855101876463  0.8481401607410316  0.8726718791443416  1.0000
  H   H13       1.0  0.41790212328297116  0.12900613332868008  0.7488505397570505  1.0000
  H   H14       1.0  0.0820961786803238  0.2511390737111298  0.8709848320288031  1.0000
  H   H15       1.0  0.5821054302436864  0.8709827011442995  0.25114752223213793  1.0000
  H   H16       1.0  0.9179025353019553  0.7488780905919724  0.1290155751932288  1.0000
  H   H17       1.0  0.2009543312547635  0.19719630352663833  0.4926028872679921  1.0000
  H   H18       1.0  0.2990388008532321  0.507389448351496  0.8027993737806582  1.0000
  H   H19       1.0  0.799055840775985  0.8027955007664075  0.5073979671744269  1.0000
  H   H20       1.0  0.7009561348203802  0.4926177101116806  0.19719579965819625  1.0000
  H   H21       1.0  0.013368256920912798  0.24775761109147953  0.5350265677043494  1.0000
  H   H22       1.0  0.48662113751791475  0.46495716369262385  0.7522414231938653  1.0000
  H   H23       1.0  0.9866378099588358  0.752235426478009  0.4649663085339453  1.0000
  H   H24       1.0  0.5133739167663264  0.535046785193174  0.24775959705799266  1.0000
  C   C1        1.0  0.6271838224757715  0.11188624996733405  0.6087599151968419  1.0000
  C   C2        1.0  0.872811011731528  0.3912335290781641  0.8881074086945586  1.0000
  C   C3        1.0  0.37282380039834345  0.8881013686233243  0.3912452526661241  1.0000
  C   C4        1.0  0.1271702694423951  0.6087799331176809  0.11187928721208348  1.0000
  C   C5        1.0  0.7250790740687306  0.019845286180576197  0.5627011841988647  1.0000
  C   C6        1.0  0.7749213515754928  0.4372997083515813  0.9801502964041048  1.0000
  C   C7        1.0  0.2749406976160457  0.9801412012421267  0.43730887190131534  1.0000
  C   C8        1.0  0.22505882009917844  0.5627064714102871  0.019842660502284604  1.0000
  C   C9        1.0  0.5757912954042795  0.834298214154714  0.7125388023063408  1.0000
  C   C10       1.0  0.924209108619145  0.28748739688914055  0.16569078335788842  1.0000
  C   C11       1.0  0.4242164214488681  0.16568719170610532  0.2874728419000121  1.0000
  C   C12       1.0  0.07577335244364042  0.7125338791393145  0.834306718813252  1.0000
  C   C13       1.0  0.4739233034533825  0.9178712066514692  0.7668724534741713  1.0000
  C   C14       1.0  0.0260747650906055  0.23313579795706826  0.0821332326048818  1.0000
  C   C15       1.0  0.5260911405600056  0.08211241381173548  0.23313100553414756  1.0000
  C   C16       1.0  0.9739118661126369  0.7668804216808806  0.9178639280957127  1.0000
  C   C17       1.0  0.49836413568159077  0.059092096486153864  0.7131090784690102  1.0000
  C   C18       1.0  0.0016360881137131994  0.28688813939221086  0.9409086948439621  1.0000
  C   C19       1.0  0.5016449928815376  0.9408903495398131  0.2868996786889396  1.0000
  C   C20       1.0  0.9983530452566425  0.7131333723130451  0.05908091426439195  1.0000
  C   C21       1.0  0.6579183812604654  0.26249819970640687  0.542791080299871  1.0000
  C   C22       1.0  0.8420716136077929  0.457200509716692  0.7374854946653142  1.0000
  C   C23       1.0  0.3420930468275713  0.7374975405464991  0.45721419458341467  1.0000
  C   C24       1.0  0.1579221028612423  0.5428034084613457  0.26251652404378933  1.0000
  N   N1        1.0  0.6993877919139349  0.8844602562166127  0.6117212654866861  1.0000
  N   N2        1.0  0.8006258024937765  0.38828552910396746  0.11553050433209928  1.0000
  N   N3        1.0  0.3006252739263715  0.11552615980536268  0.388290882123158  1.0000
  N   N4        1.0  0.19934746296787859  0.6117276940866672  0.8844641161690561  1.0000
  O   O1        1.0  0.5403477102520569  0.34607554940551194  0.5598568219948205  1.0000
  O   O2        1.0  0.9596559577233349  0.4401145169529244  0.653915479872964  1.0000
  O   O3        1.0  0.4596599875589859  0.6539108259234964  0.440156418667442  1.0000
  O   O4        1.0  0.04033094774322878  0.5598915973129335  0.34608022015136436  1.0000
  O   O5        1.0  0.8014077535902968  0.3021560089315258  0.4721843687585761  1.0000
  O   O6        1.0  0.698594290629252  0.5278109982403477  0.6978591065380115  1.0000
  O   O7        1.0  0.1986077585223001  0.6978359729512247  0.5278105580038214  1.0000
  O   O8        1.0  0.3014007301180897  0.4721931149215307  0.302136112160717  1.0000
  O   O9        1.0  0.14146721846897486  0.2326182452446658  0.5614822963654901  1.0000
  O   O10       1.0  0.35851659904223954  0.4385100126321999  0.7673776331272251  1.0000
  O   O11       1.0  0.8585374781008357  0.7673766731741051  0.43851573816738204  1.0000
  O   O12       1.0  0.6414799060783523  0.5614907847633148  0.23262726855487154  1.0000
