data_image0
_chemical_formula_structural       K2Cu12H24C36Br2N36O24
_chemical_formula_sum              "K2 Cu12 H24 C36 Br2 N36 O24"
_cell_length_a       10.12063487477519
_cell_length_b       13.076499363017254
_cell_length_c       13.1326
_cell_angle_alpha    89.89963100550575
_cell_angle_beta     80.970388628199
_cell_angle_gamma    68.85398733799778

_space_group_name_H-M_alt    "P 1"
_space_group_IT_number       1

loop_
  _space_group_symop_operation_xyz
  'x, y, z'

loop_
  _atom_site_type_symbol
  _atom_site_label
  _atom_site_symmetry_multiplicity
  _atom_site_fract_x
  _atom_site_fract_y
  _atom_site_fract_z
  _atom_site_occupancy
  K   K1        1.0  0.20561622264181523  0.4439744300265858  0.9741599356394844  1.0000
  K   K2        1.0  0.7943869891788041  0.5560208677834027  0.02583899877677708  1.0000
  Cu  Cu1       1.0  0.3559487689913042  0.9678366419689725  0.6326239395439187  1.0000
  Cu  Cu2       1.0  0.6440506967426813  0.032164405645382  0.3673769608581949  1.0000
  Cu  Cu3       1.0  0.3601535827476212  0.0814164084775726  0.38813133166769387  1.0000
  Cu  Cu4       1.0  0.6398466674457242  0.9185829963355303  0.6118687152560937  1.0000
  Cu  Cu5       1.0  0.3328937868394632  0.8448910393286442  0.2806301556458308  1.0000
  Cu  Cu6       1.0  0.667106071124195  0.15510918688508474  0.7193706987490387  1.0000
  Cu  Cu7       1.0  0.32730324163037494  0.7334310816175674  0.5226852806501441  1.0000
  Cu  Cu8       1.0  0.672697400792643  0.266567501794917  0.4773154817302441  1.0000
  Cu  Cu9       1.0  0.013125609931385902  0.1759760483441823  0.5578469179070851  1.0000
  Cu  Cu10      1.0  0.9868732475533974  0.8240241778695465  0.4421540574952516  1.0000
  Cu  Cu11      1.0  0.0060174007922669075  0.05655425438200011  0.32211341094601664  1.0000
  Cu  Cu12      1.0  0.9939810644628437  0.9434467932323543  0.6778868489997265  1.0000
  H   H1        1.0  0.3481180088583926  0.1675386211316265  0.7606131164932464  1.0000
  H   H2        1.0  0.6518798481475087  0.8324616050821092  0.2393864569888819  1.0000
  H   H3        1.0  0.3497326677803727  0.3081279091813869  0.4584265598335477  1.0000
  H   H4        1.0  0.650270583849604  0.691871495631716  0.5415716011401699  1.0000
  H   H5        1.0  0.35064315861973233  0.2108420406428095  0.19016835659353865  1.0000
  H   H6        1.0  0.6493570915736058  0.7891573641703005  0.8098309288664183  1.0000
  H   H7        1.0  0.3271807827918708  0.9133161755326782  0.0570565310932025  1.0000
  H   H8        1.0  0.6728174664437176  0.0866832292804318  0.9429445193093571  1.0000
  H   H9        1.0  0.3470157463313441  0.6421332236299548  0.15067062798357267  1.0000
  H   H10       1.0  0.6529823266940867  0.35786864538502533  0.8493296779694148  1.0000
  H   H11       1.0  0.3232448152346167  0.5089685758230189  0.4553839156542951  1.0000
  H   H12       1.0  0.6767568276672834  0.4910300075894654  0.5446144413271057  1.0000
  H   H13       1.0  0.33512185531532174  0.6011979021185567  0.7187827876328186  1.0000
  H   H14       1.0  0.6648803958357802  0.39880150269455333  0.2812177787398795  1.0000
  H   H15       1.0  0.34636247718819396  0.9004464705515289  0.8573936271917191  1.0000
  H   H16       1.0  0.6536335948794729  0.09955539846345123  0.1426076822400404  1.0000
  H   H17       1.0  0.9912286545924333  0.016865819018249805  0.900776228762389  1.0000
  H   H18       1.0  0.008771595600912056  0.9831335857948531  0.0992238181613985  1.0000
  H   H19       1.0  0.008877190980165  0.3115416501758759  0.7521437601888438  1.0000
  H   H20       1.0  0.9911232752327025  0.6884593974384785  0.24785701920581005  1.0000
  H   H21       1.0  0.007419771048084558  0.4002742740138744  0.482047384861204  1.0000
  H   H22       1.0  0.9925814796241356  0.5997251307992286  0.5179517795912787  1.0000
  H   H23       1.0  0.001108305870992891  0.2500902052719454  0.18719680570274735  1.0000
  H   H24       1.0  0.9988933370309069  0.7499083781405391  0.8128023127424983  1.0000
  C   C1        1.0  0.3527508475177328  0.18389024335908033  0.6792489323906497  1.0000
  C   C2        1.0  0.6472476177373779  0.8161108042552813  0.32074980462741826  1.0000
  C   C3        1.0  0.34555606769461633  0.2805690968363166  0.6292156896411853  1.0000
  C   C4        1.0  0.6544413970816123  0.7194319507780379  0.37078545277585573  1.0000
  C   C5        1.0  0.3530658040790726  0.2566375896480508  0.5236265350897185  1.0000
  C   C6        1.0  0.6469330534057107  0.7433626365656849  0.4763729173849427  1.0000
  C   C7        1.0  0.3472709498811711  0.1303546362712922  0.17448373059659164  1.0000
  C   C8        1.0  0.6527289080824871  0.8696455899424436  0.8255156008706026  1.0000
  C   C9        1.0  0.33534821830415507  0.0821088492038413  0.08233236822144362  1.0000
  C   C10       1.0  0.6646510314103082  0.9178905556092687  0.9176670382459734  1.0000
  C   C11       1.0  0.33328608882158056  0.9777213770815083  0.10598721594205071  1.0000
  C   C12       1.0  0.6667121604140008  0.0222780277316019  0.8940130729966712  1.0000
  C   C13       1.0  0.3405538844808546  0.6271081634107105  0.23236565289137454  1.0000
  C   C14       1.0  0.659445581253138  0.372892884203651  0.7676344860469015  1.0000
  C   C15       1.0  0.33251459527917154  0.5346841651672136  0.2842218442615945  1.0000
  C   C16       1.0  0.667484870454814  0.4653168824471408  0.7157782946766815  1.0000
  C   C17       1.0  0.32755477219183854  0.5585220326843157  0.3894418341862007  1.0000
  C   C18       1.0  0.6724460862507016  0.441478193529413  0.6105573762735332  1.0000
  C   C19       1.0  0.3387394757789721  0.6814060302778202  0.7355332033297017  1.0000
  C   C20       1.0  0.6612592054956608  0.3185966601377785  0.26446855055073826  1.0000
  C   C21       1.0  0.3395192411719848  0.7318572780214581  0.8298439832174226  1.0000
  C   C22       1.0  0.6604784396237662  0.2681454123941478  0.17015865313432244  1.0000
  C   C23       1.0  0.34460923483361944  0.8354818951775728  0.8070237813215755  1.0000
  C   C24       1.0  0.6553882299426093  0.1645191524367888  0.19297812255931038  1.0000
  C   C25       1.0  0.9958378181935075  0.0799058527295315  0.8480810145206378  1.0000
  C   C26       1.0  0.004162039770157927  0.9200943734841971  0.15191907841040117  1.0000
  C   C27       1.0  0.9982896968888753  0.18486688870134324  0.8672776045000035  1.0000
  C   C28       1.0  0.0017131625114287588  0.8151333375123928  0.13272288687247172  1.0000
  C   C29       1.0  0.005544860989893203  0.2314526251071314  0.7710019917859229  1.0000
  C   C30       1.0  0.9944559974526541  0.7685476011065974  0.22900026452915503  1.0000
  C   C31       1.0  0.006485926004941713  0.3471181540145025  0.41907287485543065  1.0000
  C   C32       1.0  0.9935153246672784  0.6528812507986004  0.580926289597059  1.0000
  C   C33       1.0  0.0034391560968102947  0.3659126216985556  0.3138872230887557  1.0000
  C   C34       1.0  0.9965620945754096  0.6340867831145546  0.6861119413637269  1.0000
  C   C35       1.0  0.0038246368579422105  0.2692296612181906  0.2671472345010741  1.0000
  C   C36       1.0  0.9961760055650827  0.7307689221942866  0.7328527664154691  1.0000
  Br  Br1       1.0  0.2108105799001977  0.9472843769489714  0.473523356095079  1.0000
  Br  Br2       1.0  0.7891902785423498  0.052715849264757315  0.526476615828493  1.0000
  N   N1        1.0  0.3616993217647462  0.10775708369684621  0.6077627367300025  1.0000
  N   N2        1.0  0.6383005361989191  0.8922431425168895  0.3922365947371915  1.0000
  N   N3        1.0  0.3617878573915334  0.1526244499966509  0.5118016623688106  1.0000
  N   N4        1.0  0.6382113923229299  0.8473749548164591  0.48819774409860633  1.0000
  N   N5        1.0  0.32994804594283517  0.3814576285129689  0.6759627501783997  1.0000
  N   N6        1.0  0.6700528124997049  0.6185425977007597  0.3240364602813273  1.0000
  N   N7        1.0  0.35207941204443927  0.05904884807792851  0.248098683229145  1.0000
  N   N8        1.0  0.6479214463981009  0.9409513781358072  0.7519012886944195  1.0000
  N   N9        1.0  0.34341510900624417  0.964795816857901  0.2058484264006921  1.0000
  N   N10       1.0  0.656584140708219  0.035203587955202  0.794150980066725  1.0000
  N   N11       1.0  0.3291269623349251  0.1286099813453276  0.9858630117775534  1.0000
  N   N12       1.0  0.6708712869006633  0.8713894234677753  0.0141372771611685  1.0000
  N   N13       1.0  0.3390640354935783  0.7015336311750745  0.30255979457878374  1.0000
  N   N14       1.0  0.6609348219912121  0.2984665950386614  0.6974404193597152  1.0000
  N   N15       1.0  0.33130601489691713  0.6589768648313523  0.3997102101947263  1.0000
  N   N16       1.0  0.6686932348175461  0.3410225399817578  0.600290719200359  1.0000
  N   N17       1.0  0.32866037799129083  0.4384069765952461  0.24019913671874354  1.0000
  N   N18       1.0  0.6713400882215694  0.5615940710191083  0.7597993582843899  1.0000
  N   N19       1.0  0.3432872627799384  0.7509334861196351  0.6613577705560589  1.0000
  N   N20       1.0  0.6567118107243672  0.2490683828953451  0.33864241438946163  1.0000
  N   N21       1.0  0.3470966806920615  0.8459950017676761  0.7055585849430771  1.0000
  N   N22       1.0  0.6529023928122513  0.1540068672473041  0.294442361466281  1.0000
  N   N23       1.0  0.33792318754630213  0.6867632051493474  0.927135312640182  1.0000
  N   N24       1.0  0.6620756699384813  0.31323702106438134  0.0728656627621547  1.0000
  N   N25       1.0  0.0008742546973082048  0.0652569939962007  0.7466523390352222  1.0000
  N   N26       1.0  0.9991248188070043  0.9347448750187797  0.25334860737414294  1.0000
  N   N27       1.0  0.0072828583882297996  0.1586403881688483  0.6990914261803313  1.0000
  N   N28       1.0  0.9927166073457627  0.8413606594455134  0.3009094742217827  1.0000
  N   N29       1.0  0.9959512630664094  0.23349052005595897  0.962820795084383  1.0000
  N   N30       1.0  0.004048987126935842  0.766508884757144  0.0371807747670871  1.0000
  N   N31       1.0  0.008919444975248308  0.24538357969484545  0.4338174856838109  1.0000
  N   N32       1.0  0.9910801969688947  0.7546150037176389  0.5661818747763547  1.0000
  N   N33       1.0  0.00686157865166593  0.1974622458739859  0.3400840598443438  1.0000
  N   N34       1.0  0.9931380632924772  0.8025363375384984  0.6599168235434976  1.0000
  N   N35       1.0  0.001274432568173719  0.46148176293240084  0.2648420382487089  1.0000
  N   N36       1.0  0.9987278185829283  0.5385176418807092  0.7351570051963066  1.0000
  O   O1        1.0  0.3222384095005353  0.3887089532240751  0.7719208804539265  1.0000
  O   O2        1.0  0.6777614484631299  0.6112912729896537  0.22807768954942992  1.0000
  O   O3        1.0  0.3248535416697607  0.4603079814403088  0.6199910304771806  1.0000
  O   O4        1.0  0.6751501021899032  0.5396906019721754  0.38000936888079917  1.0000
  O   O5        1.0  0.336355020874052  0.2220204817385749  0.9781630382451922  1.0000
  O   O6        1.0  0.6636432283615364  0.777978923074528  0.021837250693522464  1.0000
  O   O7        1.0  0.3178144302115271  0.0746571027404102  0.910843177242839  1.0000
  O   O8        1.0  0.6821868204607001  0.9253423020726999  0.08915674867348859  1.0000
  O   O9        1.0  0.33491116900836454  0.4299637995783173  0.14434871592763443  1.0000
  O   O10       1.0  0.6650896894341826  0.5700364266354115  0.8556504945320996  1.0000
  O   O11       1.0  0.3196910609174353  0.3638205143085216  0.2981423660780465  1.0000
  O   O12       1.0  0.6803097975251121  0.6361797119052071  0.7018568443816805  1.0000
  O   O13       1.0  0.3352640598911095  0.5919431812848472  0.933013490060489  1.0000
  O   O14       1.0  0.6647361903022357  0.4080562235282628  0.0669857953994608  1.0000
  O   O15       1.0  0.33933813367092114  0.7429199016292003  0.004023068575676801  1.0000
  O   O16       1.0  0.6606615082732219  0.257078681783284  0.9959778148121716  1.0000
  O   O17       1.0  0.9919482015539104  0.17961731731159603  0.04179011298842279  1.0000
  O   O18       1.0  0.00805304911830974  0.820382087501514  0.9582113358555802  1.0000
  O   O19       1.0  0.998259122656748  0.3288575967362348  0.965583360284164  1.0000
  O   O20       1.0  0.0017407353069174003  0.6711426294775009  0.03441825557454341  1.0000
  O   O21       1.0  0.9968339445195795  0.5421129124131668  0.31902812276711495  1.0000
  O   O22       1.0  0.0031690910908820473  0.4578848495986919  0.6809708286634121  1.0000
  O   O23       1.0  0.003946853010020768  0.4626317238063821  0.1689180653355038  1.0000
  O   O24       1.0  0.9960547898918791  0.5373668596061023  0.8310810531097418  1.0000
