data_image0
_chemical_formula_structural       Cd2H24C14N10Cl2O12
_chemical_formula_sum              "Cd2 H24 C14 N10 Cl2 O12"
_cell_length_a       6.727648704965718
_cell_length_b       8.82386453351355
_cell_length_c       11.283090662727187
_cell_angle_alpha    87.76785746939214
_cell_angle_beta     77.06891728229309
_cell_angle_gamma    77.59905808163064

_space_group_name_H-M_alt    "P 1"
_space_group_IT_number       1

loop_
  _space_group_symop_operation_xyz
  'x, y, z'

loop_
  _atom_site_type_symbol
  _atom_site_label
  _atom_site_symmetry_multiplicity
  _atom_site_fract_x
  _atom_site_fract_y
  _atom_site_fract_z
  _atom_site_occupancy
  Cd  Cd1       1.0  0.6585510354205865  0.7250806828682669  0.6360704873832502  1.0000
  Cd  Cd2       1.0  0.34144854036414773  0.2749198423641134  0.3639296108434422  1.0000
  H   H1        1.0  0.8688024635643428  0.40885613495850487  0.589977205189477  1.0000
  H   H2        1.0  0.13119557021618528  0.5911444335946995  0.4100239804482013  1.0000
  H   H3        1.0  0.6547498238658703  0.3969297554667434  0.5637696002880614  1.0000
  H   H4        1.0  0.34524824612451255  0.6030707182585215  0.43622981233093566  1.0000
  H   H5        1.0  0.2717511723938911  0.5089954850277465  0.9568618873592312  1.0000
  H   H6        1.0  0.7282538896561307  0.49100181123437636  0.04314212121304449  1.0000
  H   H7        1.0  0.05913079116928083  0.5720450819001641  0.08398469086294819  1.0000
  H   H8        1.0  0.9408727831913165  0.42795211544086686  0.9160177455922918  1.0000
  H   H9        1.0  0.31903697301465417  0.5187026578318168  0.10669839140270201  1.0000
  H   H10       1.0  0.6809658950746994  0.48129695321686206  0.8933057644020079  1.0000
  H   H11       1.0  0.08684989314424024  0.6919658704031022  0.23916351780152206  1.0000
  H   H12       1.0  0.9131447397021119  0.3080358968176427  0.7608389293141825  1.0000
  H   H13       1.0  0.24066244473834067  0.7183310358913388  0.6173069313279382  1.0000
  H   H14       1.0  0.7593352902213509  0.2816705972737736  0.38269245445646044  1.0000
  H   H15       1.0  0.31529547827852866  0.8527397803144224  0.5299466215827521  1.0000
  H   H16       1.0  0.6847041156111329  0.14726069750398094  0.4700525901346067  1.0000
  H   H17       1.0  0.20944680654005762  0.2576974288027003  0.03589408069491638  1.0000
  H   H18       1.0  0.790556894555024  0.7422994366405148  0.9641021501949537  1.0000
  H   H19       1.0  0.3438076300305965  0.21988974270713862  0.8761778981467284  1.0000
  H   H20       1.0  0.6561951810167487  0.7801048945911759  0.12382036033266522  1.0000
  H   H21       1.0  0.9279250559792299  0.027913234496565995  0.2817214175092744  1.0000
  H   H22       1.0  0.07206476066323098  0.9720894428147349  0.718277172930051  1.0000
  H   H23       1.0  0.1395485569931552  0.9447490755182171  0.3470598546735104  1.0000
  H   H24       1.0  0.8604444912243492  0.05525825183192979  0.6529380257224844  1.0000
  C   C1        1.0  0.22287810344424472  0.572713946905779  0.04326513354867249  1.0000
  C   C2        1.0  0.7771254528114252  0.42728329784922175  0.9567381894159012  1.0000
  C   C3        1.0  0.1710935571602689  0.8455657207779693  0.10486397254383208  1.0000
  C   C4        1.0  0.8289048116509575  0.15443368833538776  0.8951372399284522  1.0000
  C   C5        1.0  0.26763623963379496  0.0374848848379159  0.9751506006421806  1.0000
  C   C6        1.0  0.7323618122516676  0.9625156363013192  0.024849698486164605  1.0000
  C   C7        1.0  0.36225814536023654  0.9271637193754854  0.8771304743278634  1.0000
  C   C8        1.0  0.637741765455196  0.0728356464170403  0.12286965073344189  1.0000
  C   C9        1.0  0.35154533372000424  0.7655136919960694  0.8996251501475853  1.0000
  C   C10       1.0  0.6484586299860736  0.23448220366318398  0.10037465361423867  1.0000
  C   C11       1.0  0.0072764460072107465  0.9183803721910592  0.3148726825757677  1.0000
  C   C12       1.0  0.9927129993946977  0.08162355938804208  0.6851276540476332  1.0000
  C   C13       1.0  0.8678404693659797  0.8597189609791654  0.42314787225380707  1.0000
  C   C14       1.0  0.13215508973796367  0.1402849395585406  0.5768507742536926  1.0000
  N   N1        1.0  0.24727371401796455  0.7315069178192672  0.015914012545415808  1.0000
  N   N2        1.0  0.752726513723239  0.26849133594737395  0.9840870258598284  1.0000
  N   N3        1.0  0.08309000720367252  0.8052557927020629  0.21619822085511228  1.0000
  N   N4        1.0  0.9169046618525342  0.1947458796907355  0.7838024532419111  1.0000
  N   N5        1.0  0.17772749281738243  0.993989558036773  0.08510122791660989  1.0000
  N   N6        1.0  0.8222721191772066  0.006010872367660609  0.9148970972914157  1.0000
  N   N7        1.0  0.27162809751892064  0.18794386007257907  0.960469449798154  1.0000
  N   N8        1.0  0.7283767381299668  0.8120543111455514  0.039529212883486806  1.0000
  N   N9        1.0  0.47149954509556113  0.9574886414656089  0.7661175833024173  1.0000
  N   N10       1.0  0.5284995299869165  0.042508353940092995  0.23388190982038987  1.0000
  Cl  Cl1       1.0  0.9675565220964444  0.668084134952707  0.7437124069257732  1.0000
  Cl  Cl2       1.0  0.03244580266600388  0.3319174630778647  0.25628548964436243  1.0000
  O   O1        1.0  0.7167095324737004  0.4521775900925816  0.6161179080990493  1.0000
  O   O2        1.0  0.2832885375166896  0.5478228836326834  0.3838815045199551  1.0000
  O   O3        1.0  0.3588843097222705  0.740950344211342  0.553646652393155  1.0000
  O   O4        1.0  0.6411118832332149  0.259051332274602  0.44635382080222985  1.0000
  O   O5        1.0  0.4851156194675638  0.09651891692097078  0.7392556344086428  1.0000
  O   O6        1.0  0.5148905925139644  0.9034745217098031  0.2607413625927322  1.0000
  O   O7        1.0  0.42987987874172257  0.6583625499901513  0.8236556557193563  1.0000
  O   O8        1.0  0.570124401890119  0.3416322336432245  0.17634506138641365  1.0000
  O   O9        1.0  0.8812051988904414  0.7138067482266734  0.4364212609026906  1.0000
  O   O10       1.0  0.11878961773240344  0.28619966084663406  0.5635808779729529  1.0000
  O   O11       1.0  0.7499100990177963  0.9587370699673913  0.5005451530003882  1.0000
  O   O12       1.0  0.25008694777557133  0.0412669294913997  0.4994550656241472  1.0000
