data_image0
_chemical_formula_structural       Cu4H48C28N4O14
_chemical_formula_sum              "Cu4 H48 C28 N4 O14"
_cell_length_a       8.070180847720746
_cell_length_b       9.529038552362001
_cell_length_c       13.107612513045789
_cell_angle_alpha    70.1558638858023
_cell_angle_beta     87.12831081393186
_cell_angle_gamma    89.49431875557548

_space_group_name_H-M_alt    "P 1"
_space_group_IT_number       1

loop_
  _space_group_symop_operation_xyz
  'x, y, z'

loop_
  _atom_site_type_symbol
  _atom_site_label
  _atom_site_symmetry_multiplicity
  _atom_site_fract_x
  _atom_site_fract_y
  _atom_site_fract_z
  _atom_site_occupancy
  Cu  Cu1       1.0  0.4901304981729666  0.33852408493785896  0.4816576427268302  1.0000
  Cu  Cu2       1.0  0.5098717224167544  0.6614678060162971  0.5183444311854899  1.0000
  Cu  Cu3       1.0  0.5373132877367015  0.4901676004185235  0.09551946612668867  1.0000
  Cu  Cu4       1.0  0.46267301896006063  0.5098330436497986  0.9044693640560837  1.0000
  H   H1        1.0  0.5572375581408835  0.9097031447084732  0.728937593164339  1.0000
  H   H2        1.0  0.4427571318118098  0.09030344656534339  0.2710769815999186  1.0000
  H   H3        1.0  0.13282300806274347  0.376210607103026  0.5212054423203368  1.0000
  H   H4        1.0  0.8671891651441472  0.6237835200245955  0.4787950439540153  1.0000
  H   H5        1.0  0.09421956928164829  0.11417410933232468  0.5360736844416394  1.0000
  H   H6        1.0  0.9057876021016966  0.8858211755452388  0.46393045413579165  1.0000
  H   H7        1.0  0.2065922870222252  0.1455610722726419  0.41000408661859916  1.0000
  H   H8        1.0  0.7934249284465834  0.8544431032453873  0.5899937272068243  1.0000
  H   H9        1.0  0.3692232404741985  0.9751548407128894  0.9931676375081936  1.0000
  H   H10       1.0  0.6307634025369637  0.024873576446069  0.0068050047171155  1.0000
  H   H11       1.0  0.2777143182308492  0.9664991174604153  0.8732908441274887  1.0000
  H   H12       1.0  0.7222495053697601  0.0334836526529969  0.1267038546397785  1.0000
  H   H13       1.0  0.17281252383310172  0.8891064760569165  0.003921981580887636  1.0000
  H   H14       1.0  0.8271798990303266  0.11089539176417419  0.9960740095511014  1.0000
  H   H15       1.0  0.94833307854077  0.770641301132393  0.7950383879314202  1.0000
  H   H16       1.0  0.051641927229176994  0.22934596799910884  0.2049564078332793  1.0000
  H   H17       1.0  0.043390876332964  0.6097692933520023  0.8850068922441778  1.0000
  H   H18       1.0  0.9566042383225052  0.39023348616783676  0.11497277589146654  1.0000
  H   H19       1.0  0.9886084111100149  0.7592127683656429  0.9309502073922928  1.0000
  H   H20       1.0  0.0114090375687823  0.24080128997115213  0.06903289358133688  1.0000
  H   H21       1.0  0.1629414032375607  0.9176131257702808  0.671031425511117  1.0000
  H   H22       1.0  0.8370595160554898  0.08238332490518727  0.32897715885903267  1.0000
  H   H23       1.0  0.33791909166462375  0.7994983605729757  0.6863061754186716  1.0000
  H   H24       1.0  0.6620880832671645  0.20050591888139022  0.313701029196281  1.0000
  H   H25       1.0  0.2538799430529722  0.883017968205465  0.5562360410204263  1.0000
  H   H26       1.0  0.7461247351279993  0.1169806995542046  0.4437703588515873  1.0000
  H   H27       1.0  0.7908914666631687  0.1772650591370635  0.7792228849577256  1.0000
  H   H28       1.0  0.20910708702920994  0.8227447660091797  0.22078161575403504  1.0000
  H   H29       1.0  0.9175541161869275  0.11422003911764021  0.6894274507999043  1.0000
  H   H30       1.0  0.08244044412871429  0.8857653148744615  0.310589446190896  1.0000
  H   H31       1.0  0.790204530714753  0.9837779333064419  0.7940481539925414  1.0000
  H   H32       1.0  0.20976539392174937  0.0162285717221735  0.205963272612955  1.0000
  H   H33       1.0  0.8046937945853329  0.7412443569579636  0.2877466724401926  1.0000
  H   H34       1.0  0.19531460431481656  0.25874194507119336  0.7122551280461877  1.0000
  H   H35       1.0  0.6194277158104882  0.7803144848386976  0.2165143010355805  1.0000
  H   H36       1.0  0.38057699646851967  0.21967627434960238  0.7834864682710574  1.0000
  H   H37       1.0  0.7871102439153359  0.6992366371871767  0.16391140838685908  1.0000
  H   H38       1.0  0.21289321734037972  0.3007552556071999  0.83609063275388  1.0000
  H   H39       1.0  0.8850056261274091  0.33145543935342653  0.4318298616924209  1.0000
  H   H40       1.0  0.11501128386462509  0.6685321791024917  0.5681858806626819  1.0000
  H   H41       1.0  0.006797365702645698  0.3540824108274023  0.3095370813136001  1.0000
  H   H42       1.0  0.9932022295437828  0.6459096247689189  0.6904764689129975  1.0000
  H   H43       1.0  0.9752118621505942  0.5067009034014448  0.3563112139793532  1.0000
  H   H44       1.0  0.024782842698634497  0.49329779907735355  0.6436992516556755  1.0000
  H   H45       1.0  0.2921543480180517  0.541462776747771  0.3827847345829127  1.0000
  H   H46       1.0  0.7078578072661514  0.45854374140736104  0.6172217741984767  1.0000
  H   H47       1.0  0.314828214219574  0.4246136253855965  0.3119542614765222  1.0000
  H   H48       1.0  0.6851789660079818  0.5753827751619126  0.6880495947272819  1.0000
  C   C1        1.0  0.39346069010230883  0.034838672711131786  0.6079319656108736  1.0000
  C   C2        1.0  0.6065451741662997  0.9651555539853047  0.39207705242020535  1.0000
  C   C3        1.0  0.5402729952712518  0.018385218636410593  0.6672421377815851  1.0000
  C   C4        1.0  0.4597216489473013  0.9816180454039128  0.33277480553969235  1.0000
  C   C5        1.0  0.6578485227398617  0.128477817393204  0.6576838830968583  1.0000
  C   C6        1.0  0.34214619828471626  0.8715253675417287  0.34232697447982463  1.0000
  C   C7        1.0  0.6506398163493827  0.5499672623880515  0.30332639237571607  1.0000
  C   C8        1.0  0.3493711826402475  0.45002791924026286  0.69666927998815  1.0000
  C   C9        1.0  0.1499480012890189  0.346769955179397  0.4471966023051266  1.0000
  C   C10       1.0  0.8500566607166106  0.6532242301241311  0.5528094056252328  1.0000
  C   C11       1.0  0.1946098950207542  0.18139251975833295  0.4820431041859337  1.0000
  C   C12       1.0  0.8053936000987462  0.8186060868320836  0.5179587641492204  1.0000
  C   C13       1.0  0.3743918162081243  0.7573584689033268  0.9761685067259549  1.0000
  C   C14       1.0  0.6256033396422539  0.24265439119874094  0.02381166291938538  1.0000
  C   C15       1.0  0.2944452010433949  0.9074242799698878  0.9595740329593666  1.0000
  C   C16       1.0  0.7055374248502916  0.09258643916001569  0.04041539704783759  1.0000
  C   C17       1.0  0.782607067199116  0.6249807783447637  0.9199152213744455  1.0000
  C   C18       1.0  0.21739170224906698  0.3750220759129305  0.08006967347298397  1.0000
  C   C19       1.0  0.9504568090210482  0.696774658698942  0.8796006070461786  1.0000
  C   C20       1.0  0.0495480323727335  0.3032238409617776  0.12039286061857267  1.0000
  C   C21       1.0  0.2820083794156645  0.9005542856861268  0.6322135837058552  1.0000
  C   C22       1.0  0.7180012864488674  0.0994499875604973  0.367792794647869  1.0000
  C   C23       1.0  0.7968334891070584  0.09732526247275079  0.7351086574886594  1.0000
  C   C24       1.0  0.2031636844472544  0.9026779558071426  0.2649044166990889  1.0000
  C   C25       1.0  0.7228284609861646  0.7016890452386662  0.23885935747097148  1.0000
  C   C26       1.0  0.27717880413509727  0.2983095174315337  0.7611386089590653  1.0000
  C   C27       1.0  0.9952777970183181  0.3858769215198875  0.3824590171137885  1.0000
  C   C28       1.0  0.004729269513283898  0.6141173465694649  0.6175530110179964  1.0000
  N   N1        1.0  0.35199262395205716  0.1621971232975241  0.5352602674543405  1.0000
  N   N2        1.0  0.6480095559650395  0.8377981838836916  0.4647462843636276  1.0000
  N   N3        1.0  0.2981969847892784  0.43118200090760433  0.3883964578615178  1.0000
  N   N4        1.0  0.7017990729088338  0.568821086985821  0.611606759762843  1.0000
  O   O1        1.0  0.6618060508502027  0.2626320735135081  0.5862292338336204  1.0000
  O   O2        1.0  0.3382060498556356  0.7373700017381709  0.41377992587840845  1.0000
  O   O3        1.0  0.6304504379777996  0.518409696399054  0.4071412738590112  1.0000
  O   O4        1.0  0.369570583626171  0.48159777232042705  0.5928510302223556  1.0000
  O   O5        1.0  0.6096884002875669  0.4601200745202477  0.257181374244375  1.0000
  O   O6        1.0  0.39031256497388267  0.539865081021311  0.7428193838089641  1.0000
  O   O7        1.0  0.4330222158791486  0.6906607817663402  0.06861831042797908  1.0000
  O   O8        1.0  0.5669729250747083  0.30935996713074587  0.9313659683465899  1.0000
  O   O9        1.0  0.3742632061515038  0.7094534892945105  0.8965121583346017  1.0000
  O   O10       1.0  0.6257231462794052  0.2905504820073119  0.1034743032911507  1.0000
  O   O11       1.0  0.750080159128018  0.587376605030613  0.02187990243676543  1.0000
  O   O12       1.0  0.24993602159559464  0.41263523001423863  0.978104556773772  1.0000
  O   O13       1.0  0.6874388957577223  0.6060120395520486  0.85061883503068  1.0000
  O   O14       1.0  0.31254738591947256  0.3939830063901866  0.14936988558406475  1.0000
