data_image0
_chemical_formula_structural       Gd2H42C54O12
_chemical_formula_sum              "Gd2 H42 C54 O12"
_cell_length_a       7.575829672704342
_cell_length_b       13.288819826538395
_cell_length_c       13.288806151730796
_cell_angle_alpha    116.46912474809311
_cell_angle_beta     100.9563210819317
_cell_angle_gamma    100.95636453951884

_space_group_name_H-M_alt    "P 1"
_space_group_IT_number       1

loop_
  _space_group_symop_operation_xyz
  'x, y, z'

loop_
  _atom_site_type_symbol
  _atom_site_label
  _atom_site_symmetry_multiplicity
  _atom_site_fract_x
  _atom_site_fract_y
  _atom_site_fract_z
  _atom_site_occupancy
  Gd  Gd1       1.0  0.6650744749946116  8.305599040880001e-05  8.196669030982456e-05  1.0000
  Gd  Gd2       1.0  0.16507405794680344  8.181028916000003e-05  8.338447350549508e-05  1.0000
  H   H1        1.0  0.26783261191067703  0.8269161524370643  0.17469918645775082  1.0000
  H   H2        1.0  0.44106061454024836  0.3478104096361392  0.1730953862144062  1.0000
  H   H3        1.0  0.09339296537468295  0.8253626371157664  0.6523274783458106  1.0000
  H   H4        1.0  0.5933932547478095  0.6523269576294626  0.8253624225780811  1.0000
  H   H5        1.0  0.7678364067789333  0.17470163543445247  0.8269184605754063  1.0000
  H   H6        1.0  0.9410597958017419  0.17309482012456814  0.347810433806842  1.0000
  H   H7        1.0  0.463886642492028  0.6547539793896463  0.033268618271719744  1.0000
  H   H8        1.0  0.8092852571710482  0.37850613713433046  0.3452857632723507  1.0000
  H   H9        1.0  0.4308373686072002  0.9666851537884256  0.6214017900716653  1.0000
  H   H10       1.0  0.9308379841097862  0.6214020535389508  0.9666858397590302  1.0000
  H   H11       1.0  0.9638914800652572  0.03327261024359981  0.6547559550304243  1.0000
  H   H12       1.0  0.30928442745499757  0.34528551206089736  0.3785070808448551  1.0000
  H   H13       1.0  0.3419968797685585  0.4552746149958653  0.981605048702697  1.0000
  H   H14       1.0  0.886862991850428  0.5263716574147922  0.5448451601979158  1.0000
  H   H15       1.0  0.3605076206124523  0.018403183221771303  0.4736819979037178  1.0000
  H   H16       1.0  0.860508075881967  0.4736812801020992  0.01840314116331133  1.0000
  H   H17       1.0  0.8419980362113507  0.9816063547957086  0.455275257040121  1.0000
  H   H18       1.0  0.38686351927183443  0.5448458810830489  0.526373915439592  1.0000
  H   H19       1.0  0.17409294497947775  0.3003604264264298  0.015760857616093946  1.0000
  H   H20       1.0  0.8738575272273296  0.7154630950132912  0.6996524623109507  1.0000
  H   H21       1.0  0.15847112945983352  0.9843532864011098  0.28467792577144724  1.0000
  H   H22       1.0  0.6584705880074748  0.2846773295545902  0.9843519109118688  1.0000
  H   H23       1.0  0.6740929708249938  0.015760313241806  0.3003602658716531  1.0000
  H   H24       1.0  0.3738584996295772  0.6996531703121108  0.7154648866739207  1.0000
  H   H25       1.0  0.016893372682389374  0.352422075339561  0.17251862658871173  1.0000
  H   H26       1.0  0.6644461907094553  0.8200417607570075  0.6474147907258325  1.0000
  H   H27       1.0  0.8445114154594082  0.8275339760778241  0.17994328285559658  1.0000
  H   H28       1.0  0.34451117931353553  0.17994424375562096  0.8275338465086363  1.0000
  H   H29       1.0  0.5168898897540047  0.17251717503143033  0.35241971804837385  1.0000
  H   H30       1.0  0.16444678506320543  0.6474160437781651  0.8200439664111768  1.0000
  H   H31       1.0  0.03114120453792416  0.5630003573857182  0.2953692307785332  1.0000
  H   H32       1.0  0.4682058544578851  0.7322307741276645  0.4367978131249257  1.0000
  H   H33       1.0  0.7360030649815953  0.704562863427242  0.2676111064038621  1.0000
  H   H34       1.0  0.23600331236612965  0.2676115401874314  0.7045633288230347  1.0000
  H   H35       1.0  0.531140043706536  0.295368397359603  0.5629991562422347  1.0000
  H   H36       1.0  0.9682068862695277  0.4367988700743269  0.7322328633041194  1.0000
  H   H37       1.0  0.19614498930700822  0.7175379119708581  0.26037000941042265  1.0000
  H   H38       1.0  0.4788460338238992  0.5427551743951541  0.28237416957021816  1.0000
  H   H39       1.0  0.9360056528917158  0.7394598092855491  0.4570753832245841  1.0000
  H   H40       1.0  0.436005087603789  0.4570752523631398  0.7394594966193748  1.0000
  H   H41       1.0  0.6961443438604321  0.2603708588127134  0.7175375516573081  1.0000
  H   H42       1.0  0.978843918031345  0.28237479601143894  0.5427566978217371  1.0000
  C   C1        1.0  0.4593227982398106  0.8678156011168597  0.08485892681502348  1.0000
  C   C2        1.0  0.5916785124411631  0.2170847624162421  0.13221283010253865  1.0000
  C   C3        1.0  0.37473686242650234  0.9152332990479554  0.7830124496340146  1.0000
  C   C4        1.0  0.8747367719696869  0.7830128826951113  0.9152328714753821  1.0000
  C   C5        1.0  0.9593264217571617  0.08485930094492032  0.8678160620000525  1.0000
  C   C6        1.0  0.09167862603596431  0.1322135431221341  0.21708569829510785  1.0000
  C   C7        1.0  0.3599981409136107  0.7926097374839146  0.12345906721812853  1.0000
  C   C8        1.0  0.5675878533008359  0.33088063030537285  0.20740325187928477  1.0000
  C   C9        1.0  0.23676161110319066  0.8765425188160594  0.6691683180106905  1.0000
  C   C10       1.0  0.7367604498028087  0.6691687000309231  0.876542468820652  1.0000
  C   C11       1.0  0.8600031934912523  0.1234615861800492  0.792611265766986  1.0000
  C   C12       1.0  0.06758678173653007  0.20740334458556478  0.33088116797659944  1.0000
  C   C13       1.0  0.3755063449998134  0.6835489467235336  0.09017166526540883  1.0000
  C   C14       1.0  0.6921127634471631  0.40662057702001425  0.3164759126795572  1.0000
  C   C15       1.0  0.2855635769422521  0.9097702583305324  0.5933519406952356  1.0000
  C   C16       1.0  0.7855651545594425  0.593351870832926  0.9097713005378765  1.0000
  C   C17       1.0  0.8755086135958338  0.09017376429845571  0.6835491087469804  1.0000
  C   C18       1.0  0.192115402587703  0.31648038771674447  0.40662412089474015  1.0000
  C   C19       1.0  0.2796158467536713  0.5972714567788486  0.11722118793702654  1.0000
  C   C20       1.0  0.682410236425554  0.5199316675731539  0.40273915412886635  1.0000
  C   C21       1.0  0.16250226618346625  0.8826858703545853  0.48001261170999476  1.0000
  C   C22       1.0  0.662502890179816  0.480013221050335  0.8826860718075409  1.0000
  C   C23       1.0  0.7796196372980336  0.11722027679059012  0.5972721282129712  1.0000
  C   C24       1.0  0.18240925545833164  0.4027394402797385  0.5199319369491419  1.0000
  C   C25       1.0  0.2732611586799721  0.4786405475069699  0.05015137401148448  1.0000
  C   C26       1.0  0.794832041052736  0.5715758721768724  0.5213856993247248  1.0000
  C   C27       1.0  0.22326374617595965  0.9497889295191232  0.42845237614886134  1.0000
  C   C28       1.0  0.7232621591773735  0.4284533858592925  0.9497895293172574  1.0000
  C   C29       1.0  0.7732593670976727  0.05015145217329582  0.47863955533128427  1.0000
  C   C30       1.0  0.2948315087387315  0.5213853238908188  0.5715763668035618  1.0000
  C   C31       1.0  0.17845382083960706  0.3915202429056706  0.06942828754802115  1.0000
  C   C32       1.0  0.7870508522180019  0.6779430058738642  0.6084915377778585  1.0000
  C   C33       1.0  0.10911911219609043  0.9306348367665864  0.32213180302684197  1.0000
  C   C34       1.0  0.6091177004880207  0.3221316136600195  0.9306337046115514  1.0000
  C   C35       1.0  0.6784523424917454  0.06942751260001503  0.3915192025015414  1.0000
  C   C36       1.0  0.2870511342846527  0.608491908783627  0.6779443366397259  1.0000
  C   C37       1.0  0.09062680554898614  0.4208836429745376  0.1575698171075004  1.0000
  C   C38       1.0  0.6698436241842174  0.7366537413392606  0.5790412792168665  1.0000
  C   C39       1.0  0.9332110967062663  0.8424564273426611  0.2633411195188274  1.0000
  C   C40       1.0  0.433211156582047  0.26334205683298967  0.8424570766367835  1.0000
  C   C41       1.0  0.5906250242843429  0.15756917549092012  0.42088291974901887  1.0000
  C   C42       1.0  0.1698436903731988  0.579041888093407  0.7366557746175528  1.0000
  C   C43       1.0  0.09832310585926513  0.5388692813117189  0.225987977926323  1.0000
  C   C44       1.0  0.5595004133201938  0.6870477288251068  0.4610525194473424  1.0000
  C   C45       1.0  0.8725045354138317  0.7739684604936273  0.3128607203662455  1.0000
  C   C46       1.0  0.37250433126496324  0.31286112907341856  0.7739683398425256  1.0000
  C   C47       1.0  0.5983258723608104  0.2259886180618197  0.538867301941579  1.0000
  C   C48       1.0  0.059500337781941  0.4610534486410103  0.687049789725222  1.0000
  C   C49       1.0  0.1908454083802767  0.6261551048659515  0.2060778633958336  1.0000
  C   C50       1.0  0.5647800187558546  0.5798911297384706  0.3738054118929526  1.0000
  C   C51       1.0  0.9848911269213975  0.7938065909480091  0.42001674670582634  1.0000
  C   C52       1.0  0.48489056778699796  0.42001740521730113  0.7938075581928601  1.0000
  C   C53       1.0  0.6908451320817408  0.2060788358593797  0.6261544359841265  1.0000
  C   C54       1.0  0.06478069781987733  0.37380617289650087  0.579891728104357  1.0000
  O   O1        1.0  0.42475487622724734  0.9660727948988355  0.1045109350701665  1.0000
  O   O2        1.0  0.4587988944548372  0.13845160038322754  0.033993854433582306  1.0000
  O   O3        1.0  0.32050483141260605  0.8956815804878745  0.8616764092126487  1.0000
  O   O4        1.0  0.8205043693027037  0.8616765974384466  0.8956825750981848  1.0000
  O   O5        1.0  0.9247581983226212  0.10451122249652663  0.9660730720497384  1.0000
  O   O6        1.0  0.9587978637928529  0.0339939536948108  0.13845144683922675  1.0000
  O   O7        1.0  0.5821480872152377  0.8394038993468698  0.03315871809731864  1.0000
  O   O8        1.0  0.7430647550851506  0.19389597750819837  0.1605746516864883  1.0000
  O   O9        1.0  0.5492901954984007  0.9668485280390798  0.8062464637813914  1.0000
  O   O10       1.0  0.049290487628319175  0.8062468245474722  0.9668494902691478  1.0000
  O   O11       1.0  0.08214922950972442  0.0331600327713986  0.8394047303634051  1.0000
  O   O12       1.0  0.24306375014523957  0.16057445160763004  0.1938970473367974  1.0000
