data_image0
_chemical_formula_structural       Cd2P2H42C38N4O12
_chemical_formula_sum              "Cd2 P2 H42 C38 N4 O12"
_cell_length_a       5.502521639904644
_cell_length_b       11.902340529271946
_cell_length_c       15.410509778498646
_cell_angle_alpha    89.45858109773377
_cell_angle_beta     87.55971750733234
_cell_angle_gamma    76.59869556618646

_space_group_name_H-M_alt    "P 1"
_space_group_IT_number       1

loop_
  _space_group_symop_operation_xyz
  'x, y, z'

loop_
  _atom_site_type_symbol
  _atom_site_label
  _atom_site_symmetry_multiplicity
  _atom_site_fract_x
  _atom_site_fract_y
  _atom_site_fract_z
  _atom_site_occupancy
  Cd  Cd1       1.0  0.6519878491220651  0.3496585963573367  0.6550048278163985  1.0000
  Cd  Cd2       1.0  0.002553616781796096  0.650314026802768  0.15511140530063733  1.0000
  P   P1        1.0  0.531616661095363  0.2769267357278907  0.4481969162922043  1.0000
  P   P2        1.0  0.8101067674508824  0.7227129564839958  0.9483424168221364  1.0000
  H   H1        1.0  0.8617761275301135  0.056970708208730514  0.47868824041014346  1.0000
  H   H2        1.0  0.9225280776564091  0.9420043511296969  0.978575555394855  1.0000
  H   H3        1.0  0.8360213108310574  0.8533089586367453  0.4533011736045865  1.0000
  H   H4        1.0  0.6942848714714955  0.14594372360524233  0.9537138582894047  1.0000
  H   H5        1.0  0.46701075810553744  0.8140564281439142  0.3819510898901514  1.0000
  H   H6        1.0  0.28537189290216247  0.18631735017728354  0.882725654429031  1.0000
  H   H7        1.0  0.13230256053438433  0.9764114690287545  0.33260653337898566  1.0000
  H   H8        1.0  0.1105440941187581  0.024647111029942395  0.8336859592596184  1.0000
  H   H9        1.0  0.15147309063488737  0.17860583618774942  0.3601299714021594  1.0000
  H   H10       1.0  0.3300183679635608  0.8221192872797759  0.8611606238608831  1.0000
  H   H11       1.0  0.3827083156233044  0.36381322149989614  0.3122125714445758  1.0000
  H   H12       1.0  0.7483942973581177  0.6359599411057747  0.8121771584207522  1.0000
  H   H13       1.0  0.13214203756146498  0.37074722990372083  0.3896831756728717  1.0000
  H   H14       1.0  0.504233537554242  0.6295266567970048  0.8895569052746171  1.0000
  H   H15       1.0  0.28551988149096263  0.5187520290615311  0.4752259869043557  1.0000
  H   H16       1.0  0.8046321707980439  0.48123209029010655  0.9751986488805644  1.0000
  H   H17       1.0  0.5377651312738648  0.5118468574158187  0.3968567802850345  1.0000
  H   H18       1.0  0.05050553199880164  0.48753359870858776  0.8968624228226434  1.0000
  H   H19       1.0  0.19502560596904323  0.1771352077451738  0.5943656984330801  1.0000
  H   H20       1.0  0.3731459258333487  0.82284022245662  0.0946079682082299  1.0000
  H   H21       1.0  0.3998333594098115  0.9713846422354779  0.5844529125085813  1.0000
  H   H22       1.0  0.37186301105849395  0.028647430415901502  0.084729801396854  1.0000
  H   H23       1.0  0.7482975453266999  0.8997273831558135  0.7228025833869369  1.0000
  H   H24       1.0  0.6466800627212875  0.10060766507596954  0.22189914806233452  1.0000
  H   H25       1.0  0.5685821493434845  0.10989941990312961  0.7243378235188731  1.0000
  H   H26       1.0  0.678157009355985  0.8904166513531492  0.22383341548700744  1.0000
  H   H27       1.0  0.5409097723887158  0.8001228516133525  0.5688602517953643  1.0000
  H   H28       1.0  0.3396378920812779  0.19999182353853237  0.0680199030622575  1.0000
  H   H29       1.0  0.7246694510997287  0.5890210229237668  0.5707551473341682  1.0000
  H   H30       1.0  0.3131382738436059  0.4108891250724868  0.07050505397737081  1.0000
  H   H31       1.0  0.13060910386796118  0.5279554806134569  0.7239063817707887  1.0000
  H   H32       1.0  0.6588727303321775  0.472261766411549  0.22421998906784077  1.0000
  H   H33       1.0  0.9256719511472369  0.73507574146754  0.7306771827177416  1.0000
  H   H34       1.0  0.6609846731246805  0.26512677279384894  0.23072887438082296  1.0000
  H   H35       1.0  0.17446008565501364  0.34141127308167546  0.7575432216487101  1.0000
  H   H36       1.0  0.5163804483564504  0.658789384903173  0.2574731430797003  1.0000
  H   H37       1.0  0.4346589755410903  0.32483244279524837  0.8069924995605149  1.0000
  H   H38       1.0  0.7596200770404307  0.6755714439312399  0.30697377133527953  1.0000
  H   H39       1.0  0.12449660550351636  0.36537493692010514  0.5596565616512238  1.0000
  H   H40       1.0  0.4913756075334558  0.63391754058069  0.0599524252794623  1.0000
  H   H41       1.0  0.8913963083793706  0.36173899485356037  0.5040983216288454  1.0000
  H   H42       1.0  0.25492957818224227  0.637400995683514  0.004397583347781597  1.0000
  C   C1        1.0  0.5097937282790141  0.1315798388869567  0.4207411940964364  1.0000
  C   C2        1.0  0.6431824205042105  0.8682140632917807  0.9211764091689434  1.0000
  C   C3        1.0  0.7005575291722365  0.0390195007980623  0.447607260117259  1.0000
  C   C4        1.0  0.7427912658042003  0.9604085310299838  0.9478105485059061  1.0000
  C   C5        1.0  0.6857991428039936  0.925144525803319  0.43379143490705024  1.0000
  C   C6        1.0  0.6149870208229586  0.07448052524125613  0.9342100953222856  1.0000
  C   C7        1.0  0.4795138912864089  0.9026544989989989  0.393092175377305  1.0000
  C   C8        1.0  0.38579956589599357  0.0975829826275998  0.8937733866702973  1.0000
  C   C9        1.0  0.2920984383634957  0.9939961916303733  0.36480673374934725  1.0000
  C   C10       1.0  0.2882742041251234  0.006579559163327501  0.8656864735138471  1.0000
  C   C11       1.0  0.305487904919893  0.10829718158201021  0.37876276766277794  1.0000
  C   C12       1.0  0.41488116548409687  0.8920665332197618  0.8796146308549739  1.0000
  C   C13       1.0  0.3256053920549179  0.380261992903975  0.3809889366137754  1.0000
  C   C14       1.0  0.707416113593446  0.6196412666863652  0.8809305354126169  1.0000
  C   C15       1.0  0.3441344208914998  0.5029024623141113  0.40670244337500366  1.0000
  C   C16       1.0  0.8476598530487037  0.49691318262353007  0.9067081806903304  1.0000
  C   C17       1.0  0.1700142348895568  0.5882764389506008  0.3507377052734313  1.0000
  C   C18       1.0  0.7582097591541058  0.41175626480053046  0.8507125696570199  1.0000
  C   C19       1.0  0.1005926381433753  0.11296548552937942  0.6217768082700914  1.0000
  C   C20       1.0  0.21416281811014676  0.8870819693964266  0.12182102628368341  1.0000
  C   C21       1.0  0.21579690570791848  0.996017329665243  0.6168734413902899  1.0000
  C   C22       1.0  0.2120773285310591  0.0040895677575534025  0.11686367809751633  1.0000
  C   C23       1.0  0.09476459520563198  0.9137388796807858  0.6529476031597172  1.0000
  C   C24       1.0  0.00813381818779388  0.08640335485029743  0.1525842675115641  1.0000
  C   C25       1.0  0.8564944863087193  0.9563883853241466  0.6924452604776408  1.0000
  C   C26       1.0  0.8121421700025737  0.04388883216034859  0.19185212493294304  1.0000
  C   C27       1.0  0.7529271118649845  0.07460765040381291  0.694114574812332  1.0000
  C   C28       1.0  0.827377870818381  0.9256191420194003  0.1936883423793105  1.0000
  C   C29       1.0  0.21342564295777305  0.7885734375460773  0.6504026701597354  1.0000
  C   C30       1.0  0.0015072046702257862  0.21163764238724542  0.1500793761822052  1.0000
  C   C31       1.0  0.44286879192963385  0.7441712284771996  0.6053509784837916  1.0000
  C   C32       1.0  0.18616226655999676  0.25591207517873477  0.10486138320320043  1.0000
  C   C33       1.0  0.5477135837075976  0.6259756044269269  0.6057237089005059  1.0000
  C   C34       1.0  0.17315550468526913  0.37407088189495147  0.10548897733697522  1.0000
  C   C35       1.0  0.21771782689086902  0.5910856532535149  0.6908842113228035  1.0000
  C   C36       1.0  0.8088850885034373  0.40910943401457456  0.1910171713179878  1.0000
  C   C37       1.0  0.10188427084094095  0.7079392283548458  0.6936629859987635  1.0000
  C   C38       1.0  0.8098419079149863  0.29226959065932334  0.19363468090385547  1.0000
  N   N1        1.0  0.8721130230769701  0.15224744715920482  0.6595325852819798  1.0000
  N   N2        1.0  0.024703127765675938  0.8479419039238608  0.15941818340710512  1.0000
  N   N3        1.0  0.4381119546763941  0.5499473856588468  0.6480457001845252  1.0000
  N   N4        1.0  0.9880311943400883  0.4501252261309646  0.14812795282367833  1.0000
  O   O1        1.0  0.42919355435994083  0.29960317565175393  0.543033322325222  1.0000
  O   O2        1.0  0.7298265772499732  0.6999627623317864  0.04310220173796611  1.0000
  O   O3        1.0  0.7990543796146383  0.28795044634242833  0.4313014584364866  1.0000
  O   O4        1.0  0.08873221313477585  0.7115252753060873  0.9316222614343987  1.0000
  O   O5        1.0  0.9516960441857523  0.6325166897989549  0.3800852737108471  1.0000
  O   O6        1.0  0.583898362040962  0.36779155933408014  0.8801791793580876  1.0000
  O   O7        1.0  0.2559177678137275  0.6045926084564286  0.273259714259595  1.0000
  O   O8        1.0  0.859886150762648  0.39538966712584783  0.7731808989068085  1.0000
  O   O9        1.0  0.3559674382931206  0.3037587386588784  0.7526581253693579  1.0000
  O   O10       1.0  0.6599955261444208  0.6964988826182363  0.2525789244645011  1.0000
  O   O11       1.0  0.9410686228837974  0.39949063543618735  0.5571014037294761  1.0000
  O   O12       1.0  0.34217961183816914  0.5997906638556363  0.0574505918238017  1.0000
