data_image0
_chemical_formula_structural       Cd2H16C20S4N8O8
_chemical_formula_sum              "Cd2 H16 C20 S4 N8 O8"
_cell_length_a       7.152982871162222
_cell_length_b       9.813198194721366
_cell_length_c       9.813196335558562
_cell_angle_alpha    84.04913644990863
_cell_angle_beta     75.881962118082
_cell_angle_gamma    75.88189004624077

_space_group_name_H-M_alt    "P 1"
_space_group_IT_number       1

loop_
  _space_group_symop_operation_xyz
  'x, y, z'

loop_
  _atom_site_type_symbol
  _atom_site_label
  _atom_site_symmetry_multiplicity
  _atom_site_fract_x
  _atom_site_fract_y
  _atom_site_fract_z
  _atom_site_occupancy
  Cd  Cd1       1.0  0.7500005678975583  0.567089395424432  0.43291000636155264  1.0000
  Cd  Cd2       1.0  0.2500011303825005  0.4329105739844366  0.5670892049832545  1.0000
  H   H1        1.0  0.6846524049139616  0.061040610513075015  0.631925105991904  1.0000
  H   H2        1.0  0.8153491375782308  0.3680749529510052  0.9389589285237108  1.0000
  H   H3        1.0  0.3153492956094653  0.9389593656476333  0.36807308524380744  1.0000
  H   H4        1.0  0.18465078212417296  0.6319260669218779  0.061040493558927274  1.0000
  H   H5        1.0  0.37163992834550896  0.8214712756306001  0.0002933649919328242  1.0000
  H   H6        1.0  0.12835785057889387  0.9997070744020318  0.17852907566546608  1.0000
  H   H7        1.0  0.6283596516257576  0.1785307894033963  0.9997070346828635  1.0000
  H   H8        1.0  0.871640290545855  0.0002949959348583986  0.821470557155017  1.0000
  H   H9        1.0  0.8668706520840246  0.8825300632091951  0.4452493634977017  1.0000
  H   H10       1.0  0.6331290022322162  0.5547481191033725  0.1174710808600068  1.0000
  H   H11       1.0  0.1331263899253301  0.11747096726948311  0.5547485248763165  1.0000
  H   H12       1.0  0.3668712504712062  0.4452518353528915  0.882530423957789  1.0000
  H   H13       1.0  0.40022228337205235  0.7174949568741908  0.7041146993901465  1.0000
  H   H14       1.0  0.0997766961427331  0.2958834348142432  0.2825061626571923  1.0000
  H   H15       1.0  0.5997779670880021  0.2825049908302404  0.29588782553675236  1.0000
  H   H16       1.0  0.9002227949330647  0.7041144278708628  0.7174936402310906  1.0000
  C   C1        1.0  0.31383901551197363  0.9309961463072726  0.9717596214452513  1.0000
  C   C2        1.0  0.1861616063155935  0.028239853482773507  0.06900304656893039  1.0000
  C   C3        1.0  0.686160901947062  0.06900486681377768  0.028240820746489714  1.0000
  C   C4        1.0  0.8138368722969174  0.9717611649411779  0.9309966287684971  1.0000
  C   C5        1.0  0.36247958310894285  0.9899363426172768  0.8374234070147963  1.0000
  C   C6        1.0  0.137524164601281  0.16257718269395133  0.010062834965971467  1.0000
  C   C7        1.0  0.6375221129277477  0.0100636200397588  0.1625768244391139  1.0000
  C   C8        1.0  0.8624757573444981  0.8374238439307646  0.9899355670075778  1.0000
  C   C9        1.0  0.4881918337868925  0.9188065070495881  0.7141661267125697  1.0000
  C   C10       1.0  0.011808999980843293  0.2858338725552585  0.0811926014459274  1.0000
  C   C11       1.0  0.5118095225186677  0.08119450076855368  0.2858350823334845  1.0000
  C   C12       1.0  0.9881898161194297  0.7141660939557397  0.9188071164084588  1.0000
  C   C13       1.0  0.7353100504205514  0.8733081418200042  0.5256919845857481  1.0000
  C   C14       1.0  0.7646872235464105  0.47430681578534706  0.12669246334667145  1.0000
  C   C15       1.0  0.2646891031674841  0.12669077277804766  0.47430777578559  1.0000
  C   C16       1.0  0.23530870813070942  0.5256931410759479  0.8733087811263829  1.0000
  C   C17       1.0  0.495935913477858  0.7898276196083387  0.6651564866259392  1.0000
  C   C18       1.0  0.004065615041362475  0.33484193232634146  0.21017505037880108  1.0000
  C   C19       1.0  0.5040643369821964  0.21017232809608538  0.33484603830095244  1.0000
  C   C20       1.0  0.9959338715476986  0.6651559168550989  0.7898267927276806  1.0000
  S   S1        1.0  0.2500030921826592  0.16744917852405192  0.8325505601998131  1.0000
  S   S2        1.0  0.7499982686096375  0.8325518427977697  0.16744860862804248  1.0000
  S   S3        1.0  0.7500007858334213  0.333241576544239  0.666759330950903  1.0000
  S   S4        1.0  0.2499994668700013  0.6667583779120249  0.3332421738668927  1.0000
  N   N1        1.0  0.6508060033971008  0.7628356245837224  0.5488381540717384  1.0000
  N   N2        1.0  0.8491944019749411  0.45115942687611  0.23716566310769582  1.0000
  N   N3        1.0  0.3491945890374594  0.23716328471143563  0.4511623731539061  1.0000
  N   N4        1.0  0.15080508461411307  0.5488384223053231  0.7628361799987856  1.0000
  N   N5        1.0  0.6396745475826507  0.969405934772986  0.6226036113467189  1.0000
  N   N6        1.0  0.8603266654509698  0.3773960238512116  0.030594581217165673  1.0000
  N   N7        1.0  0.3603257096075154  0.030594033186950798  0.37739585325287817  1.0000
  N   N8        1.0  0.13967358949582837  0.6226039373568922  0.9694059034915342  1.0000
  O   O1        1.0  0.8099911174756044  0.18118774411728106  0.6413126975687646  1.0000
  O   O2        1.0  0.6900084099496908  0.3586875788105601  0.8188121771562464  1.0000
  O   O3        1.0  0.19000913971456151  0.8188122238426558  0.3586867670308322  1.0000
  O   O4        1.0  0.3099900686628133  0.6413134396133912  0.1811874981811812  1.0000
  O   O5        1.0  0.9167910730478822  0.4027893511952954  0.595014833194746  1.0000
  O   O6        1.0  0.5832090750593578  0.40498634486657886  0.5972100204169523  1.0000
  O   O7        1.0  0.08320917965554744  0.5972106032609688  0.40498667162304963  1.0000
  O   O8        1.0  0.4167911821308082  0.595013623093358  0.4027894441826376  1.0000
