data_image0
_chemical_formula_structural       Zn8H56C88N40O36
_chemical_formula_sum              "Zn8 H56 C88 N40 O36"
_cell_length_a       15.068042909472084
_cell_length_b       16.87520161401323
_cell_length_c       16.65681544172668
_cell_angle_alpha    89.93395668233468
_cell_angle_beta     89.85409409879348
_cell_angle_gamma    78.195399474714

_space_group_name_H-M_alt    "P 1"
_space_group_IT_number       1

loop_
  _space_group_symop_operation_xyz
  'x, y, z'

loop_
  _atom_site_type_symbol
  _atom_site_label
  _atom_site_symmetry_multiplicity
  _atom_site_fract_x
  _atom_site_fract_y
  _atom_site_fract_z
  _atom_site_occupancy
  Zn  Zn1       1.0  0.0005564341741148488  0.9979526044726087  0.3570116045130333  1.0000
  Zn  Zn2       1.0  0.5027287841599984  0.5032308869462554  0.85636520938435  1.0000
  Zn  Zn3       1.0  0.9955718890331582  0.00013305616642609873  0.6343775807044378  1.0000
  Zn  Zn4       1.0  0.5056022138787739  0.5007554518874998  0.13466591624989377  1.0000
  Zn  Zn5       1.0  0.8295600268734302  0.016383680209038697  0.5053853917382296  1.0000
  Zn  Zn6       1.0  0.16454712129981883  0.9812186579472881  0.5078163105759612  1.0000
  Zn  Zn7       1.0  0.33893939149036356  0.5111061239471082  0.007505761789708699  1.0000
  Zn  Zn8       1.0  0.6718458397857245  0.48254889574829457  0.005027800097749898  1.0000
  H   H1        1.0  0.9661692372689501  0.18630447037038775  0.6699514627734613  1.0000
  H   H2        1.0  0.0386912767043981  0.8129566292019561  0.6629502791789433  1.0000
  H   H3        1.0  0.4625714862600177  0.6880441612328312  0.16073613155743513  1.0000
  H   H4        1.0  0.5403913790110195  0.3147835201141547  0.17656829210724104  1.0000
  H   H5        1.0  0.8841643571938392  0.08594238661389399  0.7928786038041621  1.0000
  H   H6        1.0  0.10342308531001271  0.9115835672700285  0.794384350563888  1.0000
  H   H7        1.0  0.3936763043592252  0.5936421641756126  0.2911536975276761  1.0000
  H   H8        1.0  0.6164753966299799  0.41782013531904744  0.29387115173355477  1.0000
  H   H9        1.0  0.1263777827095822  0.08766747211895883  0.20726280748547768  1.0000
  H   H10       1.0  0.8798149484975967  0.9083923703447494  0.20581395695879925  1.0000
  H   H11       1.0  0.6246723839711522  0.5921581099095546  0.7069586251889247  1.0000
  H   H12       1.0  0.3809163091977936  0.4185408168184069  0.7004228338245537  1.0000
  H   H13       1.0  0.18707156512235906  0.17019635436673744  0.49944882818739694  1.0000
  H   H14       1.0  0.8096017610530738  0.824736478417762  0.5028003105902527  1.0000
  H   H15       1.0  0.6946398738256007  0.6726493551176916  0.0023723630054633  1.0000
  H   H16       1.0  0.323304189669102  0.3197518638562116  0.005135360223441399  1.0000
  H   H17       1.0  0.7512855529668842  0.5832332791608577  0.6141990915544752  1.0000
  H   H18       1.0  0.23949913561330044  0.42394594028242244  0.613971665020564  1.0000
  H   H19       1.0  0.25930267098912196  0.0808854342930942  0.11974180238039618  1.0000
  H   H20       1.0  0.7526973558209988  0.9153544744404627  0.11374457723800897  1.0000
  H   H21       1.0  0.8181753174503684  0.6772685914846048  0.5357672058928385  1.0000
  H   H22       1.0  0.16923675150754752  0.3322998785072713  0.5349840461139976  1.0000
  H   H23       1.0  0.3296888959937903  0.17350886747872346  0.042641073234229096  1.0000
  H   H24       1.0  0.6850654743333423  0.8225179281973779  0.03480128452159189  1.0000
  H   H25       1.0  0.4591704908998651  0.1181477566789795  0.3810622386193855  1.0000
  H   H26       1.0  0.5371031951763356  0.8862827859710976  0.36774437716987046  1.0000
  H   H27       1.0  0.9714826870468017  0.6049833066304017  0.8653263803962259  1.0000
  H   H28       1.0  0.0760531563206115  0.3460678142338054  0.8856357547754568  1.0000
  H   H29       1.0  0.7777147061149988  0.18516210375504016  0.8750165870643156  1.0000
  H   H30       1.0  0.21218886361450026  0.8105210712467041  0.876526492771198  1.0000
  H   H31       1.0  0.2822750032311632  0.6838354995987855  0.37654906586842424  1.0000
  H   H32       1.0  0.7217845084837862  0.3152148850524625  0.37466715458040767  1.0000
  H   H33       1.0  0.11743343510470788  0.6634788471558223  0.2748438113717881  1.0000
  H   H34       1.0  0.8900554632580506  0.331654572815374  0.27505230776247197  1.0000
  H   H35       1.0  0.6098423715761712  0.1679702691540754  0.7759648452795174  1.0000
  H   H36       1.0  0.3795728722140694  0.8372961196524287  0.7813211935487131  1.0000
  H   H37       1.0  0.9292850463565899  0.2236943754783454  0.25983647171685215  1.0000
  H   H38       1.0  0.07530598743047527  0.7721217093778919  0.2600666505477633  1.0000
  H   H39       1.0  0.4266264373272719  0.7307024372163013  0.7646905695912379  1.0000
  H   H40       1.0  0.5726284645265166  0.2765502900291708  0.7599022824065358  1.0000
  H   H41       1.0  0.5791385806528737  0.23153355501758446  0.3421421627049596  1.0000
  H   H42       1.0  0.41418148102800945  0.7754669739316782  0.32275962186670876  1.0000
  H   H43       1.0  0.09622842565239857  0.7158881283151571  0.8187670906406693  1.0000
  H   H44       1.0  0.9694861012840975  0.22291705733911021  0.8489614597577455  1.0000
  H   H45       1.0  0.37347197829074463  0.32237902612800445  0.32693044401087684  1.0000
  H   H46       1.0  0.6181567785035682  0.6808762072647524  0.3189757691481743  1.0000
  H   H47       1.0  0.8926416895194792  0.8117179635868084  0.8223288991272211  1.0000
  H   H48       1.0  0.1741721914674628  0.15227161991006  0.7946480711726378  1.0000
  H   H49       1.0  0.6408514985807725  0.07365162947700551  0.5752395389661514  1.0000
  H   H50       1.0  0.3514816517814339  0.9299733472937246  0.5814766695715361  1.0000
  H   H51       1.0  0.15084573758213787  0.5583637866565925  0.08051556898595179  1.0000
  H   H52       1.0  0.8604298640022208  0.42352029907128486  0.0738834140796243  1.0000
  H   H53       1.0  0.741939175016924  0.2709324671087644  0.5160467855132181  1.0000
  H   H54       1.0  0.2590249150653747  0.7272119209170782  0.5176452126416391  1.0000
  H   H55       1.0  0.23038914655362666  0.7636971399734164  0.016233556988645093  1.0000
  H   H56       1.0  0.7538718496306842  0.2277012068743645  0.018123580167632297  1.0000
  C   C1        1.0  0.9170121072543581  0.17093149684454537  0.3584665194052405  1.0000
  C   C2        1.0  0.08483658941000272  0.825025976124678  0.35882952602815266  1.0000
  C   C3        1.0  0.41454130294752645  0.6748135619994713  0.8615243058063269  1.0000
  C   C4        1.0  0.5837642411495382  0.3296246409210113  0.8582860389333077  1.0000
  C   C5        1.0  0.0171955336645198  0.1697634493115885  0.62341011062864  1.0000
  C   C6        1.0  0.9845276997498402  0.828371091085607  0.6193252679339948  1.0000
  C   C7        1.0  0.5171367198623856  0.6717723227453548  0.11739027423762137  1.0000
  C   C8        1.0  0.4894359918103248  0.32875904833111497  0.12989446471971888  1.0000
  C   C9        1.0  0.7226801897032759  0.0822028863757112  0.6622869520905111  1.0000
  C   C10       1.0  0.267609866993652  0.9196105980049579  0.666814153702667  1.0000
  C   C11       1.0  0.23236087009394885  0.5757796160399733  0.1647258649082701  1.0000
  C   C12       1.0  0.7782001391902611  0.4174020835394643  0.16167282303487698  1.0000
  C   C13       1.0  0.259758618474315  0.027076589810306497  0.358542114075405  1.0000
  C   C14       1.0  0.7401473892535294  0.9719229217991198  0.35258935672071345  1.0000
  C   C15       1.0  0.7641505302939888  0.5246782553275509  0.8523548761800226  1.0000
  C   C16       1.0  0.2493106919528642  0.4611699478563125  0.8566343060098517  1.0000
  C   C17       1.0  0.837914167709634  0.08031879995266421  0.7442338259643434  1.0000
  C   C18       1.0  0.1506361919764957  0.9186834054448523  0.7467846413607117  1.0000
  C   C19       1.0  0.34751669972523996  0.5831880940309732  0.24414364087242996  1.0000
  C   C20       1.0  0.6628047725437227  0.42224394701593576  0.24473132326391317  1.0000
  C   C21       1.0  0.1636934602955904  0.06257205909666651  0.26015985662272806  1.0000
  C   C22       1.0  0.8403551218399843  0.9343607673132083  0.2574156507183361  1.0000
  C   C23       1.0  0.6638404092001338  0.5652013713855979  0.7582263989195609  1.0000
  C   C24       1.0  0.3438268455073085  0.4377597800278394  0.7552479853762076  1.0000
  C   C25       1.0  0.12884450919314358  0.16227022759211715  0.5347842350697078  1.0000
  C   C26       1.0  0.868594178319917  0.8339894674145254  0.5360398976007018  1.0000
  C   C27       1.0  0.6347037739414106  0.6644439253676423  0.03511292669784179  1.0000
  C   C28       1.0  0.37960610590766214  0.33088721638993945  0.04094780504502179  1.0000
  C   C29       1.0  0.825451135885622  0.18756706167458506  0.4621864633949356  1.0000
  C   C30       1.0  0.17472826546107717  0.8094462732557586  0.463303989168537  1.0000
  C   C31       1.0  0.32014080193872024  0.6849075961905837  0.9630324069758555  1.0000
  C   C32       1.0  0.6729291708045722  0.31188568587001697  0.9632460593385018  1.0000
  C   C33       1.0  0.8466944155218242  0.22913652477487287  0.39344890858105686  1.0000
  C   C34       1.0  0.1555903656348363  0.7676677062188375  0.3941212485427314  1.0000
  C   C35       1.0  0.34045708522538115  0.7293560301880149  0.895952953482947  1.0000
  C   C36       1.0  0.6525544206055828  0.2707194668427846  0.8941046853256437  1.0000
  C   C37       1.0  0.08184813223218869  0.21277986138193944  0.5950181890040652  1.0000
  C   C38       1.0  0.9212662008681889  0.7830726706857193  0.5931079980366006  1.0000
  C   C39       1.0  0.5821239226166313  0.715816455840752  0.09195883824996536  1.0000
  C   C40       1.0  0.4274812058228363  0.28269410666122496  0.10235528175775947  1.0000
  C   C41       1.0  0.7432810962161441  0.10734340524468419  0.7397969701727474  1.0000
  C   C42       1.0  0.2456765347660693  0.8937673902962756  0.7437854540805232  1.0000
  C   C43       1.0  0.2522846140120977  0.6054707340165775  0.24050180662146656  1.0000
  C   C44       1.0  0.7571448392222492  0.3933970280193791  0.2396114425332598  1.0000
  C   C45       1.0  0.25392794884505326  0.0634802857362544  0.2809645142517354  1.0000
  C   C46       1.0  0.7487842308251872  0.9353569572065721  0.27506059318075415  1.0000
  C   C47       1.0  0.7559895213336387  0.5618075637422848  0.775135111722271  1.0000
  C   C48       1.0  0.25592872722798177  0.4297579718042286  0.7768552381073303  1.0000
  C   C49       1.0  0.3773561678529873  0.14518074443870432  0.26796860840809694  1.0000
  C   C50       1.0  0.6237474440121032  0.856283292821253  0.25736485908196727  1.0000
  C   C51       1.0  0.8830410113291903  0.6386913529764086  0.7568246334295095  1.0000
  C   C52       1.0  0.1431426258256678  0.3387754968941579  0.7642501130596172  1.0000
  C   C53       1.0  0.3147820571062141  0.10320397714365731  0.23517088518152454  1.0000
  C   C54       1.0  0.6894822940402676  0.896339606353429  0.22695808434760065  1.0000
  C   C55       1.0  0.8160513786031701  0.6001212181929318  0.726852485102114  1.0000
  C   C56       1.0  0.19719173849659913  0.3885730090992965  0.7305196515079969  1.0000
  C   C57       1.0  0.7993058850062766  0.6140064946486136  0.6437175972998189  1.0000
  C   C58       1.0  0.20097087470347932  0.3852554419442598  0.6454905589365153  1.0000
  C   C59       1.0  0.3040959519422159  0.1138391535767624  0.151000948255593  1.0000
  C   C60       1.0  0.7052192015088039  0.8839142601912899  0.14344186823396396  1.0000
  C   C61       1.0  0.8383652331191274  0.6673809949532339  0.5984375823611783  1.0000
  C   C62       1.0  0.1598173863663419  0.3333770167668959  0.5999642761718744  1.0000
  C   C63       1.0  0.3453758523429897  0.16625368127923681  0.10643741836648249  1.0000
  C   C64       1.0  0.6658075118006224  0.831146925060622  0.09787557023998518  1.0000
  C   C65       1.0  0.8991691911522678  0.7124241384425575  0.6316341862755052  1.0000
  C   C66       1.0  0.10965367883352427  0.2799288190182168  0.6353120031306997  1.0000
  C   C67       1.0  0.4022726081807022  0.2138381449106248  0.14173368766479644  1.0000
  C   C68       1.0  0.6055166863183032  0.7854444355417982  0.13114228330359617  1.0000
  C   C69       1.0  0.419309097231249  0.19690727772972852  0.22333804253761963  1.0000
  C   C70       1.0  0.5831885991442716  0.8046358436808774  0.21156333086891976  1.0000
  C   C71       1.0  0.9231947408483948  0.6911320227888497  0.7112977106042208  1.0000
  C   C72       1.0  0.10094925400817802  0.2882871906353657  0.7188166899642353  1.0000
  C   C73       1.0  0.4629645090561283  0.22777559102866013  0.296273584732674  1.0000
  C   C74       1.0  0.5339232033190131  0.7764196279153806  0.2829284469850534  1.0000
  C   C75       1.0  0.974728236604122  0.7167346673204519  0.7823291177016926  1.0000
  C   C76       1.0  0.0724482441729535  0.24437159105961836  0.7913499626811528  1.0000
  C   C77       1.0  0.4135779820672596  0.16593279323111426  0.34806220764337326  1.0000
  C   C78       1.0  0.5827028270472425  0.8372726626429453  0.3361871713394819  1.0000
  C   C79       1.0  0.9260663459357589  0.6551834130244245  0.8352699406121714  1.0000
  C   C80       1.0  0.12099366875420263  0.30616073507054137  0.8444120663911219  1.0000
  C   C81       1.0  0.7063100197370673  0.19994189109552712  0.8567025417736145  1.0000
  C   C82       1.0  0.2840298391782596  0.7990463913054596  0.8591101548211171  1.0000
  C   C83       1.0  0.21123853478729157  0.6977442041183791  0.3570187979498057  1.0000
  C   C84       1.0  0.7931898929082878  0.2999624404134805  0.3560320321556389  1.0000
  C   C85       1.0  0.18866858928031155  0.6564241924709221  0.2926272494094277  1.0000
  C   C86       1.0  0.8183743601040449  0.34073339250316076  0.29218660155683546  1.0000
  C   C87       1.0  0.6815037946045095  0.15930886817454135  0.792791209126527  1.0000
  C   C88       1.0  0.3078233718296488  0.8427501446485975  0.7969125594932365  1.0000
  N   N1        1.0  0.9352722069633186  0.10286308505016  0.40189222185103546  1.0000
  N   N2        1.0  0.06446604632741071  0.8928664870878151  0.40244309081177204  1.0000
  N   N3        1.0  0.43555878269428655  0.6060350933483676  0.9037355275179589  1.0000
  N   N4        1.0  0.5655087675481241  0.39772324212152194  0.9016002450406045  1.0000
  N   N5        1.0  0.026706304172599  0.0992048440064366  0.5842825664042832  1.0000
  N   N6        1.0  0.9690717419980927  0.9003551271161284  0.582140903429952  1.0000
  N   N7        1.0  0.5316175027190368  0.5998937647010151  0.08001405310755419  1.0000
  N   N8        1.0  0.4776432545548275  0.39863219582079507  0.08914079385795758  1.0000
  N   N9        1.0  0.7981331239022962  0.0443052408610001  0.62409922148597  1.0000
  N   N10       1.0  0.19254712625044582  0.9560365202634101  0.6274760550059638  1.0000
  N   N11       1.0  0.3086115033913047  0.5397310728821408  0.12667225280281968  1.0000
  N   N12       1.0  0.7031947249191931  0.45625805940772307  0.1237655578401515  1.0000
  N   N13       1.0  0.18036600973004369  0.0083099844804551  0.38017508751969575  1.0000
  N   N14       1.0  0.8192497459244166  0.9890071334493911  0.3769876520111524  1.0000
  N   N15       1.0  0.6843277343343388  0.5094756066299481  0.8774099452661871  1.0000
  N   N16       1.0  0.3265628597363772  0.4835366993879759  0.8786667382704109  1.0000
  N   N17       1.0  0.8701077541828469  0.042748651036696096  0.6760690865813997  1.0000
  N   N18       1.0  0.11957424080230782  0.9558266748357627  0.6782179322442872  1.0000
  N   N19       1.0  0.38048121116422357  0.5440372084658236  0.17703737704877648  1.0000
  N   N20       1.0  0.6311850705219371  0.45976494355488035  0.17646884475243496  1.0000
  N   N21       1.0  0.1220650138909463  0.028977627417276594  0.319981903106658  1.0000
  N   N22       1.0  0.8800537602422692  0.9671828286227536  0.3186419203237491  1.0000
  N   N23       1.0  0.6234231942749417  0.5331075605694621  0.8196585467730554  1.0000
  N   N24       1.0  0.3838201441134288  0.47014545957355836  0.8167371228309006  1.0000
  N   N25       1.0  0.09577631450179781  0.09414471577053969  0.5299695509044965  1.0000
  N   N26       1.0  0.8976094229794639  0.9040015826639732  0.5309111158446312  1.0000
  N   N27       1.0  0.6041232450122607  0.5952589519519833  0.0294421294575571  1.0000
  N   N28       1.0  0.40975021578765347  0.4002758465834616  0.0344750264839107  1.0000
  N   N29       1.0  0.8771033380760754  0.11305800534415059  0.4677152983619165  1.0000
  N   N30       1.0  0.1215755340486453  0.8832391417395726  0.4687027329182809  1.0000
  N   N31       1.0  0.3757056906986804  0.6122194030032373  0.9681265865094203  1.0000
  N   N32       1.0  0.6222728289993497  0.3868743659351067  0.9681528633403074  1.0000
  N   N33       1.0  0.3425111071460946  0.2063877291940415  0.40598136400858914  1.0000
  N   N34       1.0  0.6508907556285732  0.7962689155821535  0.3962975773448605  1.0000
  N   N35       1.0  0.859188439238835  0.6954344444778471  0.8970743412573154  1.0000
  N   N36       1.0  0.19971876356612484  0.2624832411417799  0.8914840118421022  1.0000
  N   N37       1.0  0.3319803957950072  8.151761088020008e-05  0.411956073439974  1.0000
  N   N38       1.0  0.6656775303496759  0.0011309745601195984  0.40336952701080253  1.0000
  N   N39       1.0  0.8386467129402391  0.493570756520647  0.9025026978195284  1.0000
  N   N40       1.0  0.17717666326262096  0.48072173087125253  0.9117884137518074  1.0000
  O   O1        1.0  0.9598984320787666  0.17423593324210176  0.28722538291920324  1.0000
  O   O2        1.0  0.04325942989128617  0.8212157525791068  0.28720881635423007  1.0000
  O   O3        1.0  0.45892499448869745  0.6816803077492535  0.7917433192825455  1.0000
  O   O4        1.0  0.5425869275335771  0.32677384051573444  0.7863706510635636  1.0000
  O   O5        1.0  0.5573538806643086  0.20543204100737  0.29594935347148515  1.0000
  O   O6        1.0  0.43991744477688843  0.8015876134563911  0.2785346186423395  1.0000
  O   O7        1.0  0.06842383755471804  0.6905912865354723  0.7753770798988666  1.0000
  O   O8        1.0  0.9791540480505033  0.2567834396928107  0.8034744800566854  1.0000
  O   O9        1.0  0.4392727077998301  0.30969353463223825  0.3170724233112877  1.0000
  O   O10       1.0  0.5532992735372204  0.6947683617070125  0.30517905753632135  1.0000
  O   O11       1.0  0.9571368901396229  0.7976532448936879  0.8069452995036311  1.0000
  O   O12       1.0  0.10814013579662428  0.1616318982228293  0.800881143371491  1.0000
  O   O13       1.0  0.34051158133355125  0.17621504487227924  0.4735964041543496  1.0000
  O   O14       1.0  0.289087490712582  0.2691085671246539  0.38343913459939927  1.0000
  O   O15       1.0  0.6536694024543123  0.8291377860672641  0.46238198619190024  1.0000
  O   O16       1.0  0.7013835272369776  0.7307310238915219  0.37691100822254947  1.0000
  O   O17       1.0  0.8562612646659319  0.6609439239840212  0.962314064252446  1.0000
  O   O18       1.0  0.8096656143930261  0.7620497962594113  0.8795888048416457  1.0000
  O   O19       1.0  0.19766822436465503  0.2715733053614854  0.9655063874118212  1.0000
  O   O20       1.0  0.26140690988202653  0.21625115348339816  0.8545847694817467  1.0000
  O   O21       1.0  0.6390087650249612  0.09634617744202957  0.6296448131587623  1.0000
  O   O22       1.0  0.35214034348972234  0.9071120856365482  0.6358483417662484  1.0000
  O   O23       1.0  0.14837676868842933  0.584276482449347  0.13349072935935877  1.0000
  O   O24       1.0  0.8617828321453658  0.40136579814721773  0.12856416134639656  1.0000
  O   O25       1.0  0.3115884295144299  0.9763977191853211  0.48171874058770203  1.0000
  O   O26       1.0  0.4111097514627886  0.997281206546461  0.39106786597072574  1.0000
  O   O27       1.0  0.683282048081594  0.0242442575608521  0.4739756544410908  1.0000
  O   O28       1.0  0.5874957641381967  0.006361557521529399  0.3791432311945258  1.0000
  O   O29       1.0  0.8203595518382016  0.4719622925523906  0.9735202743192698  1.0000
  O   O30       1.0  0.9168475596481613  0.48555287766537  0.8772068314362257  1.0000
  O   O31       1.0  0.1958917461755121  0.5044648327532711  0.9819767196866279  1.0000
  O   O32       1.0  0.09916708027044759  0.4770286319295849  0.8923728156085388  1.0000
  O   O33       1.0  0.7590962580192411  0.21212115078846241  0.5177108628307038  1.0000
  O   O34       1.0  0.24031462306876242  0.7859087983845756  0.5194327729888215  1.0000
  O   O35       1.0  0.25151626509418895  0.7051965868242362  0.0172381332730822  1.0000
  O   O36       1.0  0.7373877726677875  0.286530942366923  0.019903496402427796  1.0000
