data_image0
_chemical_formula_structural       Cr2Cu2H80C40N8O8
_chemical_formula_sum              "Cr2 Cu2 H80 C40 N8 O8"
_cell_length_a       9.454113990947054
_cell_length_b       11.690693285992
_cell_length_c       14.2623
_cell_angle_alpha    107.46040835680888
_cell_angle_beta     107.47518156060092
_cell_angle_gamma    102.3729902169589

_space_group_name_H-M_alt    "P 1"
_space_group_IT_number       1

loop_
  _space_group_symop_operation_xyz
  'x, y, z'

loop_
  _atom_site_type_symbol
  _atom_site_label
  _atom_site_symmetry_multiplicity
  _atom_site_fract_x
  _atom_site_fract_y
  _atom_site_fract_z
  _atom_site_occupancy
  Cr  Cr1       1.0  0.2825310370735466  0.1789769538529882  0.2768559785286016  1.0000
  Cr  Cr2       1.0  0.7174842566205586  0.8210463210390628  0.7231152786605293  1.0000
  Cu  Cu1       1.0  2.289811448e-06  2.8545424016e-06  4.663610326400001e-06  1.0000
  Cu  Cu2       1.0  0.4999899188009564  0.4999902283780386  0.49999331124852386  1.0000
  H   H1        1.0  0.924259544439174  0.1301975818307142  0.11816010456794157  1.0000
  H   H2        1.0  0.0757388613435808  0.8698009536938827  0.8818423730826624  1.0000
  H   H3        1.0  0.9161313798623996  0.0595114999270692  0.8447557270199014  1.0000
  H   H4        1.0  0.08387414504395709  0.9404908416540607  0.15524629922447997  1.0000
  H   H5        1.0  0.5682703165892918  0.3545579537657204  0.36541175530039294  1.0000
  H   H6        1.0  0.43173860704897044  0.6454472423578039  0.6345874426509186  1.0000
  H   H7        1.0  0.5505593027851817  0.6830472748328305  0.46598937209639507  1.0000
  H   H8        1.0  0.449437850136043  0.3169455516069704  0.5340135554858352  1.0000
  H   H9        1.0  0.23288600894578346  0.371469214449462  0.039528423546343616  1.0000
  H   H10       1.0  0.7671113598870534  0.6285321756175364  0.9604696417114911  1.0000
  H   H11       1.0  0.38178699476146966  0.3129996224978981  0.016000879081936113  1.0000
  H   H12       1.0  0.6182109836133095  0.6870112827104222  0.9839961419730231  1.0000
  H   H13       1.0  0.27812840777242803  0.2542521884195423  0.08734642790656011  1.0000
  H   H14       1.0  0.7218850954887304  0.7457587167887851  0.9126515800276495  1.0000
  H   H15       1.0  0.1173148210063744  0.22498266217790788  0.8554413192358298  1.0000
  H   H16       1.0  0.8826787554642267  0.7750149218325574  0.14455645734275185  1.0000
  H   H17       1.0  0.12257655711648144  0.0059450603022597  0.7933621349491846  1.0000
  H   H18       1.0  0.8774196308253651  0.9940534752223441  0.20664130352452773  1.0000
  H   H19       1.0  0.3072927168729294  0.1260746710929368  0.8466750287344882  1.0000
  H   H20       1.0  0.6926974608657659  0.8739200583751341  0.15332908188307215  1.0000
  H   H21       1.0  0.3555486050568746  0.9677469639905141  0.9094172138596619  1.0000
  H   H22       1.0  0.6444490134652199  0.0322496685058198  0.0905832367413879  1.0000
  H   H23       1.0  0.3653938900779252  0.0914319445429115  0.022905449227913294  1.0000
  H   H24       1.0  0.6345986494427578  0.9085684940099554  0.9770963287481038  1.0000
  H   H25       1.0  0.6961758367663934  0.0686574537723459  0.9008454004512175  1.0000
  H   H26       1.0  0.30381759576313533  0.9313344211533234  0.09915304679661571  1.0000
  H   H27       1.0  0.795539728513454  0.2949998296461445  0.11297020236778374  1.0000
  H   H28       1.0  0.20445116451536902  0.7049939483077878  0.8870289085675367  1.0000
  H   H29       1.0  0.6062057550679328  0.1792871474603146  0.041295860660348245  1.0000
  H   H30       1.0  0.3937883927517164  0.8207037759512232  0.9586996903527877  1.0000
  H   H31       1.0  0.5693375832905403  0.2450015680196458  0.8877898514634097  1.0000
  H   H32       1.0  0.4306551339488607  0.754991258420155  0.11220938857157144  1.0000
  H   H33       1.0  0.6132651894033786  0.3767567784858912  0.00559661364172834  1.0000
  H   H34       1.0  0.38672316412473867  0.6232389024963041  0.994405965577805  1.0000
  H   H35       1.0  0.8930919851554863  0.44929736143453164  0.028282510935113688  1.0000
  H   H36       1.0  0.1069004104241245  0.5506973680335321  0.9717220411577119  1.0000
  H   H37       1.0  0.7695751781077789  0.4338419173741102  0.9014713910981982  1.0000
  H   H38       1.0  0.23042179709472782  0.5661585211787568  0.09853547672343409  1.0000
  H   H39       1.0  0.7921230996194453  0.21942106207120557  0.8175275642853705  1.0000
  H   H40       1.0  0.207873731641989  0.7805736673968582  0.18247436501204825  1.0000
  H   H41       1.0  0.979362281024848  0.3393984306006175  0.8887301976346649  1.0000
  H   H42       1.0  0.02063794896848488  0.6605991534098479  0.11127100681723334  1.0000
  H   H43       1.0  0.010852993506858892  0.2783369141510832  0.04677500006170732  1.0000
  H   H44       1.0  0.9891461275660235  0.721660669859375  0.9532294893984812  1.0000
  H   H45       1.0  0.21517800134932236  0.4664855127309409  0.2022785233961386  1.0000
  H   H46       1.0  0.784821297442271  0.5335044591664584  0.7977248304213804  1.0000
  H   H47       1.0  0.1852619066823706  0.4134566785912099  0.3002575360557672  1.0000
  H   H48       1.0  0.814728664686655  0.5865390023909853  0.6997489903849401  1.0000
  H   H49       1.0  0.0753330799617018  0.5061550884449915  0.25312034001932204  1.0000
  H   H50       1.0  0.9246630360096049  0.49384059253721085  0.7468795774685051  1.0000
  H   H51       1.0  0.3288781907193226  0.6901665035750639  0.327981449409407  1.0000
  H   H52       1.0  0.6711206086937694  0.3098329834636644  0.6720192371692378  1.0000
  H   H53       1.0  0.3616914847348909  0.7576640616194226  0.5173724875830388  1.0000
  H   H54       1.0  0.6383084235986517  0.2423354254193057  0.48262771858404824  1.0000
  H   H55       1.0  0.1654781553470173  0.7009328859886423  0.42442893383721986  1.0000
  H   H56       1.0  0.8345149555227139  0.29906089196529  0.5755706185733516  1.0000
  H   H57       1.0  0.8638285940452803  0.5134646200137993  0.5549180578893315  1.0000
  H   H58       1.0  0.13617653723074602  0.48653677005319906  0.445089966322108  1.0000
  H   H59       1.0  0.8408574938686544  0.3796912480717083  0.4440573231624044  1.0000
  H   H60       1.0  0.1591465284869216  0.6203101419952901  0.5559490780130433  1.0000
  H   H61       1.0  0.7712467059811915  0.6223378186124648  0.4449954174373332  1.0000
  H   H62       1.0  0.2287603934464855  0.3776683290251981  0.5550120652045223  1.0000
  H   H63       1.0  0.6759148439586441  0.38903131080009257  0.23862834567339772  1.0000
  H   H64       1.0  0.3240862452658959  0.6109710307810374  0.7613791079631228  1.0000
  H   H65       1.0  0.8684350681133496  0.4679432323825168  0.3386121293179656  1.0000
  H   H66       1.0  0.13156974150287945  0.5320600607127446  0.6613941954594865  1.0000
  H   H67       1.0  0.8837000921523244  0.6649856335624378  0.3036530897114603  1.0000
  H   H68       1.0  0.11629981618121121  0.3350138534762905  0.6963506222015496  1.0000
  H   H69       1.0  0.8384676103038161  0.534914603111396  0.18458588185934846  1.0000
  H   H70       1.0  0.16153269166005665  0.465085835441471  0.8154174412800687  1.0000
  H   H71       1.0  0.6683197098174107  0.6701047795973523  0.1553945047813486  1.0000
  H   H72       1.0  0.3316771934145565  0.3298928044131131  0.8446046351592998  1.0000
  H   H73       1.0  0.5550939193661579  0.5135474017433594  0.12612763332907662  1.0000
  H   H74       1.0  0.4449052017067174  0.4864501822671059  0.8738754538327457  1.0000
  H   H75       1.0  0.4651228760501738  0.6691332836676764  0.23392575268699298  1.0000
  H   H76       1.0  0.534876101081629  0.3308585912579929  0.766073097099799  1.0000
  H   H77       1.0  0.6559973125844892  0.7436996402052287  0.33578472014703925  1.0000
  H   H78       1.0  0.3440014868285957  0.2562998468335067  0.6642180698791549  1.0000
  H   H79       1.0  0.45276388107809146  0.4654902289479494  0.2620511645174802  1.0000
  H   H80       1.0  0.5472392820462773  0.5345064035483844  0.7379496886225285  1.0000
  C   C1        1.0  0.26648211462204335  0.285683554771083  0.020859231812302433  1.0000
  C   C2        1.0  0.7335160414714608  0.7143197383241784  0.9791352513016208  1.0000
  C   C3        1.0  0.8529925215608358  0.818481990450941  0.0855142647143836  1.0000
  C   C4        1.0  0.14700373835155034  0.1815193996160573  0.9144863844025582  1.0000
  C   C5        1.0  0.7854527942765729  0.9195908337252731  0.131668082551002  1.0000
  C   C6        1.0  0.214539994933368  0.0804048472569221  0.8683360807682234  1.0000
  C   C7        1.0  0.7143396225265806  0.9805381684788657  0.05706776503978967  1.0000
  C   C8        1.0  0.28565656541526613  0.0194603670457312  0.9429342711355561  1.0000
  C   C9        1.0  0.7826466037102477  0.1387554999418725  0.9801304593595078  1.0000
  C   C10       1.0  0.21734768805047372  0.8612411325544613  0.019867926730292144  1.0000
  C   C11       1.0  0.7089635425737627  0.23111517076434038  0.031800857578353665  1.0000
  C   C12       1.0  0.29102956829596854  0.7688786071895919  0.9681965913846684  1.0000
  C   C13       1.0  0.6628775165981082  0.3092125962490258  0.9663239206749594  1.0000
  C   C14       1.0  0.33711430763244726  0.6907887938179726  0.03367865008820563  1.0000
  C   C15       1.0  0.8037246769184351  0.3794029392894416  0.9500555548123657  1.0000
  C   C16       1.0  0.19627118936361407  0.6205974992634182  0.04994828767490131  1.0000
  C   C17       1.0  0.8765702152289522  0.2870318502973745  0.8981125651972875  1.0000
  C   C18       1.0  0.12342786889400513  0.7129685882554853  0.10188891416850515  1.0000
  C   C19       1.0  0.9249391715180266  0.2119412094726059  0.9662965200683759  1.0000
  C   C20       1.0  0.07505773171394031  0.7880563745378595  0.0337026198722725  1.0000
  C   C21       1.0  0.1911241281550957  0.4937730350337759  0.2749764014000747  1.0000
  C   C22       1.0  0.8088704852654232  0.5062216944342879  0.7250285921680019  1.0000
  C   C23       1.0  0.3150912249364453  0.6172234301482149  0.36220961967438114  1.0000
  C   C24       1.0  0.6849104356371427  0.3827722508339804  0.6377935049491442  1.0000
  C   C25       1.0  0.26650325991882795  0.6709459180908226  0.45514161456284097  1.0000
  C   C26       1.0  0.733499187915413  0.3290516659196427  0.5448607325135059  1.0000
  C   C27       1.0  0.7804357779764715  0.42053784676812705  0.4939246312490441  1.0000
  C   C28       1.0  0.2195689596692247  0.5794625917847327  0.5060802759900654  1.0000
  C   C29       1.0  0.6870006404063816  0.5323531270656687  0.37919124657253894  1.0000
  C   C30       1.0  0.3130101074424588  0.4676511175437241  0.6208164942686453  1.0000
  C   C31       1.0  0.759054895481377  0.48289913152318314  0.2985871120032187  1.0000
  C   C32       1.0  0.24095213197576731  0.5171041615720782  0.7014182519511182  1.0000
  C   C33       1.0  0.7915828047634009  0.5745423122035902  0.24418974976739358  1.0000
  C   C34       1.0  0.20841749720047184  0.4254581263492696  0.755811469924474  1.0000
  C   C35       1.0  0.6430467265290716  0.6017137497822134  0.19170148659867436  1.0000
  C   C36       1.0  0.3569505703332254  0.39828478574238346  0.8082993680159305  1.0000
  C   C37       1.0  0.5728888592169525  0.6515835570007695  0.2726654798040613  1.0000
  C   C38       1.0  0.42711287332716813  0.3484149785238273  0.7273383612086093  1.0000
  C   C39       1.0  0.5375819709988647  0.5573884154159714  0.3242210020106669  1.0000
  C   C40       1.0  0.4624219074156244  0.44260726556623103  0.6757818629389264  1.0000
  N   N1        1.0  0.8376083369263725  0.0669732737571422  0.04427944125821169  1.0000
  N   N2        1.0  0.1623833433631107  0.9330224072250601  0.9557216967266556  1.0000
  N   N3        1.0  0.0012683239410832628  0.8789982893023307  0.07743916046013061  1.0000
  N   N4        1.0  0.9987312627326617  0.1210031007646677  0.9225649554664346  1.0000
  N   N5        1.0  0.6440442424766034  0.442475956615894  0.4283964756847426  1.0000
  N   N6        1.0  0.3559637499599191  0.5575216273945713  0.5716055727813726  1.0000
  N   N7        1.0  0.4692670846949909  0.6000286182528782  0.403513634442355  1.0000
  N   N8        1.0  0.5307339325590023  0.3999708687858501  0.5964909993574637  1.0000
  O   O1        1.0  0.1382947559234751  0.186391151976423  0.1800097641524445  1.0000
  O   O2        1.0  0.86169588741609  0.8136073835481809  0.8199638235166021  1.0000
  O   O3        1.0  0.4485919755651295  0.21907851698336597  0.2579462366857967  1.0000
  O   O4        1.0  0.5514067562926783  0.7809476124510866  0.7420168166345819  1.0000
  O   O5        1.0  0.2376956625089477  0.0317425114729915  0.2718771267711375  1.0000
  O   O6        1.0  0.7623534363702192  0.968287424017987  0.7281074057450285  1.0000
  O   O7        1.0  0.30400559479490863  0.2814398017384221  0.39419755424689384  1.0000
  O   O8        1.0  0.6960376715998324  0.7185787155829715  0.6057781009802528  1.0000
