data_image0
_chemical_formula_structural       Zn2H20C48N4Cl4O12
_chemical_formula_sum              "Zn2 H20 C48 N4 Cl4 O12"
_cell_length_a       9.242126394486368
_cell_length_b       10.945345391298824
_cell_length_c       23.682661427517072
_cell_angle_alpha    86.01365972404709
_cell_angle_beta     78.80086030489588
_cell_angle_gamma    66.47426296762534

_space_group_name_H-M_alt    "P 1"
_space_group_IT_number       1

loop_
  _space_group_symop_operation_xyz
  'x, y, z'

loop_
  _atom_site_type_symbol
  _atom_site_label
  _atom_site_symmetry_multiplicity
  _atom_site_fract_x
  _atom_site_fract_y
  _atom_site_fract_z
  _atom_site_occupancy
  Zn  Zn1       1.0  0.6937377366368838  0.43460706329150167  0.4868230338385474  1.0000
  Zn  Zn2       1.0  0.34454765818822614  0.5559501602051498  0.5096439630538755  1.0000
  H   H1        1.0  0.5479090628156487  0.7803842970944216  0.9318613066531256  1.0000
  H   H2        1.0  0.549589294117567  0.7816915557744579  0.038654213774833614  1.0000
  H   H3        1.0  0.8796229550467772  0.6871892567015652  0.3186480922258781  1.0000
  H   H4        1.0  0.8519128384252499  0.4960989416716828  0.3771232726687757  1.0000
  H   H5        1.0  0.9542144274610822  0.33592989466362166  0.557792760845942  1.0000
  H   H6        1.0  0.4305638186425469  0.2108780852036887  0.06841758960633372  1.0000
  H   H7        1.0  0.42969558030331706  0.20949129752387563  0.9615613627161752  1.0000
  H   H8        1.0  0.2457230635127131  0.5607847774301362  0.23634339041230132  1.0000
  H   H9        1.0  0.25977845243814107  0.5632252632598238  0.340784182622663  1.0000
  H   H10       1.0  0.7729216647283009  0.422996494415898  0.2982422485933824  1.0000
  H   H11       1.0  0.7593876917236102  0.42658761837863324  0.1935305289262033  1.0000
  H   H12       1.0  0.7407378443768593  0.46655724784950797  0.6610525946986244  1.0000
  H   H13       1.0  0.7381157244901859  0.46977183710615134  0.7669275766915291  1.0000
  H   H14       1.0  0.24926277319253398  0.5106192271728246  0.6953039598724617  1.0000
  H   H15       1.0  0.24555699694946745  0.5123816495474216  0.8013439688313256  1.0000
  H   H16       1.0  0.5083711391333026  0.7839374139637556  0.39618811076501714  1.0000
  H   H17       1.0  0.5285943216376552  0.9022081317065941  0.3040970217649885  1.0000
  H   H18       1.0  0.5709398361225981  0.21713105200529262  0.38988446878241945  1.0000
  H   H19       1.0  0.5489083876887975  0.08555841715065068  0.5884780750493733  1.0000
  H   H20       1.0  0.15558107385765405  0.4267630740149145  0.576525457976615  1.0000
  C   C1        1.0  0.5029243432282444  0.7341596964926466  0.5021785966555044  1.0000
  C   C2        1.0  0.46998412602633277  0.3902011525241065  0.127534430495885  1.0000
  C   C3        1.0  0.3605121627592709  0.5325726048539465  0.2501795095141333  1.0000
  C   C4        1.0  0.5228049225723695  0.497652976838289  0.38831977168095483  1.0000
  C   C5        1.0  0.3683502530223635  0.5336735934530807  0.308203447866525  1.0000
  C   C6        1.0  0.5165316032180485  0.4956755346045228  0.3256665666761194  1.0000
  C   C7        1.0  0.6577345912556112  0.45546197134089544  0.2843165129657308  1.0000
  C   C8        1.0  0.6504828981289493  0.4560849270026282  0.22613694379847973  1.0000
  C   C9        1.0  0.5018708380491931  0.4947800833336871  0.20945260775285135  1.0000
  C   C10       1.0  0.6319403414705607  0.477333505433336  0.7509915666975359  1.0000
  C   C11       1.0  0.6333807750570275  0.4756138570122986  0.6922016878154551  1.0000
  C   C12       1.0  0.5315236457936975  0.7016841045240695  0.9598006787804465  1.0000
  C   C13       1.0  0.49569198253783503  0.4869495749070509  0.6720762974875572  1.0000
  C   C14       1.0  0.3558206835679344  0.5007609820916983  0.7115388022719885  1.0000
  C   C15       1.0  0.35361464911290613  0.5024185511772002  0.7703992321436675  1.0000
  C   C16       1.0  0.5593675560786908  0.2455421284767709  0.4970774573383423  1.0000
  C   C17       1.0  0.49183752632936967  0.4905936620955203  0.7897660638424926  1.0000
  C   C18       1.0  0.5220351068210791  0.8784846678727122  0.3953496675420922  1.0000
  C   C19       1.0  0.5332664828026241  0.9438161928884907  0.3438696408150008  1.0000
  C   C20       1.0  0.5505451447353806  0.0667795893725653  0.3424921784484312  1.0000
  C   C21       1.0  0.5564376547832595  0.12285493687905105  0.39191967467129274  1.0000
  C   C22       1.0  0.5449923937263604  0.05715492133621326  0.44536902848920334  1.0000
  C   C23       1.0  0.5324156951014204  0.7024261834291606  0.01902649806599751  1.0000
  C   C24       1.0  0.5279300906906244  0.932348057807822  0.4474010341788032  1.0000
  C   C25       1.0  0.5160435273260902  0.8664910377605324  0.5011657082682177  1.0000
  C   C26       1.0  0.5244268354034746  0.9221200677578237  0.5504502144799163  1.0000
  C   C27       1.0  0.5427445474235526  0.04442385884897964  0.5488317323204229  1.0000
  C   C28       1.0  0.49781055568899274  0.4855679378341479  0.6087481906960406  1.0000
  C   C29       1.0  0.5511928115394724  0.11118151749506928  0.497534571059255  1.0000
  C   C30       1.0  0.03446875397054332  0.7223647725565172  0.4332196606029442  1.0000
  C   C31       1.0  0.9788222358001878  0.7487669101185332  0.3812659470865968  1.0000
  C   C32       1.0  0.9210546776827616  0.662747506280411  0.3596080727944725  1.0000
  C   C33       1.0  0.9082995783212909  0.556233156933345  0.3910935071513891  1.0000
  C   C34       1.0  0.5120671991504581  0.6010890488458003  0.05405881965251782  1.0000
  C   C35       1.0  0.9593469111586261  0.5289439443374279  0.4447643113826842  1.0000
  C   C36       1.0  0.0375764552103277  0.6042097702137994  0.4634813603059841  1.0000
  C   C37       1.0  0.08994497264085062  0.462622249896505  0.541093063632296  1.0000
  C   C38       1.0  0.9871339026197533  0.4057875887462785  0.5285444050367687  1.0000
  C   C39       1.0  0.4672921794754218  0.3867097433867882  0.8837601274082659  1.0000
  C   C40       1.0  0.5108417032049672  0.6002571772331394  0.8726666533649663  1.0000
  C   C41       1.0  0.5103076346742625  0.5994968676867672  0.93539509450504  1.0000
  C   C42       1.0  0.488593127801089  0.495455609947598  0.970198094435446  1.0000
  C   C43       1.0  0.4668143921038493  0.3903285497512883  0.9463191174672619  1.0000
  C   C44       1.0  0.4892474083266265  0.49629694243000716  0.030290116514976317  1.0000
  C   C45       1.0  0.467778582143609  0.39200791251200684  0.065005442326445  1.0000
  C   C46       1.0  0.44624260251864467  0.28998507325697176  0.0405754974865218  1.0000
  C   C47       1.0  0.4458460334856227  0.28914091972961126  0.9813161409804394  1.0000
  C   C48       1.0  0.5154722868783568  0.6029227191863454  0.11635542454920514  1.0000
  N   N1        1.0  0.4898902805473285  0.49254590013536875  0.8507989315467415  1.0000
  N   N2        1.0  0.49514015061134836  0.4960065402770226  0.1489374987157674  1.0000
  N   N3        1.0  0.11255767957651124  0.5612809818548071  0.5098858970717332  1.0000
  N   N4        1.0  0.9263333720107384  0.43603209027833145  0.4806328935199034  1.0000
  Cl  Cl1       1.0  0.516793912674558  0.8410411183789889  0.6158217214634548  1.0000
  Cl  Cl2       1.0  0.5628499892255547  0.14699966984842666  0.27722838642208103  1.0000
  Cl  Cl3       1.0  0.09247177864386912  0.8300664118026119  0.4617786659549525  1.0000
  Cl  Cl4       1.0  0.9791058498148645  0.8857470715533824  0.3418399988685863  1.0000
  O   O1        1.0  0.6297444601236535  0.6387018499161101  0.4795123018859542  1.0000
  O   O2        1.0  0.6309952050195946  0.46618602183291824  0.575323173107094  1.0000
  O   O3        1.0  0.36590897937139744  0.5044689306089154  0.5929222030651502  1.0000
  O   O4        1.0  0.4498790001496076  0.29699488842008037  0.8612084058290961  1.0000
  O   O5        1.0  0.5282237087143854  0.6888358710909371  0.84092233916072  1.0000
  O   O6        1.0  0.5350490760618668  0.6912289321614653  0.13916896096978357  1.0000
  O   O7        1.0  0.45232579057366734  0.3020841390628631  0.1595612499573065  1.0000
  O   O8        1.0  0.36927376127683714  0.7277954054946535  0.5234063551647026  1.0000
  O   O9        1.0  0.657704590989546  0.4311025182674299  0.40357491273552887  1.0000
  O   O10       1.0  0.39276012043472247  0.5660757166387003  0.421544605000321  1.0000
  O   O11       1.0  0.6942023345072241  0.24956685443628876  0.4990340746330588  1.0000
  O   O12       1.0  0.42900169246629366  0.34460070935995196  0.4942816308587299  1.0000
