data_image0
_chemical_formula_structural       Ca2H12C16S2O16
_chemical_formula_sum              "Ca2 H12 C16 S2 O16"
_cell_length_a       6.843409810747969
_cell_length_b       8.231089514620086
_cell_length_c       9.479751727472905
_cell_angle_alpha    96.5949310834956
_cell_angle_beta     89.99847510860828
_cell_angle_gamma    90.00090835918563

_space_group_name_H-M_alt    "P 1"
_space_group_IT_number       1

loop_
  _space_group_symop_operation_xyz
  'x, y, z'

loop_
  _atom_site_type_symbol
  _atom_site_label
  _atom_site_symmetry_multiplicity
  _atom_site_fract_x
  _atom_site_fract_y
  _atom_site_fract_z
  _atom_site_occupancy
  Ca  Ca1       1.0  0.7500029650321949  0.7641049152149436  0.4932694030026497  1.0000
  Ca  Ca2       1.0  0.2499969353004801  0.23589624364012007  0.5067317065367901  1.0000
  H   H1        1.0  0.7499924845952467  0.7142231081755528  0.7982406895907985  1.0000
  H   H2        1.0  0.250007415679761  0.28577559910785066  0.2017622804152026  1.0000
  H   H3        1.0  0.8715358570807866  0.5096092346157735  0.683593261476183  1.0000
  H   H4        1.0  0.37155046450843815  0.4903895597864861  0.31640737930713675  1.0000
  H   H5        1.0  0.12846696578169056  0.490390704049908  0.3164066690721441  1.0000
  H   H6        1.0  0.6284538195850544  0.5096091531012379  0.683593481461223  1.0000
  H   H7        1.0  0.7499971374855292  0.2687001964217757  0.7909748076526455  1.0000
  H   H8        1.0  0.25000276286878187  0.7312936356218105  0.2090213372970524  1.0000
  H   H9        1.0  0.7500120755604343  0.5103536387789022  0.9776279590197134  1.0000
  H   H10       1.0  0.24998928617844035  0.4896463194113638  0.022364589349258827  1.0000
  H   H11       1.0  0.7499926462296926  0.9465565838026182  0.1168588980407819  1.0000
  H   H12       1.0  0.2500014090628611  0.053447018221554315  0.8831435148819367  1.0000
  C   C1        1.0  0.7499941454503231  0.9514482825199055  0.8308684364049768  1.0000
  C   C2        1.0  0.2500057548830839  0.048550433134551006  0.16913136980419807  1.0000
  C   C3        1.0  0.7499956035712787  0.09375111382836111  0.9422451174514208  1.0000
  C   C4        1.0  0.2500013741941274  0.9062463732341616  0.05775667361648834  1.0000
  C   C5        1.0  0.7500022198770253  0.2525597627381019  0.9032840350303886  1.0000
  C   C6        1.0  0.24999914177462307  0.7474389612952737  0.09671260736870124  1.0000
  C   C7        1.0  0.7500097758098649  0.3863832165770803  0.0075951825232039175  1.0000
  C   C8        1.0  0.24999012458192746  0.6136155074484224  0.9924014598891374  1.0000
  C   C9        1.0  0.7500127470097411  0.3642184882801019  0.1520501302348762  1.0000
  C   C10       1.0  0.24998569216977984  0.6357839075143161  0.8479458306887581  1.0000
  C   C11       1.0  0.750004672923339  0.2036181744538297  0.18989544817978296  1.0000
  C   C12       1.0  0.24999230492784366  0.7963854331667974  0.8101048555185386  1.0000
  C   C13       1.0  0.7499965437655548  0.0697433217766701  0.0859922771177466  1.0000
  C   C14       1.0  0.24999897278757297  0.930257837054761  0.9140088324614553  1.0000
  C   C15       1.0  0.7500122073739419  0.5145338344322142  0.2591009059709534  1.0000
  C   C16       1.0  0.24998477050679924  0.485468555773629  0.7408971641638189  1.0000
  S   S1        1.0  0.7500024231985308  0.16470797004153337  0.3711064719518831  1.0000
  S   S2        1.0  0.24999601590312895  0.8352944145914875  0.6288937073675314  1.0000
  O   O1        1.0  0.7499918416671181  0.8075225794872054  0.8813959884893094  1.0000
  O   O2        1.0  0.25000951981007813  0.19247367623241024  0.11860884197000839  1.0000
  O   O3        1.0  0.7499949102973532  0.5763244515014777  0.6745659684403407  1.0000
  O   O4        1.0  0.25000791255502725  0.42367670736933155  0.325435141072596  1.0000
  O   O5        1.0  0.7499981301454143  0.9672883719251645  0.7021526681925536  1.0000
  O   O6        1.0  0.25000030878323554  0.032706657992868315  0.2978530925265588  1.0000
  O   O7        1.0  0.9121972588018396  0.5781509462361214  0.3017520623697436  1.0000
  O   O8        1.0  0.41217748719770253  0.42185074900319114  0.6982417622440948  1.0000
  O   O9        1.0  0.08780556411830533  0.4218514440012201  0.6982460077120152  1.0000
  O   O10       1.0  0.5878238744532214  0.5781504182307984  0.30175618348526  1.0000
  O   O11       1.0  0.9259829530530653  0.24185083873203442  0.43572106710198  1.0000
  O   O12       1.0  0.4259833014675253  0.7581620010096373  0.5642778449364272  1.0000
  O   O13       1.0  0.0740198698663619  0.7581539947059143  0.5642783063100439  1.0000
  O   O14       1.0  0.5740180601718593  0.24184527283069462  0.4357238864180601  1.0000
  O   O15       1.0  0.7500045041914379  0.9858513564088374  0.3659272162056553  1.0000
  O   O16       1.0  0.24999393487057386  0.014153465844081803  0.6340763756419107  1.0000
