data_image0
_chemical_formula_structural       Mn4H20C28N24Cl4O8
_chemical_formula_sum              "Mn4 H20 C28 N24 Cl4 O8"
_cell_length_a       6.877468332143859
_cell_length_b       11.76289504092563
_cell_length_c       12.901431508190354
_cell_angle_alpha    89.99820578505474
_cell_angle_beta     89.99763750887608
_cell_angle_gamma    106.19000384102137

_space_group_name_H-M_alt    "P 1"
_space_group_IT_number       1

loop_
  _space_group_symop_operation_xyz
  'x, y, z'

loop_
  _atom_site_type_symbol
  _atom_site_label
  _atom_site_symmetry_multiplicity
  _atom_site_fract_x
  _atom_site_fract_y
  _atom_site_fract_z
  _atom_site_occupancy
  Mn  Mn1       1.0  0.014185863070025593  0.28954797578131775  0.8302369040360134  1.0000
  Mn  Mn2       1.0  0.486637736726429  0.7111490272158532  0.3297945675287862  1.0000
  Mn  Mn3       1.0  0.9866082023910181  0.711170233383129  0.1701891489703016  1.0000
  Mn  Mn4       1.0  0.5141695756222973  0.28952864612633533  0.6697904939706305  1.0000
  H   H1        1.0  0.4164326985853606  0.3441170582264804  0.19101984575436862  1.0000
  H   H2        1.0  0.08393108298806602  0.6562755825587062  0.6907688679960557  1.0000
  H   H3        1.0  0.5839539229795959  0.6563085443693097  0.8092325916183469  1.0000
  H   H4        1.0  0.9164137503199896  0.34411626327023015  0.3089479708234535  1.0000
  H   H5        1.0  0.37143814898099237  0.4061482860818302  0.0681098174426396  1.0000
  H   H6        1.0  0.12871696487518136  0.5940737922254371  0.5678844711348106  1.0000
  H   H7        1.0  0.6287033173820903  0.5940870872973748  0.9321085205111005  1.0000
  H   H8        1.0  0.8714795000753668  0.4061609878001634  0.4318726771121463  1.0000
  H   H9        1.0  0.29242504964553717  0.11420530280021521  0.9015270051580514  1.0000
  H   H10       1.0  0.20775116058984375  0.8858913350168722  0.4014320321733749  1.0000
  H   H11       1.0  0.707733987159244  0.8859047576975173  0.0985642167277447  1.0000
  H   H12       1.0  0.7924102485983153  0.11417988410909173  0.598481690560817  1.0000
  H   H13       1.0  0.3792854692069269  0.026105808408907204  0.0712419631787995  1.0000
  H   H14       1.0  0.12040735797976497  0.9736713179881776  0.5712438643753615  1.0000
  H   H15       1.0  0.6204434824091576  0.9737035810923655  0.9287446280218106  1.0000
  H   H16       1.0  0.8792898855942395  0.026088455270333096  0.4287605553511611  1.0000
  H   H17       1.0  0.1837803618513476  0.0501766157590069  0.2298392697186316  1.0000
  H   H18       1.0  0.3156955077968817  0.9494580133416195  0.729823768393132  1.0000
  H   H19       1.0  0.8157318099595942  0.9494629986867056  0.770167479014205  1.0000
  H   H20       1.0  0.6838269607043798  0.05019755005835691  0.2701636023074627  1.0000
  C   C1        1.0  0.5642796700417774  0.5325486490445925  0.1694389039311446  1.0000
  C   C2        1.0  0.9365711762357308  0.46784329555460163  0.6695129497086896  1.0000
  C   C3        1.0  0.43655751052158825  0.46785451195390254  0.8304957347952849  1.0000
  C   C4        1.0  0.06431819519491465  0.5325689574552755  0.3305480309033157  1.0000
  C   C5        1.0  0.9922447220624943  0.19672235298506285  0.0635765072704473  1.0000
  C   C6        1.0  0.5076130167853776  0.8031771583716394  0.5634639958529277  1.0000
  C   C7        1.0  0.007614997832028777  0.8031715919080256  0.9365465003030522  1.0000
  C   C8        1.0  0.4922659826283675  0.19673013660665356  0.4364381056061291  1.0000
  C   C9        1.0  0.48392912294069385  0.40521066120231103  0.1284988362909587  1.0000
  C   C10       1.0  0.016350351139713785  0.5950487204502509  0.6283580074113146  1.0000
  C   C11       1.0  0.5163663893208008  0.5950590516336973  0.8716598162385624  1.0000
  C   C12       1.0  0.983924955216146  0.4052244306420007  0.37148982706118255  1.0000
  C   C13       1.0  0.21933923675882733  0.12253100172754469  0.9751970049282476  1.0000
  C   C14       1.0  0.28067389660835573  0.8774524475422756  0.4751177768354822  1.0000
  C   C15       1.0  0.7806884283890624  0.8774618210875362  0.024888019167185905  1.0000
  C   C16       1.0  0.7193363760766045  0.12252792734093286  0.5248145513889  1.0000
  C   C17       1.0  0.2665114196334883  0.0749646842890073  0.0674335789776705  1.0000
  C   C18       1.0  0.23320212439009685  0.924825105548287  0.5673732553455437  1.0000
  C   C19       1.0  0.7332428983281715  0.9248492473644492  0.9326227715896849  1.0000
  C   C20       1.0  0.7665008179464649  0.07495324374138333  0.4325753562939241  1.0000
  C   C21       1.0  0.8576153086138302  0.27317555586686393  0.05772632553194511  1.0000
  C   C22       1.0  0.6422553423843096  0.7267508113131382  0.5576263267738142  1.0000
  C   C23       1.0  0.14224805721433142  0.7267325377327297  0.9423912560457239  1.0000
  C   C24       1.0  0.3576200634024929  0.27319267376867634  0.4422835252827682  1.0000
  C   C25       1.0  0.15822265424016987  0.0885688962064108  0.15601850027700692  1.0000
  C   C26       1.0  0.34137840966639016  0.9111504773621846  0.6559841768517954  1.0000
  C   C27       1.0  0.8413859498027277  0.9111533367859722  0.8440052986214539  1.0000
  C   C28       1.0  0.6582441792565206  0.08856741198979991  0.3439876897390306  1.0000
  N   N1        1.0  0.6412795837733467  0.36224641377593503  0.08126426567531549  1.0000
  N   N2        1.0  0.858735328481181  0.6378040101941665  0.5811661048860302  1.0000
  N   N3        1.0  0.358710193499327  0.6378027375600581  0.9188385854938659  1.0000
  N   N4        1.0  0.14129362974690446  0.3622418122766859  0.4187173904122687  1.0000
  N   N5        1.0  0.725292568917517  0.28727511782427945  0.1289173006737272  1.0000
  N   N6        1.0  0.7747181379317636  0.7127808156856545  0.6287939694813075  1.0000
  N   N7        1.0  0.2747019007646331  0.7127873039039302  0.8711987270879717  1.0000
  N   N8        1.0  0.2253255792564701  0.2872686146300509  0.3710623968363862  1.0000
  N   N9        1.0  0.07982491630661313  0.18290140631696528  0.9726901452323133  1.0000
  N   N10       1.0  0.42035114495728  0.8171916215230368  0.4725251991145853  1.0000
  N   N11       1.0  0.9203622181365673  0.8172096771173687  0.027490213736328404  1.0000
  N   N12       1.0  0.5798174207643781  0.1828981811423915  0.5273272897624963  1.0000
  N   N13       1.0  0.7159049098917619  0.39557341566732174  0.9870516299621314  1.0000
  N   N14       1.0  0.7839716421236529  0.6043621050767172  0.4869863547258504  1.0000
  N   N15       1.0  0.2839424296679026  0.6043628582525358  0.0130233204535273  1.0000
  N   N16       1.0  0.2159410657064953  0.3955771529805647  0.512921946780331  1.0000
  N   N17       1.0  0.8536251355453995  0.3392011706447989  0.971648035803895  1.0000
  N   N18       1.0  0.6461792353869524  0.6606888438498687  0.4715817411547789  1.0000
  N   N19       1.0  0.14617910944180318  0.66067659875592  0.028419939936561896  1.0000
  N   N20       1.0  0.35359263616961556  0.33920377904870963  0.528331988266757  1.0000
  N   N21       1.0  0.020379575468488998  0.14981318850266942  0.154813016319828  1.0000
  N   N22       1.0  0.47915570443989  0.8498644070323497  0.6547519481196531  1.0000
  N   N23       1.0  0.9791598350097603  0.849860121416832  0.8452456638632242  1.0000
  N   N24       1.0  0.5204022044272277  0.1498142980296677  0.3451958913767257  1.0000
  Cl  Cl1       1.0  0.1535224320926574  0.16656916932682722  0.7096397186808474  1.0000
  Cl  Cl2       1.0  0.34386779293159714  0.8319873320145279  0.21025722715994988  1.0000
  Cl  Cl3       1.0  0.8438818751977519  0.8320168227170087  0.2897462061515412  1.0000
  Cl  Cl4       1.0  0.6535216389105896  0.16654468189980778  0.7903812727845575  1.0000
  O   O1        1.0  0.6978396300200626  0.6043581500381947  0.11648807164963422  1.0000
  O   O2        1.0  0.8030819268751016  0.3957471671448332  0.6167212559390691  1.0000
  O   O3        1.0  0.30312860438710487  0.3957754386521443  0.883293098207794  1.0000
  O   O4        1.0  0.1978528039980603  0.6043517991878531  0.3834838987280591  1.0000
  O   O5        1.0  0.4810094707145253  0.5534690992817275  0.2520086188239077  1.0000
  O   O6        1.0  0.02027274040611363  0.4472500766411259  0.7520300804271399  1.0000
  O   O7        1.0  0.5202507867774315  0.4472541277870193  0.7479686417613323  1.0000
  O   O8        1.0  0.9809705763122806  0.5535119212864857  0.2480006622194608  1.0000
