data_image0
_chemical_formula_structural       Zn2H46C50N4O12
_chemical_formula_sum              "Zn2 H46 C50 N4 O12"
_cell_length_a       9.959274611450347
_cell_length_b       10.87986214654088
_cell_length_c       11.868231697926623
_cell_angle_alpha    83.3857555326976
_cell_angle_beta     77.41064573541237
_cell_angle_gamma    65.06740185679246

_space_group_name_H-M_alt    "P 1"
_space_group_IT_number       1

loop_
  _space_group_symop_operation_xyz
  'x, y, z'

loop_
  _atom_site_type_symbol
  _atom_site_label
  _atom_site_symmetry_multiplicity
  _atom_site_fract_x
  _atom_site_fract_y
  _atom_site_fract_z
  _atom_site_occupancy
  Zn  Zn1       1.0  0.6354518367977987  0.2526310896879451  0.4963292188225664  1.0000
  Zn  Zn2       1.0  0.364549033576317  0.7473680946231765  0.5036707181341313  1.0000
  H   H1        1.0  0.4446920710751456  0.44763622782019036  0.6478106212599073  1.0000
  H   H2        1.0  0.5553087992989703  0.5523629564909313  0.3521893156967905  1.0000
  H   H3        1.0  0.5841572634721854  0.4768098858415897  0.596836686141806  1.0000
  H   H4        1.0  0.41584211897291806  0.5231903157591659  0.40316340781089366  1.0000
  H   H5        1.0  0.4861882387974814  0.08310534639068828  0.6423191604166334  1.0000
  H   H6        1.0  0.5138110223110745  0.9168928365883531  0.35768201826831353  1.0000
  H   H7        1.0  0.5450101130438652  0.9042157566358641  0.8003118008305278  1.0000
  H   H8        1.0  0.4549902812683299  0.09578445914821289  0.19969063713201504  1.0000
  H   H9        1.0  0.9863813116487561  0.9078878617108899  0.7479897085867576  1.0000
  H   H10       1.0  0.013618528380277403  0.0921113259691637  0.2520104135862269  1.0000
  H   H11       1.0  0.9064515192987057  0.0900571947462012  0.5968536493610727  1.0000
  H   H12       1.0  0.09354879679224848  0.909940961460897  0.40314397180607386  1.0000
  H   H13       1.0  0.9281893316394727  0.7248429819854535  0.8724519299917757  1.0000
  H   H14       1.0  0.07181061124811808  0.2751582418685743  0.1275496366750986  1.0000
  H   H15       1.0  0.750527402128007  0.7198672240110967  0.8835650777625546  1.0000
  H   H16       1.0  0.24947299218418817  0.2801329917729802  0.1164373601999884  1.0000
  H   H17       1.0  0.7792429627936668  0.9461339549314616  0.42760761701845945  1.0000
  H   H18       1.0  0.2207574376778609  0.05386625500186428  0.5723939778686997  1.0000
  H   H19       1.0  0.8733285170839975  0.8143624051585194  0.24865178815380046  1.0000
  H   H20       1.0  0.1266718895468557  0.18563779892404844  0.7513489636579819  1.0000
  H   H21       1.0  0.7019760414134593  0.19478794669479532  0.05927406075318943  1.0000
  H   H22       1.0  0.29802482280132364  0.8052112434670775  0.940726719278885  1.0000
  H   H23       1.0  0.6249324305347698  0.31180857364049797  0.24542265732357293  1.0000
  H   H24       1.0  0.37506751851214654  0.688192644362779  0.7545780662679248  1.0000
  H   H25       1.0  0.8605815560078081  0.9917903810159885  0.9530970833190293  1.0000
  H   H26       1.0  0.1394183868797825  0.008210842838039398  0.0469044833478449  1.0000
  H   H27       1.0  0.9687795182002076  0.8408143414219538  0.02309368171390256  1.0000
  H   H28       1.0  0.031219858085563584  0.1591858660295529  0.9769072553141739  1.0000
  H   H29       1.0  0.6357743041049772  0.9264380258921461  0.014831798766302003  1.0000
  H   H30       1.0  0.3642260963665506  0.0735621840411795  0.9851697961208571  1.0000
  H   H31       1.0  0.7564771119347636  0.7728650373335669  0.07312604243296059  1.0000
  H   H32       1.0  0.24352374612069377  0.2271341586790641  0.9268755806744904  1.0000
  H   H33       1.0  0.07606454010795717  0.2708005083936769  0.48886009761108074  1.0000
  H   H34       1.0  0.9239364516026995  0.729200694539159  0.511138754613377  1.0000
  H   H35       1.0  0.8818888206801032  0.5593584752904306  0.22711321048430472  1.0000
  H   H36       1.0  0.11810953757924379  0.44064172382850586  0.7728862256093123  1.0000
  H   H37       1.0  0.32210415741326387  0.4885609734837075  0.28540219670594513  1.0000
  H   H38       1.0  0.6778947797665608  0.5114402303362411  0.7145961828757094  1.0000
  H   H39       1.0  0.2462124793835727  0.6911135523949383  0.22923465831472356  1.0000
  H   H40       1.0  0.7537863364597116  0.3088856328032961  0.7707648059991854  1.0000
  H   H41       1.0  0.17861570910319793  0.7787777308905602  0.1038305955839576  1.0000
  H   H42       1.0  0.8213832219173014  0.22122347878013926  0.8961686270730809  1.0000
  H   H43       1.0  0.5109689110648503  0.6335890485677567  0.151319310517593  1.0000
  H   H44       1.0  0.489030477539579  0.3664111471822408  0.8486799403597373  1.0000
  H   H45       1.0  0.253092627177601  0.5122982604086275  0.9753031671166139  1.0000
  H   H46       1.0  0.7469061886656828  0.4877009247896141  0.024696297197287678  1.0000
  C   C1        1.0  0.8309081729802442  0.3781412505531563  0.3816090471736047  1.0000
  C   C2        1.0  0.16909223365060916  0.6218589535294182  0.6183917046381779  1.0000
  C   C3        1.0  0.5938507019979224  0.04243095782093319  0.6714742534994258  1.0000
  C   C4        1.0  0.40615016837619317  0.9575682264901887  0.3285256834572721  1.0000
  C   C5        1.0  0.6283187668395694  0.9436237615928178  0.7585389719844997  1.0000
  C   C6        1.0  0.3716806094462014  0.056376445858688784  0.24146196504357675  1.0000
  C   C7        1.0  0.770094037570551  0.8925385092508266  0.7900113681369233  1.0000
  C   C8        1.0  0.22990533871522692  0.10746169820068022  0.20998956889115306  1.0000
  C   C9        1.0  0.872687638565857  0.9455876687298216  0.7301132741206258  1.0000
  C   C10       1.0  0.1273121953038512  0.054411524800983095  0.26988769112774236  1.0000
  C   C11       1.0  0.8302882282125523  0.04551570559787169  0.644716306040145  1.0000
  C   C12       1.0  0.1697116241351393  0.9544834703806799  0.3552821299820934  1.0000
  C   C13       1.0  0.8061326547789134  0.7877220901239141  0.8860037060660417  1.0000
  C   C14       1.0  0.19386820943587676  0.21227710003796563  0.1139970739660328  1.0000
  C   C15       1.0  0.7688037337606062  0.9981986783607081  0.34378528815229004  1.0000
  C   C16       1.0  0.23119769705600385  0.0018015282036856013  0.6562161215185824  1.0000
  C   C17       1.0  0.8190698900313577  0.9245969790124986  0.24325552156165023  1.0000
  C   C18       1.0  0.18093051044017017  0.075403230920827  0.7567460733255089  1.0000
  C   C19       1.0  0.7996291663318899  0.9933731363851377  0.13674016973020287  1.0000
  C   C20       1.0  0.20037123413963795  0.006627073548187901  0.8632614251569563  1.0000
  C   C21       1.0  0.7248420026030897  0.1350193231275369  0.13844715154753123  1.0000
  C   C22       1.0  0.27515737368268123  0.8649808843239697  0.8615537854805453  1.0000
  C   C23       1.0  0.6790463135561565  0.2016356754572826  0.24212573531361398  1.0000
  C   C24       1.0  0.3209526051456847  0.7983655459149261  0.7578751734941702  1.0000
  C   C25       1.0  0.8540205176393341  0.9199181999382446  0.02510502605628057  1.0000
  C   C26       1.0  0.14597942524825663  0.08008302391577618  0.9748965406105939  1.0000
  C   C27       1.0  0.7539226286754326  0.8518568518394147  0.005736494598757233  1.0000
  C   C28       1.0  0.24607674145101296  0.14814336146284288  0.9942652855047027  1.0000
  C   C29       1.0  0.33729638766016723  0.3056071073499496  0.4604125390037338  1.0000
  C   C30       1.0  0.6627020980950532  0.6943951045399429  0.5395849692822593  1.0000
  C   C31       1.0  0.21044211740640859  0.37500421699893133  0.3950396208046455  1.0000
  C   C32       1.0  0.7895583200210865  0.6249959578298812  0.6049569156302537  1.0000
  C   C33       1.0  0.08387045171734543  0.3449330231015252  0.4209823630340707  1.0000
  C   C34       1.0  0.9161310037365733  0.6550671600598504  0.5790156743352879  1.0000
  C   C35       1.0  0.9667661714326169  0.41070492436288936  0.35926433855765777  1.0000
  C   C36       1.0  0.03323470510082418  0.5892942540974743  0.6407347553236631  1.0000
  C   C37       1.0  0.9749337925258883  0.5081443530505325  0.27342425499306694  1.0000
  C   C38       1.0  0.02506513849461099  0.49185685662016704  0.7265749676639713  1.0000
  C   C39       1.0  0.10198905666434398  0.5376476808293374  0.24747884535504744  1.0000
  C   C40       1.0  0.8980088440110733  0.4623535322103009  0.7525205625182847  1.0000
  C   C41       1.0  0.22071765499955381  0.4696798935999382  0.30677647691351945  1.0000
  C   C42       1.0  0.7792812883395966  0.5303213043692594  0.6932210595927656  1.0000
  C   C43       1.0  0.22332368138462738  0.6777499146269292  0.14577758624106707  1.0000
  C   C44       1.0  0.7766757072198088  0.3222502811230754  0.8542216646362562  1.0000
  C   C45       1.0  0.5059438046972318  0.5765371727253027  0.08369155953052138  1.0000
  C   C46       1.0  0.49405455972144807  0.423463020542883  0.9163070334877188  1.0000
  C   C47       1.0  0.3660064701471128  0.583853730010972  0.0712033165042101  1.0000
  C   C48       1.0  0.6339914428469625  0.4161474713271571  0.9287944052183619  1.0000
  C   C49       1.0  0.36137907945846576  0.5064743659028467  0.9867638568175109  1.0000
  C   C50       1.0  0.6386192911195393  0.49352582151458774  0.01323389312535277  1.0000
  N   N1        1.0  0.7021488618769638  0.13445469732865686  0.343627298707645  1.0000
  N   N2        1.0  0.2978525812582972  0.8655454975342278  0.6563724248124743  1.0000
  N   N3        1.0  0.6930697655971371  0.0936680968867307  0.6157934088481767  1.0000
  N   N4        1.0  0.30692905024614686  0.9063310883115107  0.38420605546573217  1.0000
  O   O1        1.0  0.43376924836924485  0.3606999069287155  0.4464268913266025  1.0000
  O   O2        1.0  0.56622968881058  0.6393012968912329  0.5535714882550591  1.0000
  O   O3        1.0  0.34643775322656  0.20235837366435314  0.5216597758627229  1.0000
  O   O4        1.0  0.6535652147936871  0.7976407688043848  0.4783347322091275  1.0000
  O   O5        1.0  0.10157942285422908  0.6355788679764273  0.16269439420302936  1.0000
  O   O6        1.0  0.8984189354051252  0.364421331142509  0.8373050418905874  1.0000
  O   O7        1.0  0.8257506877970611  0.2889081963617813  0.4616787952805196  1.0000
  O   O8        1.0  0.17425064632031703  0.7110899681778875  0.5383203268210933  1.0000
  O   O9        1.0  0.557051904596328  0.3998092323151639  0.6295457604941246  1.0000
  O   O10       1.0  0.44294850819385084  0.6001909659166527  0.37045414824228834  1.0000
  O   O11       1.0  0.7319160556517231  0.4375489556250898  0.3197942363837143  1.0000
  O   O12       1.0  0.2680848147223925  0.5624502286860321  0.6802057005729834  1.0000
