data_image0
_chemical_formula_structural       Ba2H32C20N16O18
_chemical_formula_sum              "Ba2 H32 C20 N16 O18"
_cell_length_a       6.724586579200871
_cell_length_b       11.295340379189957
_cell_length_c       12.663182345869632
_cell_angle_alpha    107.58657773385238
_cell_angle_beta     92.40752830169257
_cell_angle_gamma    100.19607227135567

_space_group_name_H-M_alt    "P 1"
_space_group_IT_number       1

loop_
  _space_group_symop_operation_xyz
  'x, y, z'

loop_
  _atom_site_type_symbol
  _atom_site_label
  _atom_site_symmetry_multiplicity
  _atom_site_fract_x
  _atom_site_fract_y
  _atom_site_fract_z
  _atom_site_occupancy
  Ba  Ba1       1.0  0.36173098744355764  0.5079831497092329  0.3552042834676784  1.0000
  Ba  Ba2       1.0  0.6382663844551215  0.4920132040991659  0.6447916188265668  1.0000
  H   H1        1.0  0.12859296841771337  0.4265059329158517  0.5676908591176899  1.0000
  H   H2        1.0  0.8714070819102203  0.5734942306949905  0.43230768413884874  1.0000
  H   H3        1.0  0.1918826104360889  0.5716678137792001  0.6053945503385949  1.0000
  H   H4        1.0  0.8081186503457615  0.4283313614230692  0.3945998160593974  1.0000
  H   H5        1.0  0.9302939624114046  0.2443859477418329  0.34315229014406173  1.0000
  H   H6        1.0  0.06970965244967425  0.7556113873723901  0.6568463923008283  1.0000
  H   H7        1.0  0.9726374923817642  0.2936401416960379  0.2403278634207525  1.0000
  H   H8        1.0  0.027362553922650117  0.7063552769748823  0.7596686505789594  1.0000
  H   H9        1.0  0.0869118072651816  0.7440258191389546  0.41560986830646146  1.0000
  H   H10       1.0  0.9130870701999212  0.2559752559703341  0.5843857250663762  1.0000
  H   H11       1.0  0.9711437474936844  0.6412292593106698  0.3026763895213663  1.0000
  H   H12       1.0  0.028861967795449972  0.35876994752133834  0.6973204646649338  1.0000
  H   H13       1.0  0.3982734839921775  0.24034561318770634  0.9877017134527011  1.0000
  H   H14       1.0  0.6017253725889872  0.7596555046494303  0.01229783922138955  1.0000
  H   H15       1.0  0.6220217978534349  0.21926336208630906  0.054231448335407606  1.0000
  H   H16       1.0  0.3779770461973584  0.7807377813875362  0.9457704799194252  1.0000
  H   H17       1.0  0.6047365837570169  0.20202905786953812  0.9079568785857294  1.0000
  H   H18       1.0  0.39526464361052405  0.797970185697281  0.09204382269425797  1.0000
  H   H19       1.0  0.02669508575142014  0.8030365548227034  0.19152487508780067  1.0000
  H   H20       1.0  0.973313021054757  0.1969654884966374  0.8084719895202286  1.0000
  H   H21       1.0  0.009971957140109565  0.7849409317569068  0.04403796328372781  1.0000
  H   H22       1.0  0.9900313913861608  0.21506489428534079  0.9559597715535022  1.0000
  H   H23       1.0  0.6821633850392954  0.0083069112807905  0.7969002663392575  1.0000
  H   H24       1.0  0.31783040144229346  0.9916923137520683  0.2030994560678821  1.0000
  H   H25       1.0  0.8215701390925502  0.8833049599689244  0.7757376851549795  1.0000
  H   H26       1.0  0.1784188809088221  0.11669331139249547  0.22426167008478615  1.0000
  H   H27       1.0  0.5505411665741633  0.8454639634102107  0.756752881829904  1.0000
  H   H28       1.0  0.4494508229454581  0.15453908252319337  0.24325095305247404  1.0000
  H   H29       1.0  0.5592983260539696  0.777505171340202  0.24321396633907713  1.0000
  H   H30       1.0  0.4407061744511793  0.22249978593143993  0.7567906776830997  1.0000
  H   H31       1.0  0.6966756321268264  0.9406432336455804  0.276492315444365  1.0000
  H   H32       1.0  0.30332705919253294  0.059356063192332414  0.723513174399642  1.0000
  C   C1        1.0  0.5641810771100211  0.2538094447435526  0.9894862497976364  1.0000
  C   C2        1.0  0.43582075331944736  0.7461916856345141  0.010514169541735953  1.0000
  C   C3        1.0  0.7001921333316756  0.4620471589610488  0.129199357368492  1.0000
  C   C4        1.0  0.2998240257759618  0.537956772612354  0.870796620451266  1.0000
  C   C5        1.0  0.6958391397812134  0.4370909752484379  0.9287393528179637  1.0000
  C   C6        1.0  0.3041558444706566  0.5629120404980482  0.07126138942845021  1.0000
  C   C7        1.0  0.8096227089816493  0.5679298420098957  0.9622276183782575  1.0000
  C   C8        1.0  0.19037585651052072  0.43207031105769994  0.03777009561551381  1.0000
  C   C9        1.0  0.8675756447351191  0.6340938343643217  0.0804211963814438  1.0000
  C   C10       1.0  0.13242442647675287  0.3659062865186725  0.9195733875738485  1.0000
  C   C11       1.0  0.6017145313406685  0.7873563925661099  0.5492228302025951  1.0000
  C   C12       1.0  0.3982765100363252  0.21263440590792013  0.45078409988916235  1.0000
  C   C13       1.0  0.6848630629092581  0.910710830879587  0.7476517748228491  1.0000
  C   C14       1.0  0.3151259278545949  0.08928750030081288  0.2523531234386597  1.0000
  C   C15       1.0  0.7693312926608726  0.010329479547621602  0.6035075368953218  1.0000
  C   C16       1.0  0.2306708034903195  0.989682173844379  0.39650511452001796  1.0000
  C   C17       1.0  0.7516338606755538  0.9977609378743608  0.48470645464464485  1.0000
  C   C18       1.0  0.2483602128715106  0.0022345069881240013  0.5152930771859874  1.0000
  C   C19       1.0  0.656513099571512  0.8756063964296739  0.4060287539442271  1.0000
  C   C20       1.0  0.3434866596674198  0.12439280241162005  0.593967950631992  1.0000
  N   N1        1.0  0.8147403243589864  0.5810946284874987  0.15894736179025415  1.0000
  N   N2        1.0  0.1852725531041983  0.41890835995771164  0.8410490781248969  1.0000
  N   N3        1.0  0.6601736679995083  0.387247388200805  0.01494911306753006  1.0000
  N   N4        1.0  0.33983054977021965  0.6127565872101499  0.9850521085538237  1.0000
  N   N5        1.0  0.8543477236194903  0.6120167619035968  0.8772499978591032  1.0000
  N   N6        1.0  0.14565202726586793  0.38798245402883685  0.12274829043761326  1.0000
  N   N7        1.0  0.9732006893376234  0.7526655346155237  0.10985787003313875  1.0000
  N   N8        1.0  0.026805633036950414  0.24734030396764686  0.890140731469373  1.0000
  N   N9        1.0  0.5870965220398788  0.7758757107095136  0.43957114013468884  1.0000
  N   N10       1.0  0.4129058990744312  0.22412257863100385  0.5604285517277533  1.0000
  N   N11       1.0  0.6829460937196428  0.9041242230284037  0.630624071464574  1.0000
  N   N12       1.0  0.3170411211194518  0.095873132839202  0.3693781588538415  1.0000
  N   N13       1.0  0.8279921711845758  0.10401864792446963  0.4619546661518684  1.0000
  N   N14       1.0  0.17200754613320163  0.8959853898580051  0.5380527781439215  1.0000
  N   N15       1.0  0.6362430184056791  0.8621597802361973  0.29779264506171194  1.0000
  N   N16       1.0  0.3637602759756078  0.13784140341295625  0.7022125628416802  1.0000
  O   O1        1.0  0.23349173595634903  0.4952023862275467  0.5568595864238547  1.0000
  O   O2        1.0  0.7665092170293519  0.5047958583874532  0.44313610873481224  1.0000
  O   O3        1.0  0.9825691581956802  0.3224297046750095  0.32296842257220254  1.0000
  O   O4        1.0  0.01743267656384973  0.6775666636719961  0.6770283837898463  1.0000
  O   O5        1.0  0.04984675484874401  0.6515823404196438  0.37425644849405176  1.0000
  O   O6        1.0  0.9501562735042838  0.3484178271865516  0.6257421695675236  1.0000
  O   O7        1.0  0.6251943501197488  0.4132883562697813  0.19811880192096254  1.0000
  O   O8        1.0  0.37482234537448267  0.5867128453584768  0.8018867426051062  1.0000
  O   O9        1.0  0.6345472806777435  0.3729036863433207  0.8300562641347471  1.0000
  O   O10       1.0  0.36543995489202524  0.6270983802819288  0.16994482799950117  1.0000
  O   O11       1.0  0.9629988057059363  0.7250505445618884  0.8974911926687671  1.0000
  O   O12       1.0  0.0369988823424592  0.2749467227426408  0.10250179714429927  1.0000
  O   O13       1.0  0.5409781313820687  0.6936588897016094  0.5809415383699561  1.0000
  O   O14       1.0  0.4590210288184551  0.30634316726836625  0.4190574774037047  1.0000
  O   O15       1.0  0.854634672694317  0.1096639564453952  0.6765695965435443  1.0000
  O   O16       1.0  0.1453495518958619  0.8903239140925834  0.3234292923164333  1.0000
  O   O17       1.0  0.8219280820170596  0.1024667658134035  0.3591588789305363  1.0000
  O   O18       1.0  0.17807311193617886  0.897532546117965  0.640848157231446  1.0000
