data_image0
_chemical_formula_structural       Cu2H16C24S4N20
_chemical_formula_sum              "Cu2 H16 C24 S4 N20"
_cell_length_a       7.845216345124859
_cell_length_b       8.785086941411741
_cell_length_c       11.720724162333257
_cell_angle_alpha    89.99826641473828
_cell_angle_beta     103.9818490718124
_cell_angle_gamma    90.00296612378855

_space_group_name_H-M_alt    "P 1"
_space_group_IT_number       1

loop_
  _space_group_symop_operation_xyz
  'x, y, z'

loop_
  _atom_site_type_symbol
  _atom_site_label
  _atom_site_symmetry_multiplicity
  _atom_site_fract_x
  _atom_site_fract_y
  _atom_site_fract_z
  _atom_site_occupancy
  Cu  Cu1       1.0  0.0003329933478327  9.448561448270001e-05  1.2312253936400014e-05  1.0000
  Cu  Cu2       1.0  0.5003194775115601  0.4999301582473662  7.497203160507643e-05  1.0000
  H   H1        1.0  0.5894219877794242  0.9298014398139645  0.4054664809199195  1.0000
  H   H2        1.0  0.9098659852633305  0.43064199001420894  0.5942149216430438  1.0000
  H   H3        1.0  0.40994481004485556  0.06933767418834691  0.5941514291782468  1.0000
  H   H4        1.0  0.0894885707632582  0.5701578917017825  0.4054531216630792  1.0000
  H   H5        1.0  0.4355144248916432  0.18312586510721468  0.4003554750685226  1.0000
  H   H6        1.0  0.0635775184001233  0.6840191164109228  0.5993864744064297  1.0000
  H   H7        1.0  0.563679664432911  0.8159608816015408  0.599357705586641  1.0000
  H   H8        1.0  0.9355890480500976  0.31680921751418367  0.40032327810647683  1.0000
  H   H9        1.0  0.7237610966813152  0.8624004734037173  0.2357000544914812  1.0000
  H   H10       1.0  0.7763341286849084  0.36265216260736827  0.7642972899494965  1.0000
  H   H11       1.0  0.2763445484880264  0.1372736486486446  0.7642327669475081  1.0000
  H   H12       1.0  0.2237747997399424  0.6376286687138448  0.2356752819755314  1.0000
  H   H13       1.0  0.6747362591594028  0.2117468209701769  0.9137632582794808  1.0000
  H   H14       1.0  0.8261154338071677  0.7116890032131593  0.08660376256706571  1.0000
  H   H15       1.0  0.32612913036628316  0.7883894573449055  0.08656108953206144  1.0000
  H   H16       1.0  0.1747271504554107  0.28834824377254614  0.913688045013011  1.0000
  C   C1        1.0  0.8815012833471555  0.08254969086016933  0.7390690410416808  1.0000
  C   C2        1.0  0.6183566010452922  0.5822204928679183  0.2609610005806219  1.0000
  C   C3        1.0  0.11830802115175491  0.917752760705064  0.26092880742197627  1.0000
  C   C4        1.0  0.3815002742492767  0.4175002901016924  0.7391431960604394  1.0000
  C   C5        1.0  0.5810174384856451  0.008155593143520398  0.3326613617110112  1.0000
  C   C6        1.0  0.9184689909666018  0.5088015924317374  0.6671703357685389  1.0000
  C   C7        1.0  0.4185537032445127  0.9911690640502255  0.6671144670029252  1.0000
  C   C8        1.0  0.08110819029996462  0.4917979517414609  0.3326524886029746  1.0000
  C   C9        1.0  0.49539691423763793  0.1501318234477864  0.32910233902125446  1.0000
  C   C10       1.0  0.0040541921132089  0.6508112008763336  0.6707599631549287  1.0000
  C   C11       1.0  0.5041106017935348  0.8491495764711771  0.6707088596652113  1.0000
  C   C12       1.0  0.9954760099063336  0.34982362907157954  0.32907435755785747  1.0000
  C   C13       1.0  0.5557716559031151  0.2092470665323134  0.15551882944831877  1.0000
  C   C14       1.0  0.9443841804631748  0.7094671087181867  0.844605683368535  1.0000
  C   C15       1.0  0.44437938160115215  0.7904885217071539  0.8445464459646107  1.0000
  C   C16       1.0  0.055787858833014105  0.2907704670320186  0.1554611319325403  1.0000
  C   C17       1.0  0.6546726158007841  0.968047136446735  0.24186597432852613  1.0000
  C   C18       1.0  0.8452405913336919  0.46841945377767064  0.7581084842491067  1.0000
  C   C19       1.0  0.3452936423586124  0.03154274939926441  0.7580358791132513  1.0000
  C   C20       1.0  0.15475275060686036  0.5319399174676037  0.24184618884211065  1.0000
  C   C21       1.0  0.6466245355541391  0.1866155521895863  0.9978264688351361  1.0000
  C   C22       1.0  0.8539883745468091  0.6866420513785555  0.0024427096538275728  1.0000
  C   C23       1.0  0.35400857404977165  0.8133818512074386  0.0023945074766019165  1.0000
  C   C24       1.0  0.146599786445833  0.3134577978337774  0.9977533874656218  1.0000
  S   S1        1.0  0.8530907794330816  0.0925528862797975  0.598944378879459  1.0000
  S   S2        1.0  0.6457980231371465  0.5923787167635624  0.40100022463638413  1.0000
  S   S3        1.0  0.1456256769455777  0.9075776600304408  0.4009644541483298  1.0000
  S   S4        1.0  0.3529923100499984  0.4074695324037521  0.5990207330184205  1.0000
  N   N1        1.0  0.8994900912961157  0.08082008881037689  0.8432259665626844  1.0000
  N   N2        1.0  0.601215402104387  0.5803963628751988  0.1568850217896056  1.0000
  N   N3        1.0  0.1012522855592692  0.9196201155125293  0.1568651673714783  1.0000
  N   N4        1.0  0.3995326190457433  0.4192550026277218  0.8433127964596069  1.0000
  N   N5        1.0  0.48229227465449753  0.25025179822639376  0.24200681398615134  1.0000
  N   N6        1.0  0.01756796853544531  0.7507074654063928  0.7580283628343029  1.0000
  N   N7        1.0  0.5175718556712069  0.7492515733586272  0.7579799084997989  1.0000
  N   N8        1.0  0.982309183011438  0.24973499805161484  0.24195183296978232  1.0000
  N   N9        1.0  0.6380858196783876  0.06930160501404001  0.15258466247807698  1.0000
  N   N10       1.0  0.8620592334768206  0.5695291709005517  0.8475029363234725  1.0000
  N   N11       1.0  0.3620851907728025  0.9304408146531811  0.8474197127531014  1.0000
  N   N12       1.0  0.13814286339026446  0.43070612904221406  0.15255914764549774  1.0000
  N   N13       1.0  0.6947590548448092  0.0544661178099446  0.05218267245540895  1.0000
  N   N14       1.0  0.8056621738082513  0.5545687133911343  0.9480179916096887  1.0000
  N   N15       1.0  0.30570613798690266  0.9454413585173567  0.9479448980951873  1.0000
  N   N16       1.0  0.19478517902190623  0.44558235655028267  0.05214009002985161  1.0000
  N   N17       1.0  0.9360930332916482  0.784254173056546  0.9441250338033671  1.0000
  N   N18       1.0  0.5644227991565457  0.2841614288775319  0.05613459445360996  1.0000
  N   N19       1.0  0.0643820560825787  0.21589234407117894  0.0560467283550565  1.0000
  N   N20       1.0  0.43607275120192673  0.7157346633278082  0.9440872668584818  1.0000
