data_image0
_chemical_formula_structural       AlH12C24N3O6
_chemical_formula_sum              "Al1 H12 C24 N3 O6"
_cell_length_a       3.970410667602886
_cell_length_b       15.781839453874749
_cell_length_c       15.824780230731934
_cell_angle_alpha    60.04467426960257
_cell_angle_beta     87.8906960423291
_cell_angle_gamma    87.28041779655379

_space_group_name_H-M_alt    "P 1"
_space_group_IT_number       1

loop_
  _space_group_symop_operation_xyz
  'x, y, z'

loop_
  _atom_site_type_symbol
  _atom_site_label
  _atom_site_symmetry_multiplicity
  _atom_site_fract_x
  _atom_site_fract_y
  _atom_site_fract_z
  _atom_site_occupancy
  Al  Al1       1.0  0.031077647421774667  0.49853042655878  0.5002416835111203  1.0000
  H   H1        1.0  0.7820865764218824  0.7648044333759287  0.2484796528944883  1.0000
  H   H2        1.0  0.7618575580707586  0.9485606135108997  0.15319759750287407  1.0000
  H   H3        1.0  0.7721500928541192  0.48086049942208586  0.7680350176030897  1.0000
  H   H4        1.0  0.7489602108586555  0.3924605509363062  0.9511801669688036  1.0000
  H   H5        1.0  0.8577045351852067  0.2477973440942733  0.47646478952673016  1.0000
  H   H6        1.0  0.8358072625633571  0.15332541428809787  0.38774474978876566  1.0000
  H   H7        1.0  0.2857785905446804  0.48485957222796827  0.24893785796918164  1.0000
  H   H8        1.0  0.3056757664448569  0.3963321524938054  0.1537509345314731  1.0000
  H   H9        1.0  0.2573245582169506  0.2462378072712141  0.7704029116332334  1.0000
  H   H10       1.0  0.27406620975728674  0.15225654706551955  0.9534853108727859  1.0000
  H   H11       1.0  0.23411224761701283  0.7720005240954321  0.4843251180150217  1.0000
  H   H12       1.0  0.2595439179486974  0.9553589725841646  0.39519942687748255  1.0000
  C   C1        1.0  0.514189508941229  0.6492812506443715  0.42604118535943764  1.0000
  C   C2        1.0  0.5569008514255742  0.42425631984271217  0.4238768646522215  1.0000
  C   C3        1.0  0.5221665898382639  0.42264081195414605  0.6504131539865695  1.0000
  C   C4        1.0  0.5085415989238342  0.7581551064651036  0.37156279841541123  1.0000
  C   C5        1.0  0.5159031489576692  0.36856567120511846  0.7589407180350701  1.0000
  C   C6        1.0  0.5689862003417475  0.3711008852130746  0.36820977971380137  1.0000
  C   C7        1.0  0.6602991463651692  0.8074193363782883  0.2786498048280277  1.0000
  C   C8        1.0  0.6518438040596451  0.9090269848298788  0.22632348548452788  1.0000
  C   C9        1.0  0.6563857366818271  0.40998562964367125  0.8094549991094124  1.0000
  C   C10       1.0  0.6459628115500922  0.3608038712323277  0.9107161162453253  1.0000
  C   C11       1.0  0.7299024256194999  0.27844665733127977  0.40698321318031105  1.0000
  C   C12       1.0  0.7202784341209  0.2264921806915865  0.35748659014674894  1.0000
  C   C13       1.0  0.4135576751295958  0.41345207108508925  0.27717658099718523  1.0000
  C   C14       1.0  0.4219439506245237  0.3640771932770833  0.22498362090993837  1.0000
  C   C15       1.0  0.3716640092291001  0.2764240743369725  0.8107849129072591  1.0000
  C   C16       1.0  0.37826636470633457  0.22478164536264705  0.9121434117867224  1.0000
  C   C17       1.0  0.356647094040028  0.8113412567589079  0.4128791573996935  1.0000
  C   C18       1.0  0.36790722765014305  0.9128974434929659  0.3631423082306711  1.0000
  C   C19       1.0  0.5117050797151849  0.9623394052071959  0.26904854486392066  1.0000
  C   C20       1.0  0.5194948615009238  0.07019884508705589  0.21478699208687857  1.0000
  C   C21       1.0  0.5123981240114831  0.26711510439959335  0.9628056274935941  1.0000
  C   C22       1.0  0.5182812788468285  0.213503507359313  0.07045816989473509  1.0000
  C   C23       1.0  0.5674217029128813  0.26921158965018316  0.2659647142840029  1.0000
  C   C24       1.0  0.550788934881169  0.21440087724700865  0.2132205633723103  1.0000
  N   N1        1.0  0.5047085814642218  0.11534207432376321  0.1168798506583784  1.0000
  N   N2        1.0  0.5399275050353297  0.2664127338455203  0.11529864280701213  1.0000
  N   N3        1.0  0.5432725072598502  0.116144356349551  0.26659004068113745  1.0000
  O   O1        1.0  0.29767049670531526  0.4037641822173653  0.6069941743046242  1.0000
  O   O2        1.0  0.2766315930252504  0.6066799436664995  0.4876343621692384  1.0000
  O   O3        1.0  0.3135850098478202  0.48653473715756235  0.406071385954867  1.0000
  O   O4        1.0  0.752351749695187  0.4847060399945561  0.6074583356916107  1.0000
  O   O5        1.0  0.787495919782984  0.40433342400653777  0.48584058296279403  1.0000
  O   O6        1.0  0.7586774371483076  0.6053642703312931  0.4072361888145082  1.0000
