data_image0
_chemical_formula_structural       CoH32C44N10O6
_chemical_formula_sum              "Co1 H32 C44 N10 O6"
_cell_length_a       8.284993673331075
_cell_length_b       10.78249193349482
_cell_length_c       11.75241173163316
_cell_angle_alpha    113.47338898754185
_cell_angle_beta     96.12757257951078
_cell_angle_gamma    102.79507568388604

_space_group_name_H-M_alt    "P 1"
_space_group_IT_number       1

loop_
  _space_group_symop_operation_xyz
  'x, y, z'

loop_
  _atom_site_type_symbol
  _atom_site_label
  _atom_site_symmetry_multiplicity
  _atom_site_fract_x
  _atom_site_fract_y
  _atom_site_fract_z
  _atom_site_occupancy
  Co  Co1       1.0  0.9999963021228023  0.9999941319890198  0.9999979483370608  1.0000
  H   H1        1.0  0.34906668565015053  0.15005307111807303  0.016368448138869996  1.0000
  H   H2        1.0  0.650927888353813  0.8499431620775297  0.9836309639816037  1.0000
  H   H3        1.0  0.5097452765659796  0.39510480937003223  0.07115660263092144  1.0000
  H   H4        1.0  0.4902493047715025  0.6048915242802126  0.9288496533575528  1.0000
  H   H5        1.0  0.3641661560963314  0.5883363853607763  0.14704584409169297  1.0000
  H   H6        1.0  0.6358289390503982  0.4116578854543391  0.8529622717600633  1.0000
  H   H7        1.0  0.9167484809472697  0.2693669124389402  0.10733742351658292  1.0000
  H   H8        1.0  0.08324625890747943  0.730626277081761  0.8926685789309161  1.0000
  H   H9        1.0  0.09980469646429668  0.6539390723413517  0.19437104224783744  1.0000
  H   H10       1.0  0.9001941992117963  0.3460519266730344  0.8056259936393674  1.0000
  H   H11       1.0  0.8285762606957618  0.6868462430079915  0.13705925528280719  1.0000
  H   H12       1.0  0.17142411982946726  0.3131636444953827  0.8629394984248793  1.0000
  H   H13       1.0  0.6277638873287258  0.8289154029932533  0.2071753879774576  1.0000
  H   H14       1.0  0.37223701158919903  0.17109248445913042  0.7928295030110136  1.0000
  H   H15       1.0  0.5088777029174382  0.8410296611273724  0.39474431834423757  1.0000
  H   H16       1.0  0.49112594532097387  0.15897191155034565  0.6052568402028983  1.0000
  H   H17       1.0  0.8853083637285833  0.48301105595720634  0.4262198880485144  1.0000
  H   H18       1.0  0.11469476520044712  0.5169925042146631  0.5737742777343302  1.0000
  H   H19       1.0  0.7809195148143147  0.5046221666353999  0.6214965990913868  1.0000
  H   H20       1.0  0.21909076528898905  0.4953846339148811  0.37850012092329177  1.0000
  H   H21       1.0  0.5799966086482088  0.6436192238703597  0.6921426137803125  1.0000
  H   H22       1.0  0.420019767753729  0.3563877238570754  0.30786058605541206  1.0000
  H   H23       1.0  0.48570952281215085  0.8241639927991714  0.7645253553184262  1.0000
  H   H24       1.0  0.5142763294992748  0.1758279445382342  0.23547185732914497  1.0000
  H   H25       1.0  0.8624041322152962  0.9899514989651054  0.7571115419681789  1.0000
  H   H26       1.0  0.1375970791537071  0.0100500374440458  0.2428885645208396  1.0000
  H   H27       1.0  0.9294347223240607  0.9247512073083968  0.5443224084229712  1.0000
  H   H28       1.0  0.07057159506585012  0.07526195894483581  0.4556822231632368  1.0000
  H   H29       1.0  0.1899722069214675  0.8416640382386192  0.5032945331154935  1.0000
  H   H30       1.0  0.8100288786875752  0.1583479365125839  0.4967033144997188  1.0000
  H   H31       1.0  0.28955268749328417  0.9063811841224451  0.8936633817943191  1.0000
  H   H32       1.0  0.7104383482579663  0.09360443703836552  0.10632858401952923  1.0000
  C   C1        1.0  0.2887263906899378  0.2339794534903206  0.0483543005427549  1.0000
  C   C2        1.0  0.7112774178991189  0.7660190001715179  0.9516483154303971  1.0000
  C   C3        1.0  0.3784143529351383  0.37289821645722304  0.08048677770701575  1.0000
  C   C4        1.0  0.6215818053374418  0.6270992605706167  0.919525111907035  1.0000
  C   C5        1.0  0.2983245765027434  0.4786317319790355  0.12228029636460044  1.0000
  C   C6        1.0  0.7016729527633245  0.5213625374341506  0.8777263050947754  1.0000
  C   C7        1.0  0.1305155981486763  0.44157608046749164  0.1352372666090318  1.0000
  C   C8        1.0  0.8694838578443154  0.5584203382767184  0.8647719489791756  1.0000
  C   C9        1.0  0.04782075371409176  0.29909375669206634  0.09933111224319896  1.0000
  C   C10       1.0  0.952175713342811  0.70089731906522  0.9006725709373884  1.0000
  C   C11       1.0  0.0441029385751008  0.5491433477539901  0.19064047707932733  1.0000
  C   C12       1.0  0.9558912856370297  0.4508518794881909  0.8093619545378843  1.0000
  C   C13       1.0  0.8207824894359917  0.614931714648101  0.28249383687872864  1.0000
  C   C14       1.0  0.1792206049023548  0.38506452619760273  0.7175011303518987  1.0000
  C   C15       1.0  0.7786363446681719  0.6933401287867795  0.2205602884959319  1.0000
  C   C16       1.0  0.2213639975996102  0.3066623891631012  0.7794358447255335  1.0000
  C   C17       1.0  0.6656459866947629  0.7738251184786195  0.26081026178825795  1.0000
  C   C18       1.0  0.3343641394747294  0.22618488898536537  0.7391909891848982  1.0000
  C   C19       1.0  0.5980691702942451  0.780210935500463  0.3649298923275169  1.0000
  C   C20       1.0  0.4019332563010423  0.2197905750940663  0.6350677459983062  1.0000
  C   C21       1.0  0.6425971138588055  0.7061049223543849  0.4336327571269792  1.0000
  C   C22       1.0  0.3574143888043153  0.29390195283592396  0.5663683385925111  1.0000
  C   C23       1.0  0.7549942376027942  0.621583622690885  0.39221648930466574  1.0000
  C   C24       1.0  0.2450048876053259  0.3784188959599604  0.6077804011129971  1.0000
  C   C25       1.0  0.8037156417640147  0.5498593251212966  0.4615624586643889  1.0000
  C   C26       1.0  0.19629358071357217  0.45014434455723773  0.5384356204889968  1.0000
  C   C27       1.0  0.7457938576819101  0.5628811829244142  0.5704493069356076  1.0000
  C   C28       1.0  0.2542183500650097  0.4371277795137233  0.4295508826914016  1.0000
  C   C29       1.0  0.6339346431113455  0.6437623371451053  0.6117025779545388  1.0000
  C   C30       1.0  0.3660719885630215  0.35624450317855866  0.38829898009921493  1.0000
  C   C31       1.0  0.5787936756598171  0.7133351573132743  0.5444995568423465  1.0000
  C   C32       1.0  0.421221442674927  0.28666438389114296  0.4554992132528498  1.0000
  C   C33       1.0  0.41050701455140626  0.8208786730307408  0.6795617220289785  1.0000
  C   C34       1.0  0.5894900299959714  0.17912490320277644  0.32043708521833036  1.0000
  C   C35       1.0  0.9736382908280418  0.9547752364397938  0.7373943278860509  1.0000
  C   C36       1.0  0.026358556944615003  0.0452241143697734  0.2626021124160118  1.0000
  C   C37       1.0  0.01337676686812722  0.9182381116427578  0.6182115766624321  1.0000
  C   C38       1.0  0.9866204380298885  0.08176234557487311  0.381788688010893  1.0000
  C   C39       1.0  0.1553524882979787  0.8727732746718857  0.5954734728875481  1.0000
  C   C40       1.0  0.8446463207923075  0.12723554479486404  0.40452478009557075  1.0000
  C   C41       1.0  0.2585067306785334  0.868067331159196  0.6957233181822674  1.0000
  C   C42       1.0  0.741483988954883  0.1319245908175333  0.3042700101970368  1.0000
  C   C43       1.0  0.2120856088837826  0.9082761202481677  0.8136256168798753  1.0000
  C   C44       1.0  0.7879047591244157  0.09171477066147561  0.1863690200291686  1.0000
  N   N1        1.0  0.12371686246581959  0.19647289333200754  0.054998815083301615  1.0000
  N   N2        1.0  0.87628345621156  0.8035224559736635  0.9450083853879508  1.0000
  N   N3        1.0  0.9144285301550142  0.5201857887246605  0.23663925536423852  1.0000
  N   N4        1.0  0.0855687047502371  0.4798219250349902  0.7633559304438011  1.0000
  N   N5        1.0  0.44988399454341993  0.7775640541467441  0.5701427929762418  1.0000
  N   N6        1.0  0.550127514536527  0.2224429089413675  0.4298642911277427  1.0000
  N   N7        1.0  0.07099785379039505  0.9498716007419009  0.8347210047945952  1.0000
  N   N8        1.0  0.9289925123844257  0.05011926505408581  0.1652719211474434  1.0000
  N   N9        1.0  0.3018760422766533  0.87435284500814  0.10157714371290183  1.0000
  N   N10       1.0  0.6981141690476633  0.1256412151447108  0.8984194577041223  1.0000
  O   O1        1.0  0.25897947255509013  0.9768610151519042  0.08793597717422583  1.0000
  O   O2        1.0  0.7410211885806036  0.023135239652546595  0.9120613599322881  1.0000
  O   O3        1.0  0.3795791453133148  0.8058360315017483  0.02414858277794713  1.0000
  O   O4        1.0  0.6203916940656101  0.19414726249002  0.9758392945974352  1.0000
  O   O5        1.0  0.26645063102066774  0.8459684952713007  0.1915799051168109  1.0000
  O   O6        1.0  0.7335455526757002  0.1540361755144133  0.8084226282144513  1.0000
