data_image0
_chemical_formula_structural       Hg4H32C48I8N16O4
_chemical_formula_sum              "Hg4 H32 C48 I8 N16 O4"
_cell_length_a       5.27095048
_cell_length_b       17.099834587348077
_cell_length_c       20.4069
_cell_angle_alpha    103.00182319076215
_cell_angle_beta     90.0
_cell_angle_gamma    90.0

_space_group_name_H-M_alt    "P 1"
_space_group_IT_number       1

loop_
  _space_group_symop_operation_xyz
  'x, y, z'

loop_
  _atom_site_type_symbol
  _atom_site_label
  _atom_site_symmetry_multiplicity
  _atom_site_fract_x
  _atom_site_fract_y
  _atom_site_fract_z
  _atom_site_occupancy
  Hg  Hg1       1.0  0.4203776924878255  0.7499997963561924  0.7500000596146634  1.0000
  Hg  Hg2       1.0  0.5796184220649324  0.2500011324948446  0.2500008995430107  1.0000
  Hg  Hg3       1.0  0.5265065590219677  0.7500003965442517  0.2500001727635066  1.0000
  Hg  Hg4       1.0  0.4734990414859653  0.2500005323067853  0.7499983362425056  1.0000
  H   H1        1.0  0.7832439359210213  0.6845390856459657  0.6129916180594535  1.0000
  H   H2        1.0  0.7832344499658461  0.8154599068783595  0.8870059378693753  1.0000
  H   H3        1.0  0.2167635617779524  0.315458842264789  0.3870102454450191  1.0000
  H   H4        1.0  0.2167559730138109  0.18453862122045447  0.1129906484502783  1.0000
  H   H5        1.0  0.1431202973472097  0.7232638192109704  0.5465234181409426  1.0000
  H   H6        1.0  0.14311270858306102  0.7767387744416894  0.9534762867719238  1.0000
  H   H7        1.0  0.8568815087786562  0.2767371096400595  0.45347754101673843  1.0000
  H   H8        1.0  0.8568796115876225  0.2232645551615704  0.04652316485978499  1.0000
  H   H9        1.0  0.08538118536829842  0.9640886765167238  0.6707476165607389  1.0000
  H   H10       1.0  0.085383082559332  0.5359145173239952  0.8292517114706328  1.0000
  H   H11       1.0  0.9146187235665338  0.0359116521462539  0.3292527394177611  1.0000
  H   H12       1.0  0.9146206207575676  0.4640870117150939  0.17075230101788463  1.0000
  H   H13       1.0  0.7291322532022733  0.914671592733022  0.7320320237768811  1.0000
  H   H14       1.0  0.7291303560112397  0.5853279999793626  0.7679685854827838  1.0000
  H   H15       1.0  0.2708695529235925  0.0853281357418965  0.2679691991134519  1.0000
  H   H16       1.0  0.2708657585415253  0.4146675271791693  0.23203331545666117  1.0000
  H   H17       1.0  0.1060947170955018  0.6759359900504123  0.3477388138197597  1.0000
  H   H18       1.0  0.10610230585964331  0.8240630024739133  0.15226021220006913  1.0000
  H   H19       1.0  0.8938976030751891  0.3240607374842313  0.6522593931747025  1.0000
  H   H20       1.0  0.8939070890303641  0.17593792637712363  0.847740256927281  1.0000
  H   H21       1.0  0.76168425699192  0.7154739784313762  0.4329922726610178  1.0000
  H   H22       1.0  0.7616899485650279  0.7845262144690608  0.0670074696868213  1.0000
  H   H23       1.0  0.2383042687966963  0.2845233492913195  0.5670050674216185  1.0000
  H   H24       1.0  0.2383213435160201  0.2154765149461397  0.9329918687960514  1.0000
  H   H25       1.0  0.9635150281282849  0.9633000294110657  0.4417983862296068  1.0000
  H   H26       1.0  0.9635150281282849  0.5367007636774304  0.058203919418737406  1.0000
  H   H27       1.0  0.0364791892334395  0.0366978984996891  0.5582024972142037  1.0000
  H   H28       1.0  0.0364848808065474  0.4633019657377702  0.9417993393067973  1.0000
  H   H29       1.0  0.29167414982050843  0.913088296641142  0.3543543173609294  1.0000
  H   H30       1.0  0.29166845824740056  0.5869136968234726  0.14564674449409407  1.0000
  H   H31       1.0  0.7083257591143237  0.0869114318337836  0.6456454354384036  1.0000
  H   H32       1.0  0.7083276563053573  0.4130890325917349  0.8543555341707715  1.0000
  C   C1        1.0  0.8553922138156764  0.7460007433386693  0.6236268730546968  1.0000
  C   C2        1.0  0.8553865222425685  0.7539994495617748  0.8763709091718113  1.0000
  C   C3        1.0  0.14461718107433094  0.25399838494819693  0.37637521674746205  1.0000
  C   C4        1.0  0.1446076951191557  0.24599907853703937  0.12362714723883529  1.0000
  C   C5        1.0  0.05441902766652621  0.7677779667647258  0.5865149342382594  1.0000
  C   C6        1.0  0.054413336093418314  0.7322246268879409  0.9134828105532762  1.0000
  C   C7        1.0  0.9455846756503804  0.2322217617101998  0.4134853085914045  1.0000
  C   C8        1.0  0.9455827784593396  0.2677781025272665  0.0865165279295894  1.0000
  C   C9        1.0  0.1395478866270778  0.8474817402332917  0.6028012320258824  1.0000
  C   C10       1.0  0.1395459894360442  0.6525208534193752  0.8971974928263221  1.0000
  C   C11       1.0  0.8604520223077472  0.15251798824162677  0.3971995008341125  1.0000
  C   C12       1.0  0.8604520223077472  0.3474824761838846  0.10280440895705568  1.0000
  C   C13       1.0  0.0217721643250925  0.9019536078251276  0.655971080079098  1.0000
  C   C14       1.0  0.0217778558982005  0.5980483856394798  0.8440275316242634  1.0000
  C   C15       1.0  0.9782315389918068  0.0980467208378499  0.34402976592974  1.0000
  C   C16       1.0  0.9782220530366246  0.4019525432115501  0.1559744075940799  1.0000
  C   C17       1.0  0.8253691656765484  0.8745532225018522  0.6901965843546733  1.0000
  C   C18       1.0  0.8253672684855147  0.6254463702105326  0.8098030448443296  1.0000
  C   C19       1.0  0.1746383320224254  0.1254465059730734  0.3098051285659906  1.0000
  C   C20       1.0  0.17463264044931753  0.3745497571360516  0.19019651909228938  1.0000
  C   C21       1.0  0.3469563994082492  0.8754415008248201  0.567434055272834  1.0000
  C   C22       1.0  0.3469563994082492  0.6245604926397945  0.9325645564305277  1.0000
  C   C23       1.0  0.6530397151445086  0.124557027273994  0.4325654712288127  1.0000
  C   C24       1.0  0.6530435095265761  0.3754428369634652  0.06743685532251217  1.0000
  C   C25       1.0  0.6529657246941127  0.8730965660897922  0.4975909468273869  1.0000
  C   C26       1.0  0.6529600331210119  0.6269030266225926  0.002410152462608993  1.0000
  C   C27       1.0  0.34702849266760444  0.126899561256792  0.5024081270789011  1.0000
  C   C28       1.0  0.3470379786227866  0.3730985024165037  0.9975909198439082  1.0000
  C   C29       1.0  0.06726301097786092  0.7390817754284171  0.3698397545354766  1.0000
  C   C30       1.0  0.0672668053599352  0.7609190176600791  0.1301591209005295  1.0000
  C   C31       1.0  0.932733103574897  0.260916752670397  0.630157321814508  1.0000
  C   C32       1.0  0.9327425895300793  0.23908371175512133  0.8698411976430053  1.0000
  C   C33       1.0  0.8763960157713343  0.7612809310578824  0.4177658782865095  1.0000
  C   C34       1.0  0.8763998101534085  0.7387174612783909  0.08223352461480717  1.0000
  C   C35       1.0  0.1235944072083157  0.2387139959125903  0.5822300291400992  1.0000
  C   C36       1.0  0.1236095847366059  0.2612840677607053  0.9177670576613791  1.0000
  C   C37       1.0  0.836684013013155  0.8431897954444167  0.44498295579841607  1.0000
  C   C38       1.0  0.8366783214400471  0.6568097972679752  0.055019123552241894  1.0000
  C   C39       1.0  0.16331210153961  0.15680633190217455  0.5550170981685341  1.0000
  C   C40       1.0  0.1633177931127108  0.3431917317711211  0.9449824387846064  1.0000
  C   C41       1.0  0.9880570913654267  0.8992683664623158  0.4222011031389243  1.0000
  C   C42       1.0  0.9880589885564605  0.600731826438121  0.07779961926957665  1.0000
  C   C43       1.0  0.011931434423189603  0.1007289612603799  0.577798687095374  1.0000
  C   C44       1.0  0.0119428175694054  0.3992709029770792  0.9222011893042891  1.0000
  C   C45       1.0  0.1709160432104824  0.871437046114792  0.37363559681200087  1.0000
  C   C46       1.0  0.1709141460194488  0.6285637469737111  0.1263652387453433  1.0000
  C   C47       1.0  0.8290724825781339  0.12856208217207407  0.6263625727474889  1.0000
  C   C48       1.0  0.8290838657243498  0.3714389824414965  0.8736365498891913  1.0000
  I   I1        1.0  0.3214752266084631  0.6059438595169411  0.6687552031324557  1.0000
  I   I2        1.0  0.32147712379950383  0.8940557331954437  0.8312444260665401  1.0000
  I   I3        1.0  0.678524682326362  0.3940564691460365  0.3312461329067133  1.0000
  I   I4        1.0  0.6785341682815442  0.10594819659587527  0.1687536686230118  1.0000
  I   I5        1.0  0.6163708068075024  0.8994730305894336  0.23341139842261072  1.0000
  I   I6        1.0  0.6163632180433609  0.6005265621229512  0.2665882307763923  1.0000
  I   I7        1.0  0.383627204936289  0.10052849844965547  0.7665857536412517  1.0000
  I   I8        1.0  0.3836461768466464  0.39947376654002636  0.7334086949897838  1.0000
  N   N1        1.0  0.7429096545031442  0.7981930966935876  0.6742706320461878  1.0000
  N   N2        1.0  0.7429020657390027  0.7018058958307378  0.825727413912972  1.0000
  N   N3        1.0  0.2570959460047888  0.2018060315932786  0.32573145775597107  1.0000
  N   N4        1.0  0.25709025443168093  0.2981890311397351  0.17427143369562967  1.0000
  N   N5        1.0  0.4433792366040237  0.9480294447007438  0.5793852650994111  1.0000
  N   N6        1.0  0.4433754422219494  0.5519719485758046  0.9206147035461072  1.0000
  N   N7        1.0  0.5566225695218421  0.0519684832100111  0.4206141482533994  1.0000
  N   N8        1.0  0.5566225695218421  0.4480307808393959  0.07938708508842748  1.0000
  N   N9        1.0  0.6404006284650238  0.9463279115618162  0.5347926977116799  1.0000
  N   N10       1.0  0.6403949368919158  0.5536716811505682  0.9652074215176469  1.0000
  N   N11       1.0  0.3596011776608492  0.0536694161608793  0.4652066024922874  1.0000
  N   N12       1.0  0.35960686923395  0.4463292477004686  0.0347940276703653  1.0000
  N   N13       1.0  0.210626148777628  0.7928634267557797  0.347995496102989  1.0000
  N   N14       1.0  0.2106280459686687  0.7071385667088277  0.15200507572170346  1.0000
  N   N15       1.0  0.7893680685840962  0.207136901907198  0.6520038798148491  1.0000
  N   N16       1.0  0.7893775545392714  0.2928647628944319  0.8479963360313364  1.0000
  O   O1        1.0  0.4716397942710344  0.8241806393329012  0.5157442576625257  1.0000
  O   O2        1.0  0.4716416914620681  0.6758195535675426  0.9842564647459753  1.0000
  O   O3        1.0  0.5283582174727642  0.1758166883897943  0.48425455251111055  1.0000
  O   O4        1.0  0.5283620118548313  0.32418377603571696  0.015744947007064507  1.0000
