data_image0
_chemical_formula_structural       Zn2H28C44N4Cl4O8
_chemical_formula_sum              "Zn2 H28 C44 N4 Cl4 O8"
_cell_length_a       9.85145054214696
_cell_length_b       11.327833078824199
_cell_length_c       12.755166414974818
_cell_angle_alpha    103.73364373749557
_cell_angle_beta     97.70670297945878
_cell_angle_gamma    95.77221562883051

_space_group_name_H-M_alt    "P 1"
_space_group_IT_number       1

loop_
  _space_group_symop_operation_xyz
  'x, y, z'

loop_
  _atom_site_type_symbol
  _atom_site_label
  _atom_site_symmetry_multiplicity
  _atom_site_fract_x
  _atom_site_fract_y
  _atom_site_fract_z
  _atom_site_occupancy
  Zn  Zn1       1.0  0.4831296485863278  0.798355245633367  0.17561690622061835  1.0000
  Zn  Zn2       1.0  0.5168691544705055  0.2016421253139314  0.824383519041824  1.0000
  H   H1        1.0  0.3095420723262094  0.9968466258136245  0.2174177643703246  1.0000
  H   H2        1.0  0.690453650086795  0.003150749022964301  0.7825807841666118  1.0000
  H   H3        1.0  0.16031457876145794  0.10931116871568493  0.109063137884057  1.0000
  H   H4        1.0  0.839680568807495  0.8906889552748327  0.8909398559365159  1.0000
  H   H5        1.0  0.29597665061699274  0.9072080080813055  0.8191388955098307  1.0000
  H   H6        1.0  0.7040196747384542  0.09278661192865915  0.18086069738303223  1.0000
  H   H7        1.0  0.43582963829927474  0.7996176599064242  0.939386390961623  1.0000
  H   H8        1.0  0.5641668341671962  0.20037787677638624  0.06061419512042224  1.0000
  H   H9        1.0  0.8828847669398954  0.9370793152375543  0.6889995698842384  1.0000
  H   H10       1.0  0.11711343718855012  0.06292080972598062  0.31100059525650187  1.0000
  H   H11       1.0  0.7412038055482882  0.9953197204863785  0.5355294355869092  1.0000
  H   H12       1.0  0.25879964263304345  0.004681322231434101  0.4644675310994444  1.0000
  H   H13       1.0  0.7202110051872311  0.1226482070735315  0.4039258164419905  1.0000
  H   H14       1.0  0.2797880680073136  0.8773510020817599  0.5960718897934784  1.0000
  H   H15       1.0  0.8265210239367988  0.2840133914215244  0.3228780364424395  1.0000
  H   H16       1.0  0.17347833545169075  0.7159876527002141  0.6771200877029458  1.0000
  H   H17       1.0  0.1954952219075494  0.3444964138229665  0.561479425558872  1.0000
  H   H18       1.0  0.8045057380881105  0.6555082986651259  0.4385204213929228  1.0000
  H   H19       1.0  0.21279442220032513  0.22117355066767183  0.7026977055062673  1.0000
  H   H20       1.0  0.7872046469801718  0.7788256592980008  0.2972992164949845  1.0000
  H   H21       1.0  0.42223970335363964  0.5219638159683486  0.08939226504129041  1.0000
  H   H22       1.0  0.5777668479979854  0.47803079972140966  0.9106052184382136  1.0000
  H   H23       1.0  0.2952448656199778  0.3477587152677941  0.14224785807216728  1.0000
  H   H24       1.0  0.7047499957550301  0.6522395737562692  0.857754717838489  1.0000
  H   H25       1.0  0.13549028056257134  0.6164750675674001  0.37835208755588207  1.0000
  H   H26       1.0  0.8645127624121969  0.38352321783842314  0.621648957670935  1.0000
  H   H27       1.0  0.2684471803652145  0.7799169004427143  0.3159266476462151  1.0000
  H   H28       1.0  0.7315592655738357  0.22008320874680012  0.684083750324028  1.0000
  C   C1        1.0  0.30092110129612604  0.9790887876697103  0.12872551581890695  1.0000
  C   C2        1.0  0.6990803065028431  0.0209122549396881  0.8712728138311903  1.0000
  C   C3        1.0  0.2193821605993307  0.041013510929481405  0.0685525236326257  1.0000
  C   C4        1.0  0.7806138560357213  0.9589856972527927  0.9314480112826757  1.0000
  C   C5        1.0  0.2144078134441827  0.013639607826256405  0.9553864114817756  1.0000
  C   C6        1.0  0.7855847093123531  0.9863568485540886  0.044614756780035285  1.0000
  C   C7        1.0  0.29443517993252755  0.9273441312346409  0.9066832719772793  1.0000
  C   C8        1.0  0.7055577600727504  0.0726550800265429  0.09331617044673382  1.0000
  C   C9        1.0  0.371850577395371  0.8682190660313582  0.9722715536098789  1.0000
  C   C10       1.0  0.628143687507425  0.1317755579221114  0.02772548107560622  1.0000
  C   C11       1.0  0.1198398883257212  0.07411506951235222  0.8893606248636132  1.0000
  C   C12       1.0  0.880162586275226  0.9258795451501812  0.1106403687775952  1.0000
  C   C13       1.0  0.051868821573656  0.08054339974558643  0.7039302389672032  1.0000
  C   C14       1.0  0.9481283478652713  0.9194631466817286  0.2960735360562126  1.0000
  C   C15       1.0  0.9194262429178791  0.014808050615336299  0.6588136336062647  1.0000
  C   C16       1.0  0.08057326759568892  0.9851939093688601  0.3411862679625273  1.0000
  C   C17       1.0  0.8431038166470801  0.0458688352205527  0.5730651618749222  1.0000
  C   C18       1.0  0.15689641582156366  0.9541312922825613  0.42693128759941606  1.0000
  C   C19       1.0  0.8978471025372414  0.14131817308080494  0.5293598136131195  1.0000
  C   C20       1.0  0.10215195615896283  0.8586874575924811  0.470640821023153  1.0000
  C   C21       1.0  0.8232591446150296  0.17242502625637712  0.4388044307777435  1.0000
  C   C22       1.0  0.17674199304622112  0.827574178145021  0.5611966178993201  1.0000
  C   C23       1.0  0.881480168421163  0.26028469654365693  0.393409305074421  1.0000
  C   C24       1.0  0.11852038079598512  0.739710841166378  0.6065877708459197  1.0000
  C   C25       1.0  0.016628618752676502  0.3195057367409788  0.4384848628327802  1.0000
  C   C26       1.0  0.9833726499633783  0.6804943875748038  0.561514042096583  1.0000
  C   C27       1.0  0.09148231778898011  0.2962344689739994  0.528470761918598  1.0000
  C   C28       1.0  0.9085245037003562  0.7037619849237589  0.47152400253393273  1.0000
  C   C29       1.0  0.03369007213775181  0.20601324764657394  0.5763512886956761  1.0000
  C   C30       1.0  0.9663122247975978  0.7939868751026469  0.4236485032202567  1.0000
  C   C31       1.0  0.10911669756938382  0.17470386903517723  0.6660926434581285  1.0000
  C   C32       1.0  0.8908810507276428  0.8252999274278283  0.3339074705158751  1.0000
  C   C33       1.0  0.1410985173491994  0.3663537090459458  0.3044141941407261  1.0000
  C   C34       1.0  0.858900398250036  0.633651004144106  0.695586231540588  1.0000
  C   C35       1.0  0.35707032000170363  0.5385217051474029  0.15267825812473754  1.0000
  C   C36       1.0  0.642931984961763  0.46147841598104844  0.8473231022596366  1.0000
  C   C37       1.0  0.2870645634508265  0.4422103059842827  0.18287580052994912  1.0000
  C   C38       1.0  0.7129345177718349  0.5577889015502395  0.8171234741739611  1.0000
  C   C39       1.0  0.20777159329841774  0.4693329081467682  0.2664115456061111  1.0000
  C   C40       1.0  0.7922330382413564  0.5306690480565593  0.7335888697244429  1.0000
  C   C41       1.0  0.19744266583829534  0.5920501808677727  0.3140920801391829  1.0000
  C   C42       1.0  0.8025610886072628  0.4079526927645747  0.6859092256282083  1.0000
  C   C43       1.0  0.270396673856439  0.6830037529438115  0.2791838897043704  1.0000
  C   C44       1.0  0.7296061994808484  0.3170000389279296  0.7208175222656268  1.0000
  N   N1        1.0  0.373692715074725  0.8927790005327554  0.08115730357143756  1.0000
  N   N2        1.0  0.6263060839680534  0.10721837122493132  0.9188423374567803  1.0000
  N   N3        1.0  0.3502639913020503  0.6567387592634761  0.20114917631055823  1.0000
  N   N4        1.0  0.6497435938408103  0.3432622723257879  0.798856043727433  1.0000
  Cl  Cl1       1.0  0.6253910793057429  0.7036400362996816  0.07303941939485274  1.0000
  Cl  Cl2       1.0  0.37461005434145994  0.29635916891210473  0.9269608450479936  1.0000
  Cl  Cl3       1.0  0.5351107547811227  0.9275454163761195  0.3410717632087525  1.0000
  Cl  Cl4       1.0  0.46489136047457447  0.07246021527017632  0.6589260427476944  1.0000
  O   O1        1.0  0.038466572984056306  0.14069386809730844  0.9256456673627086  1.0000
  O   O2        1.0  0.9615382056667413  0.8593090047788579  0.07435574115703496  1.0000
  O   O3        1.0  0.1347672058739207  0.03920592535982341  0.7822580510920859  1.0000
  O   O4        1.0  0.865229834966371  0.960793282066277  0.21774258657556805  1.0000
  O   O5        1.0  0.1466132753799769  0.2580769703992871  0.2650113409155637  1.0000
  O   O6        1.0  0.8533791967517104  0.7419259147925105  0.734985697639047  1.0000
  O   O7        1.0  0.07616130094017139  0.4087715836874892  0.39127044622332363  1.0000
  O   O8        1.0  0.9238395239866365  0.5912322096966065  0.6087307602419614  1.0000
