data_image0
_chemical_formula_structural       Cd2H26C40N2O14
_chemical_formula_sum              "Cd2 H26 C40 N2 O14"
_cell_length_a       6.563971611980038
_cell_length_b       9.873596856347698
_cell_length_c       13.610039984767825
_cell_angle_alpha    95.67314352044686
_cell_angle_beta     99.59710046992271
_cell_angle_gamma    90.55171215287922

_space_group_name_H-M_alt    "P 1"
_space_group_IT_number       1

loop_
  _space_group_symop_operation_xyz
  'x, y, z'

loop_
  _atom_site_type_symbol
  _atom_site_label
  _atom_site_symmetry_multiplicity
  _atom_site_fract_x
  _atom_site_fract_y
  _atom_site_fract_z
  _atom_site_occupancy
  Cd  Cd1       1.0  0.21733823009480355  0.4744851621713481  0.6012059266009118  1.0000
  Cd  Cd2       1.0  0.7826140828962592  0.5255381578544771  0.3987906743403258  1.0000
  H   H1        1.0  0.2168821196393012  0.9962251553180224  0.5809450656464179  1.0000
  H   H2        1.0  0.7831139057588034  0.0038117400106471937  0.4190518808068688  1.0000
  H   H3        1.0  0.600049099056804  0.6040898672767059  0.6478881245089454  1.0000
  H   H4        1.0  0.39993012189048477  0.39591094899405727  0.3520908145807767  1.0000
  H   H5        1.0  0.5081148574014946  0.6221979708458178  0.7494069127702473  1.0000
  H   H6        1.0  0.4919314345966512  0.3777755913835393  0.250594970163398  1.0000
  H   H7        1.0  0.2236428103000421  0.036331473884302995  0.9742785287012907  1.0000
  H   H8        1.0  0.7764538708962975  0.9636472256311704  0.025721465947441402  1.0000
  H   H9        1.0  0.961786544702548  0.6613051176482257  0.7370920397658125  1.0000
  H   H10       1.0  0.03822441834660141  0.3387209148055845  0.2629296658749638  1.0000
  H   H11       1.0  0.17616573292308146  0.30054663574963303  0.9529193910460094  1.0000
  H   H12       1.0  0.8237931473466629  0.6994467705108748  0.04708664956486069  1.0000
  H   H13       1.0  0.39341546734925  0.6821533543771636  0.2087908748696634  1.0000
  H   H14       1.0  0.6065565722540073  0.31783542485646166  0.7912218491616372  1.0000
  H   H15       1.0  0.1799066579013555  0.08511146030608073  0.1523113220418324  1.0000
  H   H16       1.0  0.8201906556483891  0.9148917672048146  0.8476728548636245  1.0000
  H   H17       1.0  0.43283625654740376  0.6361447162962222  0.03071518150612461  1.0000
  H   H18       1.0  0.5671394130187578  0.36382551961295206  0.9693001974780202  1.0000
  H   H19       1.0  0.31975376206831635  0.13825635600574773  0.3043430280397601  1.0000
  H   H20       1.0  0.6802263034325051  0.8617525834455861  0.6956453856765351  1.0000
  H   H21       1.0  0.2310717005886218  0.7066185925212167  0.32659159124512627  1.0000
  H   H22       1.0  0.7689076605746409  0.2933893139467969  0.6734179968552425  1.0000
  H   H23       1.0  0.8678381791118708  0.6810914915630802  0.9065082677106489  1.0000
  H   H24       1.0  0.1322040940890616  0.31893837900265254  0.0935222988150883  1.0000
  H   H25       1.0  0.23436933695328582  0.29037065130813033  0.7772250325660721  1.0000
  H   H26       1.0  0.7655909523798667  0.7096329193065712  0.22277965602232538  1.0000
  C   C1        1.0  0.284629702904624  0.2250345959114597  0.496099106423479  1.0000
  C   C2        1.0  0.715330409017767  0.7749741381252236  0.5038802195883108  1.0000
  C   C3        1.0  0.26812230719935565  0.08213879432477  0.4462796426155791  1.0000
  C   C4        1.0  0.7318960001204216  0.9178788197160942  0.5537149047619607  1.0000
  C   C5        1.0  0.22989154364729103  0.9748689909255219  0.5022485303288988  1.0000
  C   C6        1.0  0.770083868245912  0.025151375706826698  0.497739567688093  1.0000
  C   C7        1.0  0.18664177631217885  0.7261831715911528  0.5187021498961571  1.0000
  C   C8        1.0  0.813312091442569  0.27382884453584216  0.481295242546203  1.0000
  C   C9        1.0  0.27267509622289043  0.9190600320392052  0.30004305499817013  1.0000
  C   C10       1.0  0.7273146595064262  0.08093011348724131  0.6999521935750721  1.0000
  C   C11       1.0  0.21605539582446903  0.8401720688224044  0.4576662545710235  1.0000
  C   C12       1.0  0.7838815386687729  0.15983961630142568  0.5423245066551702  1.0000
  C   C13       1.0  0.019764654987135092  0.494461508886772  0.947845531688607  1.0000
  C   C14       1.0  0.9802388562960471  0.5055423556174645  0.05216879270903257  1.0000
  C   C15       1.0  0.2405380383444182  0.812460785123818  0.3583384554627785  1.0000
  C   C16       1.0  0.759411870855267  0.1875544730742291  0.6416492752890761  1.0000
  C   C17       1.0  0.28942052274680924  0.8892257580511257  0.1946891689801546  1.0000
  C   C18       1.0  0.7105866474160363  0.11076878179851947  0.8053152489049256  1.0000
  C   C19       1.0  0.33700951426296655  0.8352108070964731  0.9925039882260832  1.0000
  C   C20       1.0  0.6630465313330661  0.1647552054837647  0.0075011344085921874  1.0000
  C   C21       1.0  0.3557120129397264  0.7603376943129023  0.15791596841205552  1.0000
  C   C22       1.0  0.6442660328447402  0.239648808137801  0.8420927022864005  1.0000
  C   C23       1.0  0.286689469631817  0.05438421862214679  0.3460339738690621  1.0000
  C   C24       1.0  0.7132937832499452  0.9456286493354044  0.6539711635918265  1.0000
  C   C25       1.0  0.23990889305111557  0.9880719443459682  0.1265579989585817  1.0000
  C   C26       1.0  0.7601415651732993  0.011919854443839  0.8734382068362976  1.0000
  C   C27       1.0  0.2629038533132332  0.9613038235488177  0.02740747423492002  1.0000
  C   C28       1.0  0.7371650192202496  0.038674975586261  0.9725886541128546  1.0000
  C   C29       1.0  0.9557269212769698  0.5942535655423526  0.8836457941367969  1.0000
  C   C30       1.0  0.044301056302835214  0.40575852099581067  0.11636535768647602  1.0000
  C   C31       1.0  0.37890306442204746  0.7341616221309408  0.058716198323864405  1.0000
  C   C32       1.0  0.6210821000620826  0.2658205044699002  0.9412942428183869  1.0000
  C   C33       1.0  0.36196980877578966  0.8073763624263959  0.8848236973933438  1.0000
  C   C34       1.0  0.6381190652143901  0.1925679039886319  0.11517829102896121  1.0000
  C   C35       1.0  0.00185515913385362  0.5826379491671787  0.7871758746483408  1.0000
  C   C36       1.0  0.9981392584779128  0.41738978826784745  0.2128349707800723  1.0000
  C   C37       1.0  0.12243854671027782  0.3827241641141158  0.9083393208908319  1.0000
  C   C38       1.0  0.8775547229234347  0.6172729563995534  0.09167583787569811  1.0000
  C   C39       1.0  0.15829995170692973  0.37668700882908723  0.810503740169665  1.0000
  C   C40       1.0  0.8416770249599921  0.6233261033864964  0.18950528118502774  1.0000
  N   N1        1.0  0.10251604851761438  0.4761418550773371  0.7513274751229417  1.0000
  N   N2        1.0  0.8974615443381424  0.5238763367207326  0.24868416904693194  1.0000
  O   O1        1.0  0.3081213156886164  0.3242334812064911  0.4461974934674728  1.0000
  O   O2        1.0  0.6917911497142767  0.6757628957222294  0.553760659814671  1.0000
  O   O3        1.0  0.2659887459412218  0.24144448432059565  0.5887715030510492  1.0000
  O   O4        1.0  0.7339750531041248  0.758590677728897  0.41120342801527704  1.0000
  O   O5        1.0  0.15206085686407533  0.6049751043919827  0.47179867877747483  1.0000
  O   O6        1.0  0.8479194934912683  0.39503789261357275  0.528199603759866  1.0000
  O   O7        1.0  0.5345379488886622  0.5530322408498166  0.6944456675345307  1.0000
  O   O8        1.0  0.4654567421723428  0.4469567158874171  0.3055330215568901  1.0000
  O   O9        1.0  0.2014214758478445  0.7483801532972123  0.6119364222834989  1.0000
  O   O10       1.0  0.7985636396962691  0.2516551470483179  0.3880543227755168  1.0000
  O   O11       1.0  0.49806925305301764  0.7239959264228234  0.8624547601533337  1.0000
  O   O12       1.0  0.5019935365074559  0.275940177581333  0.13755320449813271  1.0000
  O   O13       1.0  0.2389958991305434  0.8679926797885144  0.8231782226141391  1.0000
  O   O14       1.0  0.7610896256138348  0.13194967796038526  0.17682333909842643  1.0000
