data_image0
_chemical_formula_structural       Ag2H24C24S2N6O6
_chemical_formula_sum              "Ag2 H24 C24 S2 N6 O6"
_cell_length_a       7.490391272029063
_cell_length_b       7.964970807007906
_cell_length_c       12.227273965132804
_cell_angle_alpha    88.52395388624616
_cell_angle_beta     78.01010113656912
_cell_angle_gamma    70.30069806057108

_space_group_name_H-M_alt    "P 1"
_space_group_IT_number       1

loop_
  _space_group_symop_operation_xyz
  'x, y, z'

loop_
  _atom_site_type_symbol
  _atom_site_label
  _atom_site_symmetry_multiplicity
  _atom_site_fract_x
  _atom_site_fract_y
  _atom_site_fract_z
  _atom_site_occupancy
  Ag  Ag1       1.0  0.29224226311631446  0.1631579737820559  0.2758563121241123  1.0000
  Ag  Ag2       1.0  0.7077659989532988  0.836840936068569  0.7241424308428178  1.0000
  H   H1        1.0  0.2462415708435729  0.6147360963654336  0.05337263840821287  1.0000
  H   H2        1.0  0.7537538048876015  0.3852681583453901  0.9466276032992551  1.0000
  H   H3        1.0  0.48709580003978925  0.594677177667819  0.8739519986345811  1.0000
  H   H4        1.0  0.5129070937724479  0.4053177569691471  0.12604914284653287  1.0000
  H   H5        1.0  0.3789004986505375  0.14068928282353002  0.8893417501998255  1.0000
  H   H6        1.0  0.6211165899523934  0.8593042302541749  0.11065273337862885  1.0000
  H   H7        1.0  0.13666359973186815  0.18211636827765432  0.06667129367217939  1.0000
  H   H8        1.0  0.8633554995510836  0.8178865009679156  0.933323546565255  1.0000
  H   H9        1.0  0.9834590969740804  0.8035336149690834  0.1955617225913285  1.0000
  H   H10       1.0  0.01654635197785132  0.19646926025657765  0.8044348314425988  1.0000
  H   H11       1.0  0.9112739904302812  0.04256368793934231  0.1911502997536091  1.0000
  H   H12       1.0  0.08872775424217859  0.9574418450937117  0.8088458421945572  1.0000
  H   H13       1.0  0.2503999437215186  0.6225479414594872  0.31959491482936636  1.0000
  H   H14       1.0  0.7495931015868322  0.37745895703402976  0.6804039247159749  1.0000
  H   H15       1.0  0.4219696125465833  0.7001929685575233  0.22701883883710386  1.0000
  H   H16       1.0  0.5780290942913241  0.29980594547917166  0.7729811037873658  1.0000
  H   H17       1.0  0.19953718450582872  0.691471987820826  0.5359418712037609  1.0000
  H   H18       1.0  0.800454096126039  0.30853226868402567  0.4640588846426539  1.0000
  H   H19       1.0  0.3730437020649262  0.7126469920718109  0.6832396094815109  1.0000
  H   H20       1.0  0.6269460152876077  0.28734664037958874  0.3167648512636915  1.0000
  H   H21       1.0  0.8180016314199177  0.8060256610133861  0.4529336355187538  1.0000
  H   H22       1.0  0.1819873665464229  0.19397732880189986  0.5470715246447354  1.0000
  H   H23       1.0  0.6645046935665205  0.781272284678174  0.29407326021082264  1.0000
  H   H24       1.0  0.33549200308002713  0.21873203656808474  0.7059309036006097  1.0000
  C   C1        1.0  0.2763816018190964  0.7331607946011687  0.020478105615630706  1.0000
  C   C2        1.0  0.723623473960096  0.26683939775775667  0.9795177372495443  1.0000
  C   C3        1.0  0.4086754403730026  0.7223526661200025  0.9200216999815537  1.0000
  C   C4        1.0  0.5913305831488175  0.27764490990761453  0.07997735381884039  1.0000
  C   C5        1.0  0.34856389463252674  0.025735187182824897  0.9278784803664448  1.0000
  C   C6        1.0  0.6514462504592302  0.9742623467707006  0.0721176032048305  1.0000
  C   C7        1.0  0.21353515338327608  0.04881102711037501  0.02797760532086361  1.0000
  C   C8        1.0  0.786476282513654  0.951190456997466  0.972014956481736  1.0000
  C   C9        1.0  0.17728491664684753  0.8996734423862379  0.07714241582727507  1.0000
  C   C10       1.0  0.8227181577645267  0.10033214375555839  0.9228568295281361  1.0000
  C   C11       1.0  0.03467009566808347  0.9179221306661631  0.18562379081652833  1.0000
  C   C12       1.0  0.9653335055558897  0.0820820667498552  0.8143721478261553  1.0000
  C   C13       1.0  0.31929551185748295  0.7255081161145824  0.30821434598176  1.0000
  C   C14       1.0  0.6806993723552852  0.27449747361527704  0.6917859276515442  1.0000
  C   C15       1.0  0.418110061872909  0.7353483552886859  0.40144123670575727  1.0000
  C   C16       1.0  0.5818826844906367  0.26465190958576573  0.598560242059868  1.0000
  C   C17       1.0  0.3362761661171021  0.7171677549278571  0.5128702563616087  1.0000
  C   C18       1.0  0.6637247704450503  0.2828325063585382  0.4871301941261235  1.0000
  C   C19       1.0  0.43309564769766234  0.7296980206651824  0.596254585535341  1.0000
  C   C20       1.0  0.566892748739498  0.27029554525078947  0.40374595310589  1.0000
  C   C21       1.0  0.6814794033853743  0.779168000056849  0.46783898055810613  1.0000
  C   C22       1.0  0.31850915600384155  0.22083624421733825  0.5321612993508821  1.0000
  C   C23       1.0  0.5942938186866514  0.7679967038722353  0.3796577030179832  1.0000
  C   C24       1.0  0.4057047080407656  0.2320063220370514  0.6203487135781314  1.0000
  S   S1        1.0  0.12699825103885595  0.9418487944115769  0.3094482691326376  1.0000
  S   S2        1.0  0.8730026112953624  0.05815541762714101  0.6905488309660726  1.0000
  N   N1        1.0  0.4472049100846008  0.8651233391575417  0.8741537194643739  1.0000
  N   N2        1.0  0.5528017409483822  0.134868857111897  0.12584292192214971  1.0000
  N   N3        1.0  0.6030580385943691  0.7601568548674892  0.575027067188948  1.0000
  N   N4        1.0  0.3969356202176186  0.23984084738241757  0.42498089729878785  1.0000
  N   N5        1.0  0.9538391280676922  0.46777033061990636  0.19280087557686432  1.0000
  N   N6        1.0  0.04615965299814917  0.5322246326644661  0.8072024174366346  1.0000
  O   O1        1.0  0.12300021434113968  0.4608738300627593  0.20436242507216912  1.0000
  O   O2        1.0  0.8769998398827711  0.5391251102292997  0.7956389835661  1.0000
  O   O3        1.0  0.8870345466443439  0.34817396191089506  0.2332679009061991  1.0000
  O   O4        1.0  0.11296742953546612  0.6518197054384843  0.7667374735123358  1.0000
  O   O5        1.0  0.8578209351425629  0.593621753292453  0.141299206764451  1.0000
  O   O6        1.0  0.14217698123212588  0.406371862144205  0.858703407006132  1.0000
