data_image0
_chemical_formula_structural       Mn3H8C24O20
_chemical_formula_sum              "Mn3 H8 C24 O20"
_cell_length_a       9.262260059947778
_cell_length_b       9.825964485617254
_cell_length_c       11.126011722540536
_cell_angle_alpha    73.8679976117131
_cell_angle_beta     87.46903916029416
_cell_angle_gamma    82.07905826430684

_space_group_name_H-M_alt    "P 1"
_space_group_IT_number       1

loop_
  _space_group_symop_operation_xyz
  'x, y, z'

loop_
  _atom_site_type_symbol
  _atom_site_label
  _atom_site_symmetry_multiplicity
  _atom_site_fract_x
  _atom_site_fract_y
  _atom_site_fract_z
  _atom_site_occupancy
  Mn  Mn1       1.0  0.0211788932225332  0.08319410569487222  0.16072318032468047  1.0000
  Mn  Mn2       1.0  0.9788261259296646  0.9167965801833732  0.8392702997865268  1.0000
  Mn  Mn3       1.0  0.999994188022299  2.511966201302332e-06  0.5000067471254324  1.0000
  H   H1        1.0  0.1371538614931467  0.42934845475554795  0.4791223749814362  1.0000
  H   H2        1.0  0.1404685908663623  0.7149867718320664  0.3663603598611046  1.0000
  H   H3        1.0  0.2583250050778431  0.21059084050089893  0.4883595128411783  1.0000
  H   H4        1.0  0.5498162836913921  0.2357053477652258  0.4428306715747892  1.0000
  H   H5        1.0  0.862840613563975  0.570673190346298  0.5208752803705606  1.0000
  H   H6        1.0  0.8595236843812017  0.28503139576399417  0.633616633648046  1.0000
  H   H7        1.0  0.7416736482088383  0.7893976462538677  0.511644537149216  1.0000
  H   H8        1.0  0.4501845110187049  0.7642906604805191  0.5571678600706774  1.0000
  C   C1        1.0  0.014238687304398895  0.2887207947134415  0.30781256405637686  1.0000
  C   C2        1.0  0.03914306015923332  0.4347610690684646  0.3010597413167631  1.0000
  C   C3        1.0  0.1002078474879298  0.4892270036879083  0.38603292575933046  1.0000
  C   C4        1.0  0.1032652388071398  0.6361897075897289  0.32759403682643295  1.0000
  C   C5        1.0  0.04413945271710417  0.6625435539230154  0.21016941292025126  1.0000
  C   C6        1.0  0.020379142466275407  0.7952697867514615  0.10869168360811438  1.0000
  C   C7        1.0  0.21710206575340857  0.997327842516988  0.7316251441545131  1.0000
  C   C8        1.0  0.3422730461302663  0.05576220036091681  0.6611534091944263  1.0000
  C   C9        1.0  0.350657079214642  0.15678533314382292  0.5474272528145717  1.0000
  C   C10       1.0  0.5002433054086451  0.16900204455371437  0.5242043960439701  1.0000
  C   C11       1.0  0.5743526153166911  0.07424042372533532  0.6250951188513197  1.0000
  C   C12       1.0  0.7310114176366013  0.030051593205207904  0.6471823025374944  1.0000
  C   C13       1.0  0.9857646142272498  0.7112785764790034  0.6921940658395582  1.0000
  C   C14       1.0  0.9608521409547492  0.5652423563004518  0.6989415492264752  1.0000
  C   C15       1.0  0.899787005228788  0.5107860288628315  0.6139623772653663  1.0000
  C   C16       1.0  0.8967280157932933  0.36382105572056384  0.6723928760330935  1.0000
  C   C17       1.0  0.9558515581456671  0.3374607316237715  0.7898200628350904  1.0000
  C   C18       1.0  0.9796100924404667  0.2047258353833783  0.8912954971478015  1.0000
  C   C19       1.0  0.7829098843623754  0.002664253305873404  0.2683858200474559  1.0000
  C   C20       1.0  0.6577309960041333  0.9442393328136309  0.3388526655360591  1.0000
  C   C21       1.0  0.6493432257843922  0.8432128689331507  0.4525770341255748  1.0000
  C   C22       1.0  0.49975744784692466  0.831000439691451  0.47579701443031275  1.0000
  C   C23       1.0  0.4256520431767754  0.9257643233415677  0.3749083426640495  1.0000
  C   C24       1.0  0.268991927753909  0.9699477616216471  0.35282253255952867  1.0000
  O   O1        1.0  0.0401662481174796  0.19804623327888046  0.4150955361914015  1.0000
  O   O2        1.0  0.9734493675412494  0.2644387347854007  0.20915158760737995  1.0000
  O   O3        1.0  0.0767896294822776  0.9003085818103147  0.1258362858333085  1.0000
  O   O4        1.0  0.9503126673983572  0.795652568412379  0.013099321453246675  1.0000
  O   O5        1.0  0.004848995937798913  0.5400945686679535  0.19300674538525434  1.0000
  O   O6        1.0  0.09235157847074758  0.0249926499098905  0.6727107590578496  1.0000
  O   O7        1.0  0.2243242743723926  0.926899800545492  0.8446920900602135  1.0000
  O   O8        1.0  0.775214043465276  0.9453878159215351  0.7498717644685226  1.0000
  O   O9        1.0  0.8116163120721183  0.08428521880530582  0.552216806145374  1.0000
  O   O10       1.0  0.4785093452197485  0.006164301137552301  0.7102957186216585  1.0000
  O   O11       1.0  0.9598380229791771  0.8019596638917863  0.5849166360677742  1.0000
  O   O12       1.0  0.02656638309385071  0.7355502079528194  0.7908573881566595  1.0000
  O   O13       1.0  0.9231993204111433  0.09969016332412652  0.87414113117579  1.0000
  O   O14       1.0  0.04967458199529062  0.20434193458578426  0.9868881798813119  1.0000
  O   O15       1.0  0.9951451917523211  0.4599023470883239  0.8069907975936628  1.0000
  O   O16       1.0  0.9076517498496414  0.9749982396561166  0.3273078769020684  1.0000
  O   O17       1.0  0.7756934398463642  0.07309026951219981  0.15531746252464265  1.0000
  O   O18       1.0  0.22478830802647556  0.05459856147604821  0.2501273416348155  1.0000
  O   O19       1.0  0.1883893598452104  0.9157260378742365  0.44779040293431643  1.0000
  O   O20       1.0  0.521494696914651  0.9938372320369951  0.28971035610882706  1.0000
