data_image0
_chemical_formula_structural       Ag4H16C28S4N8
_chemical_formula_sum              "Ag4 H16 C28 S4 N8"
_cell_length_a       4.065884665041263
_cell_length_b       8.854495625499464
_cell_length_c       20.540408412025297
_cell_angle_alpha    89.99986154801444
_cell_angle_beta     89.99990392535057
_cell_angle_gamma    97.22770362922363

_space_group_name_H-M_alt    "P 1"
_space_group_IT_number       1

loop_
  _space_group_symop_operation_xyz
  'x, y, z'

loop_
  _atom_site_type_symbol
  _atom_site_label
  _atom_site_symmetry_multiplicity
  _atom_site_fract_x
  _atom_site_fract_y
  _atom_site_fract_z
  _atom_site_occupancy
  Ag  Ag1       1.0  0.1692158100354533  0.3069239693126987  0.15636427847107376  1.0000
  Ag  Ag2       1.0  0.33078587460712333  0.1930755556791297  0.6563645931830423  1.0000
  Ag  Ag3       1.0  0.8307855136089087  0.6930758874906999  0.8436355994279979  1.0000
  Ag  Ag4       1.0  0.6692179073328789  0.8069242968386733  0.34363577156086234  1.0000
  H   H1        1.0  0.9593194528477724  0.17915849247292207  0.0383612054683127  1.0000
  H   H2        1.0  0.5406844260597908  0.3208416754559308  0.5383609960271728  1.0000
  H   H3        1.0  0.040687108560227565  0.8208424941699093  0.9616386724293026  1.0000
  H   H4        1.0  0.4593165764171943  0.6791570429398562  0.46163888187253854  1.0000
  H   H5        1.0  0.9847483218920987  0.2081314720458565  0.8284866634480325  1.0000
  H   H6        1.0  0.5152538802856058  0.29187145283408006  0.3284859284444224  1.0000
  H   H7        1.0  0.015253965254394977  0.7918717999803845  0.17151321444909945  1.0000
  H   H8        1.0  0.4847453062280067  0.7081295466610271  0.6715139494544077  1.0000
  H   H9        1.0  0.3935015522400108  0.44087105601786897  0.8341832159576797  1.0000
  H   H10       1.0  0.1064971437217537  0.05913192569734351  0.33418318020181204  1.0000
  H   H11       1.0  0.606498276608349  0.5591322202924616  0.16581666193985717  1.0000
  H   H12       1.0  0.8934995844962048  0.9408690780833595  0.6658162108521852  1.0000
  H   H13       1.0  0.7715929514327301  0.0766671583388785  0.9297140630494953  1.0000
  H   H14       1.0  0.7284078963136906  0.4233340012528047  0.4297140943123453  1.0000
  H   H15       1.0  0.22840559274612804  0.923331564340998  0.07028581485062801  1.0000
  H   H16       1.0  0.2715965279635526  0.576668128081728  0.5702857835850353  1.0000
  C   C1        1.0  0.27837757753526665  0.3708880066602944  0.9986629610473873  1.0000
  C   C2        1.0  0.22162371379442192  0.1291116710876992  0.4986623274814975  1.0000
  C   C3        1.0  0.7216243884438498  0.6291141269583349  0.0013369168503914002  1.0000
  C   C4        1.0  0.7783745092195389  0.8708859131860719  0.5013370635740273  1.0000
  C   C5        1.0  0.05019299228325019  0.23584196627138704  0.9935351282283237  1.0000
  C   C6        1.0  0.4498108096845996  0.2641577389471763  0.4935347653841761  1.0000
  C   C7        1.0  0.9498107896592459  0.7641578862479221  0.0064647496703429  1.0000
  C   C8        1.0  0.5501929722603762  0.7358421135736395  0.5064646256692527  1.0000
  C   C9        1.0  0.6270493316277451  0.027048183849252894  0.211845231878776  1.0000
  C   C10       1.0  0.8729457227529663  0.4729520609961993  0.7118437804550697  1.0000
  C   C11       1.0  0.3729455806442345  0.9729551010413143  0.7881507512576749  1.0000
  C   C12       1.0  0.12705004195789374  0.5270455275586485  0.28815658429133617  1.0000
  C   C13       1.0  0.0706906652938315  0.254296606706518  0.875514092889404  1.0000
  C   C14       1.0  0.42931006708782604  0.24570611477130203  0.37551424289364393  1.0000
  C   C15       1.0  0.9293088423846713  0.7457055311946873  0.12448627185401762  1.0000
  C   C16       1.0  0.5706897617555668  0.7542971615360157  0.6244866086943688  1.0000
  C   C17       1.0  0.4067802364815024  0.4455970816876444  0.9395467443234723  1.0000
  C   C18       1.0  0.09322197943033932  0.054404100559367  0.43954671788007  1.0000
  C   C19       1.0  0.5932220506649911  0.5544061903385964  0.060453133573659605  1.0000
  C   C20       1.0  0.906776564748519  0.9455946221205095  0.5604531600200532  1.0000
  C   C21       1.0  0.29535286858367027  0.3835525880827361  0.8783333091938134  1.0000
  C   C22       1.0  0.20464783502525558  0.116450115938683  0.3783326944329063  1.0000
  C   C23       1.0  0.7046469602622026  0.6164506882260808  0.12166705554896141  1.0000
  C   C24       1.0  0.7953516726582138  0.8835520219655351  0.6216666966200394  1.0000
  C   C25       1.0  0.949439206802758  0.17929252252150013  0.9335732023897806  1.0000
  C   C26       1.0  0.5505619227212293  0.3207097515800185  0.4335729125124887  1.0000
  C   C27       1.0  0.05056340150863289  0.8207118879108464  0.06642716235193552  1.0000
  C   C28       1.0  0.44943138369399077  0.6792878412604252  0.5664269653890843  1.0000
  S   S1        1.0  0.6179985230456424  0.12820218374103118  0.14502567189670407  1.0000
  S   S2        1.0  0.8820006351781658  0.37180188583818113  0.6450252965873845  1.0000
  S   S3        1.0  0.3820018370891347  0.8717942578350133  0.8549756665400142  1.0000
  S   S4        1.0  0.1179982301655826  0.6281979752478007  0.35497506815733004  1.0000
  N   N1        1.0  0.37254240554690904  0.4272708590400923  0.05777412693461061  1.0000
  N   N2        1.0  0.1274578271422939  0.0727292807846354  0.5577736605480939  1.0000
  N   N3        1.0  0.6274595604297204  0.5727312745770233  0.942226237808406  1.0000
  N   N4        1.0  0.872543175337178  0.9272694376126578  0.4422257305063866  1.0000
  N   N5        1.0  0.6349043859327425  0.9503997064128598  0.2586242477310208  1.0000
  N   N6        1.0  0.8650836581555407  0.5496044495800732  0.7586256743196601  1.0000
  N   N7        1.0  0.36508731462571115  0.04959219437746041  0.7413795249356812  1.0000
  N   N8        1.0  0.13491242772766301  0.4503942773854063  0.24137371673563027  1.0000
