data_image0
_chemical_formula_structural       Zn4H48C40N8O24
_chemical_formula_sum              "Zn4 H48 C40 N8 O24"
_cell_length_a       6.674870475
_cell_length_b       12.765398764
_cell_length_c       14.4202
_cell_angle_alpha    90.0
_cell_angle_beta     90.0
_cell_angle_gamma    90.0

_space_group_name_H-M_alt    "P 1"
_space_group_IT_number       1

loop_
  _space_group_symop_operation_xyz
  'x, y, z'

loop_
  _atom_site_type_symbol
  _atom_site_label
  _atom_site_symmetry_multiplicity
  _atom_site_fract_x
  _atom_site_fract_y
  _atom_site_fract_z
  _atom_site_occupancy
  Zn  Zn1       1.0  0.3409099859724236  0.19193446638812625  0.4573251411214798  1.0000
  Zn  Zn2       1.0  0.8409062050001805  0.8080664138037295  0.042672084991885094  1.0000
  Zn  Zn3       1.0  0.6590914410215587  0.3080663653916105  0.9573272215364523  1.0000
  Zn  Zn4       1.0  0.15908922936815625  0.691933731432627  0.5426748588785201  1.0000
  H   H1        1.0  0.16606464562145357  0.42973980691230923  0.7794864148902219  1.0000
  H   H2        1.0  0.6660638609620335  0.5702579398090819  0.7205135851097778  1.0000
  H   H3        1.0  0.8339367813725287  0.0702578913969631  0.2794878018335396  1.0000
  H   H4        1.0  0.33393606787553404  0.9297406386920459  0.2205128916381156  1.0000
  H   H5        1.0  0.2889569179243168  0.23845083543995577  0.7561316763983825  1.0000
  H   H6        1.0  0.7889531369520668  0.7615469112814283  0.7438676301299549  1.0000
  H   H7        1.0  0.7110460072260805  0.2615468628693094  0.2561323698700448  1.0000
  H   H8        1.0  0.21104229741626304  0.7384508838520745  0.24386832360161745  1.0000
  H   H9        1.0  0.0700103472794353  0.027335612968400404  0.6341701224670969  1.0000
  H   H10       1.0  0.5700095626200151  0.9726652672234551  0.8658298775329027  1.0000
  H   H11       1.0  0.929989581558132  0.47266600217895427  0.134170122467097  1.0000
  H   H12       1.0  0.4299903662175523  0.5273372281157549  0.3658291840612478  1.0000
  H   H13       1.0  0.9421890692193526  0.011328279098322002  0.46599006948586197  1.0000
  H   H14       1.0  0.44218685756595016  0.9886710343582978  0.0340099305141379  1.0000
  H   H15       1.0  0.05781085961821469  0.4886717693137968  0.9659900694858619  1.0000
  H   H16       1.0  0.5578100749587945  0.5113291108780587  0.5340099305141377  1.0000
  H   H17       1.0  0.1019315659454776  0.39269278560549037  0.5427150802346716  1.0000
  H   H18       1.0  0.6019367739117027  0.6073073112187473  0.9572856132369834  1.0000
  H   H19       1.0  0.89806836289209  0.10730726280662853  0.04271577370632679  1.0000
  H   H20       1.0  0.39806914755151  0.892692834017609  0.4572849197653283  1.0000
  H   H21       1.0  0.8959619549771103  0.3063742913405463  0.5450853663610786  1.0000
  H   H22       1.0  0.3959627396365306  0.6936234553808447  0.9549146336389214  1.0000
  H   H23       1.0  0.1040409701732798  0.19362340696872596  0.045086753304388986  1.0000
  H   H24       1.0  0.6040401855138595  0.8063743397526651  0.4549139401672661  1.0000
  H   H25       1.0  0.9385410583566409  0.4860991900620917  0.6649193492461973  1.0000
  H   H26       1.0  0.43854034485965326  0.5138969899240635  0.8350820376971198  1.0000
  H   H27       1.0  0.0614588704809265  0.013898508247180504  0.16491934924619756  1.0000
  H   H28       1.0  0.5614595839779213  0.9860984551065928  0.3350806507538024  1.0000
  H   H29       1.0  0.7760015747721309  0.3793857199085623  0.6885785217958116  1.0000
  H   H30       1.0  0.2760038575879662  0.6206120268128289  0.8114214782041884  1.0000
  H   H31       1.0  0.22399835406543636  0.12061197840071003  0.18857990873912905  1.0000
  H   H32       1.0  0.7239960712496085  0.8793849849530632  0.311420784732526  1.0000
  H   H33       1.0  0.674555411504073  0.16858776132157527  0.6525686190205418  1.0000
  H   H34       1.0  0.17455619616349338  0.8314123355026624  0.8474313809794578  1.0000
  H   H35       1.0  0.32544152102067864  0.3314130704581545  0.152568619020542  1.0000
  H   H36       1.0  0.8254452308304892  0.6685885931013118  0.347431380979458  1.0000
  H   H37       1.0  0.4730428870232117  0.0820483573888637  0.6410493613126036  1.0000
  H   H38       1.0  0.9730406042073765  0.917951739435374  0.8589499452157412  1.0000
  H   H39       1.0  0.5269570418143558  0.4179516910232551  0.1410507482559211  1.0000
  H   H40       1.0  0.02695782647377599  0.5820476224333646  0.35895063868739635  1.0000
  H   H41       1.0  0.8123932921709595  0.03240791828349641  0.7490950194865531  1.0000
  H   H42       1.0  0.3123940768303796  0.9675921785407413  0.7509042870417912  1.0000
  H   H43       1.0  0.18760663666660798  0.4675944802314689  0.2490957129582085  1.0000
  H   H44       1.0  0.6876073501636026  0.5324079666956152  0.25090428704179146  1.0000
  H   H45       1.0  0.6708594596361834  0.9335697396001876  0.6908718325682057  1.0000
  H   H46       1.0  0.1708587461391886  0.0664303572240499  0.8091281674317938  1.0000
  H   H47       1.0  0.3291419673577991  0.5664311890037866  0.19086975215322607  1.0000
  H   H48       1.0  0.8291381863855561  0.4335712579232976  0.30912955437511147  1.0000
  C   C1        1.0  0.1507474944672964  0.26086924988127447  0.6283602169179331  1.0000
  C   C2        1.0  0.6507467098078761  0.7391300635753453  0.8716390896104043  1.0000
  C   C3        1.0  0.8492569288395087  0.23913001516323365  0.1283602169179332  1.0000
  C   C4        1.0  0.3492532190296913  0.7608692982933933  0.3716397830820667  1.0000
  C   C5        1.0  0.0117755093966849  0.34246952099364597  0.5886263713402045  1.0000
  C   C6        1.0  0.5117777210500876  0.6575305758305916  0.9113736286597953  1.0000
  C   C7        1.0  0.9882259175972974  0.157529744050855  0.08862706481185967  1.0000
  C   C8        1.0  0.4882252041003098  0.8424680026705362  0.4113736286597954  1.0000
  C   C9        1.0  0.9321394360090591  0.401103020333352  0.6741154769004607  1.0000
  C   C10       1.0  0.43214171882488717  0.5988947263880392  0.8258852165712012  1.0000
  C   C11       1.0  0.0678604928285154  0.09889546134353823  0.1741154769004609  1.0000
  C   C12       1.0  0.5678612063255031  0.901102285377853  0.3258852165712013  1.0000
  C   C13       1.0  0.068667999134469  0.3654879950289995  0.7559680170871417  1.0000
  C   C14       1.0  0.5686702107878716  0.6345105350600095  0.7440319829128581  1.0000
  C   C15       1.0  0.9313289333902757  0.1345104866478906  0.2559687105587969  1.0000
  C   C16       1.0  0.4313312162061108  0.8654880434411183  0.24403198291285824  1.0000
  C   C17       1.0  0.9467779223086692  0.32684995409361056  0.8385993259455516  1.0000
  C   C18       1.0  0.4467772088116817  0.6731470092601626  0.6614020609977658  1.0000
  C   C19       1.0  0.053222006528898184  0.1731485275832796  0.3385986324738893  1.0000
  C   C20       1.0  0.553221221869478  0.8268507858733402  0.16139998058279295  1.0000
  C   C21       1.0  0.6927640045329895  0.07625535386682711  0.5305883413544874  1.0000
  C   C22       1.0  0.1927617928795868  0.9237455263250212  0.9694116586455122  1.0000
  C   C23       1.0  0.3072374224609931  0.4237454779129025  0.0305883413544876  1.0000
  C   C24       1.0  0.807235139645165  0.5762554022789459  0.4694123521171675  1.0000
  C   C25       1.0  0.6347643772068849  0.0884390704020817  0.6310085851791243  1.0000
  C   C26       1.0  0.13476216555348228  0.9115618097897737  0.8689914148208757  1.0000
  C   C27       1.0  0.3652355516306827  0.411561761377655  0.13100858517912425  1.0000
  C   C28       1.0  0.8652347669712623  0.5884391188142005  0.36899210829253076  1.0000
  C   C29       1.0  0.7594049980422992  0.0053574511274093  0.6813802859877143  1.0000
  C   C30       1.0  0.2594042845453117  0.9946426456968283  0.8186190205406305  1.0000
  C   C31       1.0  0.2405949307952682  0.4946441640199453  0.1813809794593695  1.0000
  C   C32       1.0  0.740594146135848  0.5053582829071459  0.3186190205406304  1.0000
  C   C33       1.0  0.9348750696169859  0.9826140359495952  0.614732805370245  1.0000
  C   C34       1.0  0.4348743561199981  0.017386844242260203  0.8852678881014098  1.0000
  C   C35       1.0  0.06512635737699668  0.5173876760219969  0.11473211189858998  1.0000
  C   C36       1.0  0.5651270708739843  0.4826155542727052  0.3852671946297548  1.0000
  C   C37       1.0  0.9977556905327061  0.8680825569860746  0.608793914092729  1.0000
  C   C38       1.0  0.49775497703571847  0.131918323205781  0.891206085907271  1.0000
  C   C39       1.0  0.0022427401484534995  0.6319183716178999  0.10879391409272897  1.0000
  C   C40       1.0  0.5022404573326185  0.36808407530919146  0.3912046989639535  1.0000
  N   N1        1.0  0.18752273990754983  0.28108326785051224  0.7169560755051947  1.0000
  N   N2        1.0  0.6875264497173603  0.7189144788708789  0.7830439244948053  1.0000
  N   N3        1.0  0.812474192617195  0.21891521382637796  0.21695607550519466  1.0000
  N   N4        1.0  0.31247497727662216  0.781083316262631  0.28304461796646047  1.0000
  N   N5        1.0  0.861856424262676  0.021067105303316708  0.5255474958738446  1.0000
  N   N6        1.0  0.36185421260927336  0.9789337748885389  0.9744525041261554  1.0000
  N   N7        1.0  0.1381450027313065  0.47893372647642013  0.025547495873844594  1.0000
  N   N8        1.0  0.6381427199154786  0.5210679370830533  0.4744525041261553  1.0000
  O   O1        1.0  0.2242125904323231  0.1826640940176461  0.5860209983217997  1.0000
  O   O2        1.0  0.7242043149908495  0.8173375695418275  0.9139776147348825  1.0000
  O   O3        1.0  0.77579333103089  0.3173367377620906  0.0860223852651174  1.0000
  O   O4        1.0  0.27578812306466455  0.6826641424297648  0.4139790016782001  1.0000
  O   O5        1.0  0.9574133346759834  0.2343655733213126  0.8660289038986946  1.0000
  O   O6        1.0  0.4574126211789887  0.7656329567676965  0.6339745634595884  1.0000
  O   O7        1.0  0.042588092317998885  0.2656336917231954  0.36602613001206646  1.0000
  O   O8        1.0  0.542585809502171  0.7343687552038958  0.1339724830446158  1.0000
  O   O9        1.0  0.8284115805258381  0.3968610846914515  0.8751251716342381  1.0000
  O   O10       1.0  0.3284093688724354  0.6031374453975502  0.6248769087807347  1.0000
  O   O11       1.0  0.1715928427809672  0.103139747088278  0.37512378469092056  1.0000
  O   O12       1.0  0.6715905599651322  0.8968619164711884  0.12487621530907937  1.0000
  O   O13       1.0  0.6033765022234403  0.11240071904737192  0.4602127571046139  1.0000
  O   O14       1.0  0.103372792413623  0.8876001611444837  0.03978654942372369  1.0000
  O   O15       1.0  0.3966264229269569  0.3876008960999826  0.9602134505762762  1.0000
  O   O16       1.0  0.8966241401111219  0.612399984091873  0.539787242895386  1.0000
  O   O17       1.0  0.061514302268165  0.8384673442544399  0.5287166613500529  1.0000
  O   O18       1.0  0.5615150157651527  0.16153275256979785  0.9712833386499466  1.0000
  O   O19       1.0  0.9384826302565796  0.6615328009819166  0.028715967878390793  1.0000
  O   O20       1.0  0.43848191675959197  0.3384696459451675  0.47128195170663634  1.0000
  O   O21       1.0  0.9933091623025092  0.8108426686356511  0.6794392588174885  1.0000
  O   O22       1.0  0.4933099469619292  0.1891582115562045  0.8205600477108489  1.0000
  O   O23       1.0  0.006687770222235699  0.6891590433359341  0.17943925881748865  1.0000
  O   O24       1.0  0.5066884837192305  0.31084340359115004  0.320560047710849  1.0000
