data_image0
_chemical_formula_structural       Cu4H40C56O20
_chemical_formula_sum              "Cu4 H40 C56 O20"
_cell_length_a       12.914808402247482
_cell_length_b       14.3460473697066
_cell_length_c       14.328319747647217
_cell_angle_alpha    78.31562670214407
_cell_angle_beta     63.204683827427715
_cell_angle_gamma    63.25482606831691

_space_group_name_H-M_alt    "P 1"
_space_group_IT_number       1

loop_
  _space_group_symop_operation_xyz
  'x, y, z'

loop_
  _atom_site_type_symbol
  _atom_site_label
  _atom_site_symmetry_multiplicity
  _atom_site_fract_x
  _atom_site_fract_y
  _atom_site_fract_z
  _atom_site_occupancy
  Cu  Cu1       1.0  0.9469864691734032  0.4047433225191099  0.5224176938965428  1.0000
  Cu  Cu2       1.0  0.8740294061642895  0.5954125303974038  0.4774930711091799  1.0000
  Cu  Cu3       1.0  0.10210969445426336  0.022151267820774496  0.09485540146528851  1.0000
  Cu  Cu4       1.0  0.21913677598007536  0.9776769501695098  0.90529654302717  1.0000
  H   H1        1.0  0.878873464875099  0.7316414432517817  0.7039289072597371  1.0000
  H   H2        1.0  0.314383890807285  0.26841738323455644  0.2956490784207233  1.0000
  H   H3        1.0  0.3602010030513937  0.20447223387385094  0.7682085434731434  1.0000
  H   H4        1.0  0.33284239000713695  0.7952990356407383  0.23211258070317337  1.0000
  H   H5        1.0  0.8952896191654811  0.7809140832440916  0.8518082344169359  1.0000
  H   H6        1.0  0.5281360808996212  0.21912096511499612  0.14798274022648888  1.0000
  H   H7        1.0  0.42641038794545244  0.35187752134692823  0.7187212809142312  1.0000
  H   H8        1.0  0.49715798701659236  0.6479698036565438  0.28140801490770423  1.0000
  H   H9        1.0  0.08275077188228866  0.4549214358060921  0.9146682172696146  1.0000
  H   H10       1.0  0.4525997853649456  0.5451185458444385  0.08516038417685232  1.0000
  H   H11       1.0  0.2876304936368115  0.41512192908761847  0.04523223522041062  1.0000
  H   H12       1.0  0.7479450117302019  0.5849888452725979  0.9548162227467005  1.0000
  H   H13       1.0  0.05911153630965766  0.40700209954980693  0.7705654029042251  1.0000
  H   H14       1.0  0.2368225482003509  0.5930533744030129  0.2290714313827351  1.0000
  H   H15       1.0  0.2162470938084198  0.27114126179449727  0.09346341606471499  1.0000
  H   H16       1.0  0.5804958147244432  0.7287501767117847  0.9067863172863398  1.0000
  H   H17       1.0  0.9810024103872619  0.5216529542933517  0.07847526094710122  1.0000
  H   H18       1.0  0.5814878823266767  0.4782668673492623  0.9214318922856606  1.0000
  H   H19       1.0  0.25277628814998115  0.5784656085688908  0.9782839965041035  1.0000
  H   H20       1.0  0.8095406383401951  0.42145379022619517  0.021868186180675868  1.0000
  H   H21       1.0  0.9998867322928714  0.575967244090741  0.222093967695301  1.0000
  H   H22       1.0  0.7983190768509019  0.42396962860136966  0.7778143822620437  1.0000
  H   H23       1.0  0.32618984821790054  0.7217844794203997  0.923850893677191  1.0000
  H   H24       1.0  0.971764346672259  0.2781714954462445  0.07636143579780708  1.0000
  H   H25       1.0  0.0336618927965944  0.736540209916022  0.2055636372757874  1.0000
  H   H26       1.0  0.9761652902870919  0.2634763114350989  0.7944336624618914  1.0000
  H   H27       1.0  0.5207188751787013  0.7051020380655402  0.7629367468467124  1.0000
  H   H28       1.0  0.9887773638595474  0.2950523486429475  0.23716528085651584  1.0000
  H   H29       1.0  0.04061296471984836  0.7862664289088315  0.8970723042325657  1.0000
  H   H30       1.0  0.724167762055188  0.21362090564339548  0.10283167827790156  1.0000
  H   H31       1.0  0.5772550622642142  0.39708298605843595  0.7131685594590281  1.0000
  H   H32       1.0  0.6874822817241365  0.6029968736383111  0.28685572407184173  1.0000
  H   H33       1.0  0.8943820603016164  0.2478608628575074  0.6319011706090834  1.0000
  H   H34       1.0  0.774204756094761  0.7523549118328744  0.36804392378416406  1.0000
  H   H35       1.0  0.8928080591231122  0.13165210379241898  0.2517615879665555  1.0000
  H   H36       1.0  0.2760812609809377  0.8684609693498615  0.7482370951134245  1.0000
  H   H37       1.0  0.9765666695830361  0.2075503847543132  0.5179972189322585  1.0000
  H   H38       1.0  0.7022135372987607  0.7927213423919567  0.4819324510107494  1.0000
  H   H39       1.0  0.9344166865841214  0.018044861411795  0.2923132815317049  1.0000
  H   H40       1.0  0.2447024897409734  0.9820875011381032  0.7077611242765727  1.0000
  C   C1        1.0  0.955041175464096  0.5398128685056491  0.6397176419740164  1.0000
  C   C2        1.0  0.13454845419409608  0.4602873736733314  0.3599406064255604  1.0000
  C   C3        1.0  0.24495307669061342  0.14018646373136787  0.9604549264867472  1.0000
  C   C4        1.0  0.3453365302031912  0.8595560065704431  0.039904593557608316  1.0000
  C   C5        1.0  0.9687568726037836  0.5664992327432258  0.7276704868082219  1.0000
  C   C6        1.0  0.2629309973015594  0.4335772356704125  0.27196397532591027  1.0000
  C   C7        1.0  0.2850265382293314  0.22816468680903765  0.933717605851527  1.0000
  C   C8        1.0  0.4467055200717522  0.771624217084046  0.06657444428412157  1.0000
  C   C9        1.0  0.923509162984608  0.6718844517618051  0.7506636794241784  1.0000
  C   C10       1.0  0.3460502989125586  0.32818308100971194  0.2489931973264917  1.0000
  C   C11       1.0  0.34514390218225083  0.25110579430019436  0.8281076991986822  1.0000
  C   C12       1.0  0.42428436401615927  0.7487186455275747  0.17215609560742715  1.0000
  C   C13       1.0  0.9342618900198966  0.698813509416034  0.8326389160554228  1.0000
  C   C14       1.0  0.46581450196360635  0.3012335824758523  0.16714668232638993  1.0000
  C   C15       1.0  0.3830768452964432  0.3328555374335522  0.801004639920265  1.0000
  C   C16       1.0  0.5169873719042214  0.6670194428941443  0.1991527062203317  1.0000
  C   C17       1.0  0.9918994430701956  0.6216238860200818  0.8930213931085191  1.0000
  C   C18       1.0  0.5067499971387048  0.3783924879990721  0.10683380424780617  1.0000
  C   C19       1.0  0.3635435758984401  0.3932774687518118  0.8782543380731767  1.0000
  C   C20       1.0  0.635102319136763  0.6066924306337782  0.12182051209509136  1.0000
  C   C21       1.0  0.03626899314325274  0.5160994595454652  0.8698264913159904  1.0000
  C   C22       1.0  0.4224254286751189  0.48393024550556857  0.12996145713826474  1.0000
  C   C23       1.0  0.3022899042169483  0.37025593669059736  0.9840068929162913  1.0000
  C   C24       1.0  0.6564998012785848  0.6297477854679059  0.016096554923350954  1.0000
  C   C25       1.0  0.02425652721131398  0.488761472479041  0.7885105270622929  1.0000
  C   C26       1.0  0.3016490342427003  0.51129480232175  0.21116249548884258  1.0000
  C   C27       1.0  0.26296443825132326  0.288996528646642  0.011496636593889751  1.0000
  C   C28       1.0  0.5632542887054584  0.7108964475459415  0.9887173355150337  1.0000
  C   C29       1.0  0.00458305357750531  0.6519937821128748  0.9785351307929134  1.0000
  C   C30       1.0  0.635402813650998  0.3479962953047249  0.02140429665593772  1.0000
  C   C31       1.0  0.40671754353821354  0.4786227943519137  0.8477375274105439  1.0000
  C   C32       1.0  0.7331399463473359  0.5213919758387462  0.15231241293516012  1.0000
  C   C33       1.0  0.9966500147951077  0.5919940303980198  0.07017557675380456  1.0000
  C   C34       1.0  0.6591791969455157  0.40796113546390705  0.9297488331272843  1.0000
  C   C35       1.0  0.3387848231581286  0.5701645108394403  0.9078242040000788  1.0000
  C   C36       1.0  0.8168029659575351  0.42981675544405107  0.09229248304825428  1.0000
  C   C37       1.0  0.006531236095163636  0.6224009302750276  0.1512368760234679  1.0000
  C   C38       1.0  0.7805513740924892  0.37757422907667143  0.8487072486955469  1.0000
  C   C39       1.0  0.37917157296336484  0.6510291545871213  0.8773678592946086  1.0000
  C   C40       1.0  0.9075753684272028  0.34897695515324767  0.12278339576459985  1.0000
  C   C41       1.0  0.025287657958408323  0.7127578119455008  0.14259177763091205  1.0000
  C   C42       1.0  0.8810036692132783  0.2872462488598018  0.8573929834987339  1.0000
  C   C43       1.0  0.48834418556230474  0.6423238887787334  0.7868560906892769  1.0000
  C   C44       1.0  0.917508399024463  0.35775793425071367  0.21326369015381635  1.0000
  C   C45       1.0  0.0377861276953907  0.7714605620235845  0.05020091619084609  1.0000
  C   C46       1.0  0.8597366202582248  0.2285141536394448  0.949769710209381  1.0000
  C   C47       1.0  0.5595560186605721  0.5500379895795433  0.7280758306533527  1.0000
  C   C48       1.0  0.837609358590072  0.45006210534795327  0.2720183146589151  1.0000
  C   C49       1.0  0.027020334913856837  0.7411665566895779  0.9692625083448192  1.0000
  C   C50       1.0  0.7376939232417566  0.2588105540982397  0.03069256052580028  1.0000
  C   C51       1.0  0.5184809023029329  0.4692013714878699  0.758373019011479  1.0000
  C   C52       1.0  0.7460331165550899  0.5308542885397857  0.24169240385477758  1.0000
  C   C53       1.0  0.07362868494616469  0.8607089297381237  0.03440894531599537  1.0000
  C   C54       1.0  0.9689732384826469  0.1391867548052659  0.9655690808247783  1.0000
  C   C55       1.0  0.6849875167207383  0.5343913985403432  0.6389157833999948  1.0000
  C   C56       1.0  0.8581073370231708  0.4657709989949979  0.36119980476613733  1.0000
  O   O1        1.0  0.9785139924476949  0.23278524569215617  0.5751802068335083  1.0000
  O   O2        1.0  0.7865812027671594  0.7674043642419406  0.42474501833132905  1.0000
  O   O3        1.0  0.9617913732432014  0.0750390223227839  0.2668474600371696  1.0000
  O   O4        1.0  0.3035916953622291  0.9250455585591837  0.7331922510403645  1.0000
  O   O5        1.0  0.9691538064292258  0.44651626571307906  0.6348626645436541  1.0000
  O   O6        1.0  0.05047673246932029  0.5535600149503496  0.36481259648769543  1.0000
  O   O7        1.0  0.16553358587895417  0.1350379598731877  0.0538243107128267  1.0000
  O   O8        1.0  0.3541481160350344  0.8647265657900219  0.9465379413840014  1.0000
  O   O9        1.0  0.9277384457642767  0.6141605566660999  0.5767357049874562  1.0000
  O   O10       1.0  0.11865432262154466  0.38594523455176954  0.4229615007710947  1.0000
  O   O11       1.0  0.29230257067450766  0.0767349568274582  0.8862557599845076  1.0000
  O   O12       1.0  0.2549902386420156  0.9229342359285866  0.1141503174113794  1.0000
  O   O13       1.0  0.12935716411659112  0.8852158557197498  0.9395300446882829  1.0000
  O   O14       1.0  0.9542762292152672  0.1146702747840038  0.06045578429004924  1.0000
  O   O15       1.0  0.7649879363996132  0.4396368581040945  0.6144899449635446  1.0000
  O   O16       1.0  0.8187873637083453  0.5605386115317188  0.38566438994101315  1.0000
  O   O17       1.0  0.05092555418112695  0.9036683753844914  0.11530692297169767  1.0000
  O   O18       1.0  0.07010844855693676  0.09614929411682739  0.8846666855999105  1.0000
  O   O19       1.0  0.704923122527866  0.6153800664763834  0.5966223411242738  1.0000
  O   O20       1.0  0.9168391529668508  0.3847942476472852  0.4034255910680998  1.0000
