data_image0
_chemical_formula_structural       Zn8H40C88O58
_chemical_formula_sum              "Zn8 H40 C88 O58"
_cell_length_a       23.698157743367325
_cell_length_b       23.699564244669975
_cell_length_c       23.698550623388787
_cell_angle_alpha    65.83573323264335
_cell_angle_beta     72.8290133793047
_cell_angle_gamma    107.1801539495035

_space_group_name_H-M_alt    "P 1"
_space_group_IT_number       1

loop_
  _space_group_symop_operation_xyz
  'x, y, z'

loop_
  _atom_site_type_symbol
  _atom_site_label
  _atom_site_symmetry_multiplicity
  _atom_site_fract_x
  _atom_site_fract_y
  _atom_site_fract_z
  _atom_site_occupancy
  Zn  Zn1       1.0  0.059719393763799644  0.9593571171585469  0.4839417726674641  1.0000
  Zn  Zn2       1.0  0.05971402197329918  0.10035436647223862  0.45636031158658596  1.0000
  Zn  Zn3       1.0  0.9402662121371816  0.9839338124218815  0.45937019540900076  1.0000
  Zn  Zn4       1.0  0.9402904821474678  0.9563474975130505  0.600361274909325  1.0000
  Zn  Zn5       1.0  0.9432897874717838  0.5436468808816672  0.016059367929464753  1.0000
  Zn  Zn6       1.0  0.05670872949074373  0.5160608536310037  0.04366502976936468  1.0000
  Zn  Zn7       1.0  0.9433034266508004  0.39963532427294285  0.040641815686242845  1.0000
  Zn  Zn8       1.0  0.05669264775452375  0.5406331751683384  0.8996475877387697  1.0000
  H   H1        1.0  0.921487144468884  0.652134471602196  0.11447525890915228  1.0000
  H   H2        1.0  0.07850738637095121  0.6145022674388515  0.15213668193531046  1.0000
  H   H3        1.0  0.9279704960542433  0.8958487043985175  0.3419741483744898  1.0000
  H   H4        1.0  0.07194573746877342  0.8419368091973994  0.39590834426213223  1.0000
  H   H5        1.0  0.07851683639650273  0.46400962249209954  0.7693665236991408  1.0000
  H   H6        1.0  0.9214954065727595  0.2693588340069795  0.964008921187535  1.0000
  H   H7        1.0  0.07197730175584371  0.2300214258371653  0.5321521821498437  1.0000
  H   H8        1.0  0.9280080608858583  0.032142996109222055  0.7300219778551309  1.0000
  H   H9        1.0  0.7378438919773274  0.46784018496756385  0.10412337613841059  1.0000
  H   H10       1.0  0.7378386559358604  0.2699598262369066  0.15802652021984906  1.0000
  H   H11       1.0  0.26663630488231854  0.2306375940152137  0.34786913141895337  1.0000
  H   H12       1.0  0.2666201610217698  0.03598665120204466  0.3854935768103545  1.0000
  H   H13       1.0  0.26218576406558475  0.6041294044522731  0.9678624575761959  1.0000
  H   H14       1.0  0.2621350409865568  0.658011657186698  0.7700005921329239  1.0000
  H   H15       1.0  0.7333731838508795  0.8478645527983064  0.7306427961447708  1.0000
  H   H16       1.0  0.7333692395636358  0.8855074394338586  0.535984465510211  1.0000
  H   H17       1.0  0.8372266894156651  0.7353789031833456  0.8092893411595912  1.0000
  H   H18       1.0  0.04464370102508024  0.6465231788508774  0.6906999836819027  1.0000
  H   H19       1.0  0.955355622241882  0.7646389762800541  0.8981394860784917  1.0000
  H   H20       1.0  0.1627803305994247  0.8534722636472907  0.6018615229733015  1.0000
  H   H21       1.0  0.8372357836950499  0.10185096509127335  0.3534531795488008  1.0000
  H   H22       1.0  0.044647516139875124  0.3981258043104603  0.26466178757253545  1.0000
  H   H23       1.0  0.9553511927970674  0.1907225659564134  0.14650178583035964  1.0000
  H   H24       1.0  0.1627912100510542  0.3093055635890068  0.23538559306935267  1.0000
  H   H25       1.0  0.08322198540432858  0.7044250646976451  0.24012825034509436  1.0000
  H   H26       1.0  0.9167612655053216  0.7401211814421628  0.2044044219508338  1.0000
  H   H27       1.0  0.07428799533448664  0.7509252533339607  0.30895197429423854  1.0000
  H   H28       1.0  0.9256334118938125  0.8088961140115388  0.25096355035483264  1.0000
  H   H29       1.0  0.9168359438118898  0.1766333115346583  0.8788171049179213  1.0000
  H   H30       1.0  0.08329554123746157  0.3787791384944584  0.6766793527455378  1.0000
  H   H31       1.0  0.9255998163987654  0.11676661307176774  0.8233707460763853  1.0000
  H   H32       1.0  0.07425214886089283  0.32338795086818106  0.6167577100604121  1.0000
  H   H33       1.0  0.5598622950779131  0.17659725564239898  0.2490976986577849  1.0000
  H   H34       1.0  0.5598710376407112  0.3832190702840281  0.1911288533639065  1.0000
  H   H35       1.0  0.4445407652556598  0.1211989153821733  0.29550227345863084  1.0000
  H   H36       1.0  0.44455399085138236  0.32335418787708653  0.2598056389923967  1.0000
  H   H37       1.0  0.44010638876257957  0.7490240269520145  0.6766266055875079  1.0000
  H   H38       1.0  0.44015948900109675  0.6910791613327234  0.8832300444831703  1.0000
  H   H39       1.0  0.5554479633879124  0.7955556653203858  0.6211889863845599  1.0000
  H   H40       1.0  0.5554589847607119  0.7598557930108428  0.8233395616099061  1.0000
  C   C1        1.0  0.18459747608271468  0.09230141306537122  0.40770851456679225  1.0000
  C   C2        1.0  1.1761607616677398e-05  0.13732097330620263  0.36267927636157543  1.0000
  C   C3        1.0  0.9999689952939618  0.9098649390643703  0.40989803540950476  1.0000
  C   C4        1.0  0.8154006816466295  0.9077075688009093  0.5923118107239987  1.0000
  C   C5        1.0  0.9999973613945696  0.862679092452744  0.6373282803913228  1.0000
  C   C6        1.0  3.108349630974657e-06  0.09011420494600492  0.5901344838760069  1.0000
  C   C7        1.0  0.9999993713869341  0.5923020841854552  0.09229342311670076  1.0000
  C   C8        1.0  0.9999973451259264  0.36267239502402776  0.1373311003811607  1.0000
  C   C9        1.0  0.8197589812404757  0.4098594345073821  0.09011506167388457  1.0000
  C   C10       1.0  0.9999982769306894  0.4077032673852228  0.9076964434122136  1.0000
  C   C11       1.0  0.9999930122434505  0.6373154862375119  0.8626810557126348  1.0000
  C   C12       1.0  0.18023912757947605  0.5901085617998661  0.9098943431535034  1.0000
  C   C13       1.0  1.6132463400194634e-06  0.8044616439374367  0.6955443053469069  1.0000
  C   C14       1.0  4.666093324879712e-06  0.6955472359828577  0.8044574814142111  1.0000
  C   C15       1.0  0.9573727986551289  0.7779118994603638  0.7660222327744749  1.0000
  C   C16       1.0  0.043929705292803906  0.7233793431920006  0.7339780960945036  1.0000
  C   C17       1.0  0.9560781111174707  0.7220979459001599  0.8205452333719734  1.0000
  C   C18       1.0  0.042633918880078184  0.7766153323988264  0.6794640119947816  1.0000
  C   C19       1.0  5.5521011573860755e-06  0.19553569710876667  0.30445522854991225  1.0000
  C   C20       1.0  6.5512891537883575e-06  0.3044519712339451  0.19555190659063731  1.0000
  C   C21       1.0  0.9573788272392677  0.17945935216742026  0.27660677222772984  1.0000
  C   C22       1.0  0.0439313539382197  0.3205393247705288  0.2221072803864957  1.0000
  C   C23       1.0  0.9560785021792954  0.23397561908498002  0.22337983591741306  1.0000
  C   C24       1.0  0.04264677235159543  0.2660124242987081  0.2779149697402871  1.0000
  C   C25       1.0  0.9999992830243369  0.629822466201162  0.12982230916141893  1.0000
  C   C26       1.0  0.9557081860844078  0.6577199729274811  0.13628837345692088  1.0000
  C   C27       1.0  0.9557185805783844  0.6926479825152897  0.171189941269958  1.0000
  C   C28       1.0  0.9999911094013  0.7001908501185242  0.2001849382459185  1.0000
  C   C29       1.0  0.044260828542526554  0.6711943175895528  0.1926564281251473  1.0000
  C   C30       1.0  0.04427976843923883  0.636289513048098  0.15773296228316985  1.0000
  C   C31       1.0  0.999982539018667  0.7356338921964395  0.23564193970563735  1.0000
  C   C32       1.0  0.9999674672352726  0.7665742570649317  0.2666068134499325  1.0000
  C   C33       1.0  0.9999663609774173  0.8020096358343454  0.3020486341291003  1.0000
  C   C34       1.0  0.9590370494313513  0.8351802480046044  0.30537545492688895  1.0000
  C   C35       1.0  0.9591093767259904  0.8701961925082814  0.34018642462244486  1.0000
  C   C36       1.0  0.9999670369114283  0.8723545381712087  0.37237755948260093  1.0000
  C   C37       1.0  0.0408180725350675  0.8401579452879633  0.3702413643693133  1.0000
  C   C38       1.0  0.04089185508797022  0.8053455652005327  0.3352263455481221  1.0000
  C   C39       1.0  0.9999997958631963  0.3701763586399591  0.8701756642834939  1.0000
  C   C40       1.0  0.0442915904990001  0.407987932503552  0.7979933406432593  1.0000
  C   C41       1.0  0.044284698416724555  0.37306927587714256  0.763084008980542  1.0000
  C   C42       1.0  1.4600304467511294e-05  0.2998085056297413  0.7998137962623418  1.0000
  C   C43       1.0  0.9557448221607884  0.2630756346349656  0.8730754163784484  1.0000
  C   C44       1.0  0.9557172950394345  0.29798769070549025  0.9079917773078492  1.0000
  C   C45       1.0  4.363597732051042e-06  0.2643539101228357  0.7643700155624346  1.0000
  C   C46       1.0  0.9999833396723757  0.23340344908203994  0.7334149210861654  1.0000
  C   C47       1.0  0.9999812308954928  0.1979680135393453  0.6979728176232172  1.0000
  C   C48       1.0  0.040908473765355766  0.23556525784240992  0.6238810186402546  1.0000
  C   C49       1.0  0.040848779591179614  0.20067717117934344  0.5889397102460094  1.0000
  C   C50       1.0  2.843067818478671e-06  0.12762821321980064  0.627649530530249  1.0000
  C   C51       1.0  0.9591351680334627  0.08893114822662072  0.7006782331380776  1.0000
  C   C52       1.0  0.9590428809467894  0.12386863528536209  0.7355648812746907  1.0000
  C   C53       1.0  0.7447305971708217  0.3723398812090722  0.12763899138938933  1.0000
  C   C54       1.0  0.7103949981041708  0.41105054665637664  0.12978781950480567  1.0000
  C   C55       1.0  0.6405624505320018  0.37610830748639057  0.16480701620719174  1.0000
  C   C56       1.0  0.6040614144941826  0.30201962190295006  0.19796362005132548  1.0000
  C   C57       1.0  0.6405635241480353  0.2644180772730707  0.19463440766606518  1.0000
  C   C58       1.0  0.7103933784834878  0.2993044080330237  0.1598157454488812  1.0000
  C   C59       1.0  0.5331881514472201  0.2665792253563454  0.2333924438889526  1.0000
  C   C60       1.0  0.47128226905658716  0.2356306044091952  0.26433898074231615  1.0000
  C   C61       1.0  0.40037936542132263  0.2001846034347708  0.299786930951278  1.0000
  C   C62       1.0  0.36385308268804545  0.2369185280183856  0.3073239165630923  1.0000
  C   C63       1.0  0.29402093550972097  0.20200992326939374  0.3422682714322037  1.0000
  C   C64       1.0  0.2596463174223728  0.1298209680579916  0.37017762978192087  1.0000
  C   C65       1.0  0.29401690564530714  0.09201034259309188  0.363689972930672  1.0000
  C   C66       1.0  0.3638466308378198  0.1269215176057443  0.32877779953562236  1.0000
  C   C67       1.0  0.25526658678681685  0.6276282015955772  0.872375296647313  1.0000
  C   C68       1.0  0.2896205512506852  0.6297846443561639  0.9110697060194112  1.0000
  C   C69       1.0  0.35944610392766646  0.6647918614809143  0.8761243490895583  1.0000
  C   C70       1.0  0.39593907362390707  0.6979572275404851  0.8020263201432417  1.0000
  C   C71       1.0  0.3594174881124842  0.6946122070330177  0.7644458590007233  1.0000
  C   C72       1.0  0.2895930158852876  0.6598021884553306  0.7993372765550505  1.0000
  C   C73       1.0  0.4668126215561869  0.7333859376737737  0.7665822810908552  1.0000
  C   C74       1.0  0.5287183508567848  0.7643434152794839  0.7356275840662931  1.0000
  C   C75       1.0  0.5996209031162036  0.7997974647145015  0.7001815636668598  1.0000
  C   C76       1.0  0.6361561775841764  0.8073348342775974  0.7369194350754709  1.0000
  C   C77       1.0  0.7059801139434752  0.8422680732451795  0.7020102391971574  1.0000
  C   C78       1.0  0.7403513321022428  0.8701734362207034  0.6298267707662576  1.0000
  C   C79       1.0  0.7059785988886489  0.8636983261772361  0.5920062029243168  1.0000
  C   C80       1.0  0.6361503055258522  0.8287912055424372  0.6269192709178242  1.0000
  C   C81       1.0  0.9172045054768034  0.8124510841783209  0.7853476149998572  1.0000
  C   C82       1.0  0.09778723329327456  0.7025306212002674  0.714657031067141  1.0000
  C   C83       1.0  0.9022164937089626  0.6875609076675959  0.8952501853762272  1.0000
  C   C84       1.0  0.08279729384538102  0.7974523408124912  0.6047587514509092  1.0000
  C   C85       1.0  0.9172115330080856  0.1047566562159972  0.297434698982272  1.0000
  C   C86       1.0  0.09779299889612503  0.39524632995767933  0.18758255871412635  1.0000
  C   C87       1.0  0.9022142743546342  0.21465447428341394  0.20252853096845053  1.0000
  C   C88       1.0  0.08281121073674305  0.28533272242613356  0.31246794246064274  1.0000
  O   O1        1.0  1.3508391842863046e-06  0.9999950589554558  0.5000022641677121  1.0000
  O   O2        1.0  0.15541845714030697  0.02771943887258742  0.4277576296505572  1.0000
  O   O3        1.0  0.05115248701092405  0.15383883110158786  0.3718684217827786  1.0000
  O   O4        1.0  0.9634045805032014  0.9401575747404536  0.40860965978141206  1.0000
  O   O5        1.0  0.15541757094440806  0.1276954651357798  0.4168400500471919  1.0000
  O   O6        1.0  0.036546165103473326  0.9085713429295482  0.4401969598330381  1.0000
  O   O7        1.0  0.948863213666634  0.07698322004913642  0.39729185870998424  1.0000
  O   O8        1.0  0.8445695334728498  0.927762601023496  0.5277218368456217  1.0000
  O   O9        1.0  0.9488587803354919  0.8718658453030702  0.6538397931584753  1.0000
  O   O10       1.0  0.8445817902264564  0.9168300422719258  0.6277060603306382  1.0000
  O   O11       1.0  0.051144908234725325  0.8972967361548854  0.5769922409352476  1.0000
  O   O12       1.0  0.036568773904711784  0.12797555128488372  0.5232700956241702  1.0000
  O   O13       1.0  0.9634428109346659  0.02325457613121534  0.6279893570863209  1.0000
  O   O14       1.0  1.7762896787746128e-06  0.49999933285806725  3.912927333284993e-06  1.0000
  O   O15       1.0  0.9554825742894761  0.5831803807970887  0.07223027427140497  1.0000
  O   O16       1.0  0.025714022416558117  0.42301128056194415  0.1281374926780714  1.0000
  O   O17       1.0  0.8487678872008716  0.37201530166452584  0.09141298078554157  1.0000
  O   O18       1.0  0.04453043905896683  0.5722484629399035  0.08317891646191819  1.0000
  O   O19       1.0  0.8487636075558597  0.4767361443490756  0.05980597025163088  1.0000
  O   O20       1.0  0.9742946117679664  0.3461502316008874  0.1027021739405003  1.0000
  O   O21       1.0  0.9554706227408616  0.3722981923962082  0.9722797597211186  1.0000
  O   O22       1.0  0.02570124585565012  0.6026919494950319  0.8461634420507663  1.0000
  O   O23       1.0  0.044518953905985294  0.4722792286460162  0.8722992546626358  1.0000
  O   O24       1.0  0.9742836119534602  0.6281239767522352  0.923017137482006  1.0000
  O   O25       1.0  0.15123113051090792  0.5598123900246962  0.9767556981092939  1.0000
  O   O26       1.0  0.15122483070963702  0.5913939500500122  0.8720384293181455  1.0000
  O   O27       1.0  0.8499512767158138  0.777732429224578  0.8107988773765414  1.0000
  O   O28       1.0  0.9435750564478834  0.8658899473489752  0.783794537237775  1.0000
  O   O29       1.0  0.08849123950412262  0.6607409585397123  0.6892045692983616  1.0000
  O   O30       1.0  0.14966928170012006  0.727322352032715  0.7162188295021539  1.0000
  O   O31       1.0  0.9114989184125477  0.7222920274680225  0.9277644829184337  1.0000
  O   O32       1.0  0.8503388712569518  0.6341234120316914  0.9223222491530692  1.0000
  O   O33       1.0  0.15005224677560117  0.8392483540045248  0.5722272722472896  1.0000
  O   O34       1.0  0.05642724864949114  0.7726515403971916  0.5776791714390016  1.0000
  O   O35       1.0  0.8499581403042382  0.07222105654841475  0.3392246609814719  1.0000
  O   O36       1.0  0.9435776078211476  0.07767544121087865  0.2726364043396501  1.0000
  O   O37       1.0  0.08850846078949097  0.42776384204258733  0.22231199623322345  1.0000
  O   O38       1.0  0.14967170321560982  0.4223304863186428  0.13414411502969872  1.0000
  O   O39       1.0  0.9114959336707572  0.1892090922904046  0.16073079500058182  1.0000
  O   O40       1.0  0.8503337856357261  0.21620822331979633  0.22733084447139618  1.0000
  O   O41       1.0  0.15006937712681165  0.31080552538114853  0.2777373151776389  1.0000
  O   O42       1.0  0.056438969319600546  0.2837632915953919  0.36590902528506325  1.0000
  O   O43       1.0  0.08776167858258783  0.6768283486927801  0.21943164710930316  1.0000
  O   O44       1.0  0.9122202937875271  0.7194101258734947  0.17682114897377965  1.0000
  O   O45       1.0  0.08125259666931556  0.7746344818350508  0.3335481564959793  1.0000
  O   O46       1.0  0.9186810781868286  0.8335008833313324  0.2746507399573089  1.0000
  O   O47       1.0  0.9122614399072261  0.1928065690806521  0.910942044391888  1.0000
  O   O48       1.0  0.08779814964080393  0.4109210253300759  0.6928257503833635  1.0000
  O   O49       1.0  0.9186654598549423  0.08519756861361559  0.8066365256092427  1.0000
  O   O50       1.0  0.08126458754547622  0.3066318224889031  0.5852096998544097  1.0000
  O   O51       1.0  0.6081609068613502  0.19334358532323387  0.22535048646278716  1.0000
  O   O52       1.0  0.6081755285223096  0.4147815737273036  0.16650783783227038  1.0000
  O   O53       1.0  0.3962436043107758  0.08906333949138207  0.3231236973716918  1.0000
  O   O54       1.0  0.39625778334633577  0.3071897157396892  0.2805400922341902  1.0000
  O   O55       1.0  0.3918049479235109  0.7253168802200424  0.6933716012738885  1.0000
  O   O56       1.0  0.3918575863157228  0.6664888226833199  0.9147880168942564  1.0000
  O   O57       1.0  0.6037410850677958  0.8231532919030189  0.5890589331570766  1.0000
  O   O58       1.0  0.6037497406793263  0.780559145221311  0.8071887783476014  1.0000
