data_image0
_chemical_formula_structural       Cu2H64C54I2N8
_chemical_formula_sum              "Cu2 H64 C54 I2 N8"
_cell_length_a       9.952042657755593
_cell_length_b       12.123738604040604
_cell_length_c       12.962
_cell_angle_alpha    103.46290702954154
_cell_angle_beta     111.43059100447398
_cell_angle_gamma    109.07486491643341

_space_group_name_H-M_alt    "P 1"
_space_group_IT_number       1

loop_
  _space_group_symop_operation_xyz
  'x, y, z'

loop_
  _atom_site_type_symbol
  _atom_site_label
  _atom_site_symmetry_multiplicity
  _atom_site_fract_x
  _atom_site_fract_y
  _atom_site_fract_z
  _atom_site_occupancy
  Cu  Cu1       1.0  0.12872251267166493  0.11588194666840218  0.5595703603640843  1.0000
  Cu  Cu2       1.0  0.8712779591390999  0.8841179558045481  0.44042928786351615  1.0000
  H   H1        1.0  0.06713258092337074  0.285564729070181  0.436377333591949  1.0000
  H   H2        1.0  0.932865731985075  0.7144351734027694  0.5636232519728566  1.0000
  H   H3        1.0  0.19699817169568953  0.4164719370200629  0.3456257337123603  1.0000
  H   H4        1.0  0.8030006927033498  0.5835289178654859  0.6543752139583604  1.0000
  H   H5        1.0  0.5485637885113448  0.2713023502865681  0.4243530239252991  1.0000
  H   H6        1.0  0.4514350758876944  0.728698504598988  0.5756471522595348  1.0000
  H   H7        1.0  0.40529353999631473  0.14782015101761908  0.5134679615378275  1.0000
  H   H8        1.0  0.5947069553444777  0.8521816562805425  0.48653287957020547  1.0000
  H   H9        1.0  0.5923229216636372  0.4548379740511236  0.3610653325721955  1.0000
  H   H10       1.0  0.4076753912448083  0.5451619284218195  0.6389360244784896  1.0000
  H   H11       1.0  0.4508947248247496  0.5173952912894464  0.3329470395869762  1.0000
  H   H12       1.0  0.5491035880836961  0.4826046111835041  0.6670543174637162  1.0000
  H   H13       1.0  0.3886438833335363  0.259656248933247  0.1654905350876419  1.0000
  H   H14       1.0  0.6113560605166626  0.740344605952302  0.8345107154003556  1.0000
  H   H15       1.0  0.2544861628164483  0.3284480590942707  0.13976728064459112  1.0000
  H   H16       1.0  0.7455116221314384  0.6715527957912852  0.8602333642088524  1.0000
  H   H17       1.0  0.4613984595896028  0.5175810117477296  0.1444165707245944  1.0000
  H   H18       1.0  0.5386031152023493  0.482420795550432  0.8555845732007157  1.0000
  H   H19       1.0  0.5964283692727294  0.4489196821138108  0.16728453757895786  1.0000
  H   H20       1.0  0.4035704715962751  0.551079267946534  0.8327144457254507  1.0000
  H   H21       1.0  0.19253908518797402  0.40656398867375987  0.9451188399543611  1.0000
  H   H22       1.0  0.8074603071716312  0.5934359137991834  0.054880505455962174  1.0000
  H   H23       1.0  0.06376807956697661  0.278760693408735  0.7252494898090447  1.0000
  H   H24       1.0  0.936232392243781  0.7212392090642081  0.27475015841855577  1.0000
  H   H25       1.0  0.41863735794824203  0.15888909033134976  0.772564101817636  1.0000
  H   H26       1.0  0.5813641933136752  0.8411108121416007  0.22743662071312803  1.0000
  H   H27       1.0  0.5642443548641723  0.2832675098630943  0.9955180263748887  1.0000
  H   H28       1.0  0.4357561169465853  0.716732392609849  0.004483164824471032  1.0000
  H   H29       1.0  0.49909348298280076  0.0219388243926844  0.6260828722551254  1.0000
  H   H30       1.0  0.5009064608673982  0.9780620304928718  0.3739183782328723  1.0000
  H   H31       1.0  0.6864820745982882  0.07984646328565499  0.6380004297905159  1.0000
  H   H32       1.0  0.31351734129135184  0.9201553440125068  0.3619993370143534  1.0000
  H   H33       1.0  0.8238006542788696  0.0613191808497575  0.19078510392898101  1.0000
  H   H34       1.0  0.17619926604129418  0.938679769210587  0.8092126392209451  1.0000
  H   H35       1.0  0.009920377235104609  0.0915097080658924  0.1892121395923212  1.0000
  H   H36       1.0  0.9900795430850594  0.9084892419944451  0.8107856035575978  1.0000
  H   H37       1.0  0.8557033405761986  0.9334662626021384  0.12672058202012695  1.0000
  H   H38       1.0  0.1442982106857187  0.06653363987081208  0.8732785975388708  1.0000
  H   H39       1.0  0.5604865216006233  0.9447485423397453  0.9739072213963595  1.0000
  H   H40       1.0  0.4395144781706932  0.05525040772059949  0.0260915960567232  1.0000
  H   H41       1.0  0.4473542217791362  0.961972924329835  0.7769911611763902  1.0000
  H   H42       1.0  0.5526457220710627  0.038027930555721  0.2230085463398481  1.0000
  H   H43       1.0  0.930404461446557  0.1515802759884153  0.8289655742190832  1.0000
  H   H44       1.0  0.06959711334539512  0.8484215313097463  0.17103402673446766  1.0000
  H   H45       1.0  0.0418910019495513  0.1340644557407131  0.0255465820235941  1.0000
  H   H46       1.0  0.9581105493123659  0.8659354467322373  0.9744533690212905  1.0000
  H   H47       1.0  0.6862623944746105  0.2713928294841992  0.7638960929411596  1.0000
  H   H48       1.0  0.31373483898267557  0.7286070729887512  0.23610418980636888  1.0000
  H   H49       1.0  0.7676547899336085  0.3894624679099222  0.9017940605331631  1.0000
  H   H50       1.0  0.2323440744654306  0.6105383869756338  0.09820611565167778  1.0000
  H   H51       1.0  0.2300070126780868  0.6227245062768887  0.6466429660222488  1.0000
  H   H52       1.0  0.7699923561514838  0.3772734913708504  0.3533567294794082  1.0000
  H   H53       1.0  0.3465081509476917  0.7304061804025891  0.8011882044899252  1.0000
  H   H54       1.0  0.653492297333031  0.2695918172451428  0.19881179382900876  1.0000
  H   H55       1.0  0.19070063603985696  0.7506297096908128  0.6992466148196428  1.0000
  H   H56       1.0  0.8092987327897064  0.2493682879569192  0.30075230919613466  1.0000
  H   H57       1.0  0.1846846873968246  0.7361539904833306  0.9251651131382203  1.0000
  H   H58       1.0  0.8153152329233393  0.2638449595770139  0.07483571595523124  1.0000
  H   H59       1.0  0.9803498063716063  0.6040324564600467  0.9650975509230477  1.0000
  H   H60       1.0  0.019650113948550523  0.3959664936002909  0.03490327817040401  1.0000
  H   H61       1.0  0.7822488043383158  0.29821943537387335  0.6207505940567231  1.0000
  H   H62       1.0  0.217751115981848  0.7017795146864714  0.3792502350367286  1.0000
  H   H63       1.0  0.9888819788107955  0.43045811614776847  0.5823367297628366  1.0000
  H   H64       1.0  0.011117941509368732  0.5695408339125763  0.4176633278447284  1.0000
  C   C1        1.0  0.1747175864641335  0.2856866378838205  0.43218480297021244  1.0000
  C   C2        1.0  0.8252780160513993  0.714312312176517  0.5678140433682444  1.0000
  C   C3        1.0  0.24720704063576449  0.357690935766854  0.3811777438964725  1.0000
  C   C4        1.0  0.7527880339192095  0.6423089667060893  0.6188211617306152  1.0000
  C   C5        1.0  0.3845883485932546  0.3550337045944829  0.3766713262682728  1.0000
  C   C6        1.0  0.6154088848640384  0.6449661978784604  0.623328184993376  1.0000
  C   C7        1.0  0.4417756627505299  0.2774482688368635  0.4248169003260642  1.0000
  C   C8        1.0  0.5582242810996688  0.7225525860486923  0.5751835786760537  1.0000
  C   C9        1.0  0.3628355316282779  0.20842502241244176  0.4747051702581829  1.0000
  C   C10       1.0  0.6371633327707685  0.7915758324731144  0.5252942344407785  1.0000
  C   C11       1.0  0.46220550148166956  0.42846090691175925  0.31865776413385305  1.0000
  C   C12       1.0  0.5377933629173698  0.5715399479737968  0.6813431835368676  1.0000
  C   C13       1.0  0.3836894500779665  0.3512554837841648  0.1823199154006261  1.0000
  C   C14       1.0  0.61630670392816  0.6487444186887855  0.8176792930437387  1.0000
  C   C15       1.0  0.46754204499364976  0.42656084376162073  0.1250087678721243  1.0000
  C   C16       1.0  0.5324573473659554  0.5734390587113294  0.8749905775381989  1.0000
  C   C17       1.0  0.3898057640171687  0.3548498889614109  0.9911793352024532  1.0000
  C   C18       1.0  0.6101968666959011  0.6451500135115323  0.00882091865970841  1.0000
  C   C19       1.0  0.24721733726622114  0.3522764700984239  0.9117096510717246  1.0000
  C   C20       1.0  0.7527853169768832  0.6477253371997378  0.08829025269910319  1.0000
  C   C21       1.0  0.17449078458717085  0.2814826886383557  0.7883766900751183  1.0000
  C   C22       1.0  0.8255096872235869  0.7185172138345947  0.21162450112424844  1.0000
  C   C23       1.0  0.37284010909663573  0.21547763776420228  0.8147464835316214  1.0000
  C   C24       1.0  0.6271603627141219  0.7845222647087482  0.18525470766774532  1.0000
  C   C25       1.0  0.45247152723892736  0.2842742099882543  0.9391286856546089  1.0000
  C   C26       1.0  0.5475311034741495  0.7157256924846891  0.06087233969343234  1.0000
  C   C27       1.0  0.8785028233503028  0.0313819953869725  0.13668915134445575  1.0000
  C   C28       1.0  0.12150033532333275  0.9686169546733723  0.8633102717431882  1.0000
  C   C29       1.0  0.8102711293973145  0.0395422666001934  0.015967656817913733  1.0000
  C   C30       1.0  0.18973150131575514  0.9604576358727569  0.9840318255583682  1.0000
  C   C31       1.0  0.642798825640732  0.9910491287962628  0.9429099416307737  1.0000
  C   C32       1.0  0.3572049080535393  0.008952678501898998  0.05709180792909051  1.0000
  C   C33       1.0  0.5783296301232427  0.0008009790021361999  0.8320152982608917  1.0000
  C   C34       1.0  0.42167247262926827  0.99919987588342  0.16798578637578035  1.0000
  C   C35       1.0  0.68127332373966  0.0598467509599772  0.7896752260238742  1.0000
  C   C36       1.0  0.3187276995616982  0.9401541039255789  0.21032478430964124  1.0000
  C   C37       1.0  0.8488479142248623  0.106689260189647  0.8610087378262463  1.0000
  C   C38       1.0  0.15115418852765572  0.893311594695909  0.1389915753245461  1.0000
  C   C39       1.0  0.9110998960937877  0.096467968095773  0.9716668965889356  1.0000
  C   C40       1.0  0.0889022066587302  0.903532886789783  0.028331873590097714  1.0000
  C   C41       1.0  0.2238618698027466  0.6784025472578392  0.7233095036145301  1.0000
  C   C42       1.0  0.7761380505174101  0.32159640280249846  0.2766905539930349  1.0000
  C   C43       1.0  0.10394003907872226  0.5944092794831163  0.7502936951542339  1.0000
  C   C44       1.0  0.8960604092020007  0.4055887181646226  0.2497055316788206  1.0000
  C   C45       1.0  0.09873943643434302  0.6391221941244609  0.858263612520048  1.0000
  C   C46       1.0  0.901260483885821  0.3608767559358838  0.14173644508752398  1.0000
  C   C47       1.0  0.9821734130837784  0.5644806657337894  0.8811230271230316  1.0000
  C   C48       1.0  0.017826507236385705  0.43551828432654816  0.11887780197042022  1.0000
  C   C49       1.0  0.8638576238551252  0.4403193962763439  0.7957743836502686  1.0000
  C   C50       1.0  0.13614174497443798  0.559678601371388  0.20422531185138842  1.0000
  C   C51       1.0  0.8699705261017245  0.3945273981517445  0.6880499144813969  1.0000
  C   C52       1.0  0.1300304736695921  0.6054715519086001  0.3119512174293392  1.0000
  C   C53       1.0  0.9878677413272073  0.47012324397420696  0.6667720579457638  1.0000
  C   C54       1.0  0.012133786404675106  0.5298747536735249  0.3332282431904546  1.0000
  I   I1        1.0  0.17363983058449162  0.9099692911850852  0.5264572929770923  1.0000
  I   I2        1.0  0.8263606412262662  0.0900306112878653  0.4735423552505083  1.0000
  N   N1        1.0  0.23022876702113143  0.2111365411033859  0.4787490437392279  1.0000
  N   N2        1.0  0.7697712003591023  0.7888662186073816  0.5212495421997971  1.0000
  N   N3        1.0  0.23466673320854173  0.21260611375534919  0.7389978800674442  1.0000
  N   N4        1.0  0.7653353695439764  0.7873947411302069  0.26100474754099423  1.0000
  N   N5        1.0  0.6204559754700298  0.079072151836499  0.6828453049629034  1.0000
  N   N6        1.0  0.3795434168895682  0.9209277506364514  0.3171532689615404  1.0000
  N   N7        1.0  0.7414981513013642  0.36771031638813406  0.8140021482293562  1.0000
  N   N8        1.0  0.2585001616070811  0.6322895860848161  0.1859968943636829  1.0000
