data_image0
_chemical_formula_structural       In8H72C112O48
_chemical_formula_sum              "In8 H72 C112 O48"
_cell_length_a       13.96864678078868
_cell_length_b       13.968671545587666
_cell_length_c       25.041142724399194
_cell_angle_alpha    105.03503919823673
_cell_angle_beta     105.03493798060802
_cell_angle_gamma    94.02160338177998

_space_group_name_H-M_alt    "P 1"
_space_group_IT_number       1

loop_
  _space_group_symop_operation_xyz
  'x, y, z'

loop_
  _atom_site_type_symbol
  _atom_site_label
  _atom_site_symmetry_multiplicity
  _atom_site_fract_x
  _atom_site_fract_y
  _atom_site_fract_z
  _atom_site_occupancy
  In  In1       1.0  0.6250015058886903  0.3750016272468315  0.2500012648744416  1.0000
  In  In2       1.0  0.625000638181035  0.875000539855172  0.24999925815072999  1.0000
  In  In3       1.0  0.6250010019843018  0.37499821655389104  0.7500003877979751  1.0000
  In  In4       1.0  0.12499773417380303  0.37499781014457784  0.7500002063209124  1.0000
  In  In5       1.0  0.6382066499846033  0.1381977607663244  0.2763248402088436  1.0000
  In  In6       1.0  0.8618012330116399  0.3617844551521684  0.7236719900215788  1.0000
  In  In7       1.0  0.6117849759031699  0.6118009204593875  0.22367082819393153  1.0000
  In  In8       1.0  0.388202867115069  0.3882152722427536  0.7763271053048157  1.0000
  H   H1        1.0  0.6351507062901689  0.25528369981483917  0.06673913575252746  1.0000
  H   H2        1.0  0.7109943032190246  0.005918689509186761  0.13171009892456445  1.0000
  H   H3        1.0  0.6455802439708973  0.15798863222153164  0.9689383494892211  1.0000
  H   H4        1.0  0.7190774791226603  0.9079015451351892  0.03456661636180052  1.0000
  H   H5        1.0  0.527114422082434  0.8754929558795228  0.9508583025589205  1.0000
  H   H6        1.0  0.7819545808258895  0.861842360795322  0.8837089658909606  1.0000
  H   H7        1.0  0.4698555095430095  0.6930732461497515  0.9006777801201977  1.0000
  H   H8        1.0  0.7230047733016676  0.6782109628435793  0.8330398895489709  1.0000
  H   H9        1.0  0.4791132877763147  0.726849546595119  0.19034800604930519  1.0000
  H   H10       1.0  0.4314954699020603  0.8114600251461253  0.0667359991772187  1.0000
  H   H11       1.0  0.42048117315194833  0.1257492118721756  0.13176712384703385  1.0000
  H   H12       1.0  0.32324762656876505  0.8109509083528437  0.968956288523735  1.0000
  H   H13       1.0  0.3154190380984829  0.12665788294639665  0.034608431241352385  1.0000
  H   H14       1.0  0.4237046244489734  0.07553128177239211  0.9508237210992121  1.0000
  H   H15       1.0  0.10170274461147931  0.02196495325922845  0.8837204593953345  1.0000
  H   H16       1.0  0.4307037050829761  0.20786929159527281  0.9006900739562836  1.0000
  H   H17       1.0  0.10987614115475698  0.15481472329270243  0.832988278883839  1.0000
  H   H18       1.0  0.7112559692977314  0.4634407179620297  0.1903836690029905  1.0000
  H   H19       1.0  0.7447181900665569  0.3648524322946118  0.9332602598545421  1.0000
  H   H20       1.0  0.9940835618552482  0.28900602485321497  0.8682909102221855  1.0000
  H   H21       1.0  0.842010596787418  0.3544243141736627  0.031061860188429977  1.0000
  H   H22       1.0  0.09209739401899225  0.28092365438937605  0.965434409189072  1.0000
  H   H23       1.0  0.1245065040274653  0.4728872334973602  0.0491436476472131  1.0000
  H   H24       1.0  0.1381566905306499  0.2180433641708248  0.1162898653490814  1.0000
  H   H25       1.0  0.3069266017695965  0.5301448440892854  0.09932152711868265  1.0000
  H   H26       1.0  0.3217888760478615  0.276995123425138  0.1669583660862557  1.0000
  H   H27       1.0  0.2731518526079526  0.5208866298677678  0.8096527661143399  1.0000
  H   H28       1.0  0.1885390642576538  0.568502715378685  0.9332633600418418  1.0000
  H   H29       1.0  0.874248970288221  0.5795202501428706  0.8682317059887198  1.0000
  H   H30       1.0  0.1890461300715387  0.6767513537132712  0.03104277345823189  1.0000
  H   H31       1.0  0.8733408232690536  0.6845831074008117  0.9653901480562297  1.0000
  H   H32       1.0  0.9244659965012687  0.5762956482812597  0.04917496551786372  1.0000
  H   H33       1.0  0.9780348328559753  0.8982958978348277  0.11627919366619462  1.0000
  H   H34       1.0  0.7921293070753067  0.569296574255837  0.09930947611771761  1.0000
  H   H35       1.0  0.8451858960067681  0.8901238585336556  0.167012058897363  1.0000
  H   H36       1.0  0.536559755121708  0.28874467896613254  0.8096171090900697  1.0000
  H   H37       1.0  0.6148506258955493  0.4947164941027538  0.43326098693852805  1.0000
  H   H38       1.0  0.5390052600122033  0.7440809318426814  0.36829050836094973  1.0000
  H   H39       1.0  0.604422369547663  0.5920107126564815  0.5310622620225658  1.0000
  H   H40       1.0  0.5309252983339902  0.8420979968088815  0.46543416624203354  1.0000
  H   H41       1.0  0.7228849393935377  0.8745069310980396  0.5491442585648656  1.0000
  H   H42       1.0  0.4680427889830766  0.8881563634533906  0.6162908599881902  1.0000
  H   H43       1.0  0.7801441162728366  0.05692725397762641  0.5993220812746003  1.0000
  H   H44       1.0  0.5269934105874441  0.0717879107617137  0.6669600422050763  1.0000
  H   H45       1.0  0.770886067580534  0.023155115666014577  0.30965160100512895  1.0000
  H   H46       1.0  0.8185027441710275  0.938541766037005  0.43326469767741577  1.0000
  H   H47       1.0  0.829517349652285  0.6242529599593355  0.3682331709223732  1.0000
  H   H48       1.0  0.9267536675206572  0.9390485184603888  0.5310437091530318  1.0000
  H   H49       1.0  0.93458305234374  0.6233433461205208  0.4653901909349969  1.0000
  H   H50       1.0  0.8262960270172854  0.6744695996622525  0.5491764137938304  1.0000
  H   H51       1.0  0.14829728747138662  0.7280359691464184  0.616278476115923  1.0000
  H   H52       1.0  0.8192985666312468  0.542134039026017  0.599310912772836  1.0000
  H   H53       1.0  0.14012554090506776  0.595186560403548  0.6670108050593698  1.0000
  H   H54       1.0  0.5387452141814606  0.2865613525764772  0.3096177901186081  1.0000
  H   H55       1.0  0.5052861924065013  0.38514748514912606  0.566739867062779  1.0000
  H   H56       1.0  0.2559176544180132  0.460990449497544  0.6317083258227072  1.0000
  H   H57       1.0  0.40799259342549016  0.39557497580304374  0.4689386297257769  1.0000
  H   H58       1.0  0.15790348521721845  0.4690730509812014  0.5345646590649693  1.0000
  H   H59       1.0  0.12549345051836974  0.27711196624191103  0.4508567761767637  1.0000
  H   H60       1.0  0.11184522606748704  0.5319542990118151  0.383711035093647  1.0000
  H   H61       1.0  0.9430731994167019  0.2198551998128409  0.40067781411401177  1.0000
  H   H62       1.0  0.9282134520592891  0.47300753969576437  0.3330427335071775  1.0000
  H   H63       1.0  0.9768481893083489  0.22911133979664575  0.6903475328628589  1.0000
  H   H64       1.0  0.06145665699744999  0.1814941713515881  0.5667350441251529  1.0000
  H   H65       1.0  0.3757494813465101  0.17048552097593025  0.6317684368985113  1.0000
  H   H66       1.0  0.06095077725203174  0.07324461420815721  0.4689561264668995  1.0000
  H   H67       1.0  0.3766581634436719  0.0654203445301534  0.5346097993869847  1.0000
  H   H68       1.0  0.3255294641282731  0.17370244784153502  0.4508245477747082  1.0000
  H   H69       1.0  0.2719654919759479  0.8517024801707579  0.38372064337664114  1.0000
  H   H70       1.0  0.45786622785036013  0.18070297714725578  0.4006908499745876  1.0000
  H   H71       1.0  0.4048149044451607  0.8598763760761726  0.3329889895097367  1.0000
  H   H72       1.0  0.7134392463675922  0.4612558411779162  0.6903828773710146  1.0000
  C   C1        1.0  0.6663845451698407  0.19220865981669272  0.1629551947798333  1.0000
  C   C2        1.0  0.6729683953167935  0.1365057045838823  0.10502619337696469  1.0000
  C   C3        1.0  0.6542465784792313  0.17955609398934053  0.059260980320971185  1.0000
  C   C4        1.0  0.6964221872652985  0.03852568428864331  0.09578252227149159  1.0000
  C   C5        1.0  0.6589896853176072  0.12590309531992705  0.0050556495012159764  1.0000
  C   C6        1.0  0.7007482259172948  0.9839229664690518  0.04176093392501902  1.0000
  C   C7        1.0  0.6817434593251759  0.02813697740270273  0.996566494560021  1.0000
  C   C8        1.0  0.6578779903372193  0.8780291124069207  0.9196801740827566  1.0000
  C   C9        1.0  0.5701667747887881  0.8319050363730085  0.9253304874888855  1.0000
  C   C10       1.0  0.7139911569315415  0.8235967038238668  0.8870519282255245  1.0000
  C   C11       1.0  0.5385071433332485  0.7302641161514958  0.897440611429424  1.0000
  C   C12       1.0  0.6813022813948847  0.7222275850549381  0.8592420141584398  1.0000
  C   C13       1.0  0.5932534647612114  0.674603753120998  0.8639715630451548  1.0000
  C   C14       1.0  0.5581690039239929  0.5667678482243089  0.8318080359179945  1.0000
  C   C15       1.0  0.4965480163520439  0.9707791278219489  0.16298753290299575  1.0000
  C   C16       1.0  0.43196115830176757  0.9685163886663305  0.10506266192479069  1.0000
  C   C17       1.0  0.404914819641732  0.8797169050260081  0.05927573880950378  1.0000
  C   C18       1.0  0.39919348257669895  0.05723010902931946  0.0958409382065426  1.0000
  C   C19       1.0  0.345931008075148  0.879166451409489  0.0050714746322241665  1.0000
  C   C20       1.0  0.3409096678783925  0.05781064982820533  0.04179474627315468  1.0000
  C   C21       1.0  0.31473324270970676  0.9684748399191393  0.9965658507222557  1.0000
  C   C22       1.0  0.2617563615900663  0.04179704603907913  0.9196729878552931  1.0000
  C   C23       1.0  0.35510776043928166  0.09357052890677417  0.9252926999329674  1.0000
  C   C24       1.0  0.17298319462268072  0.06360151435880831  0.8870652711324637  1.0000
  C   C25       1.0  0.35884449418342257  0.1673479563844467  0.897429615670994  1.0000
  C   C26       1.0  0.17781626315527185  0.13710414922184827  0.8592202006306523  1.0000
  C   C27       1.0  0.27058682835526315  0.189490149518285  0.8639597983053092  1.0000
  C   C28       1.0  0.27353183068781556  0.26512904549630906  0.8317802776675549  1.0000
  C   C29       1.0  0.8077948054151206  0.3336169627974214  0.8370447703717402  1.0000
  C   C30       1.0  0.8634974734731385  0.3270359536344715  0.8949749329401016  1.0000
  C   C31       1.0  0.820445544159007  0.3457580598066484  0.9407381504027938  1.0000
  C   C32       1.0  0.9614760065540295  0.30358066193841887  0.9042175197223585  1.0000
  C   C33       1.0  0.8740986399440942  0.3410142908843314  0.9949452881124047  1.0000
  C   C34       1.0  0.016079210782400665  0.29925355693325906  0.9582404230240015  1.0000
  C   C35       1.0  0.9718631140393654  0.31825854243542273  0.003433489446408031  1.0000
  C   C36       1.0  0.12197010972475651  0.34212360460658425  0.08032069959018881  1.0000
  C   C37       1.0  0.16809440131517306  0.4298358712629309  0.07467069161489086  1.0000
  C   C38       1.0  0.1764039866794533  0.286010560375324  0.1129474791739398  1.0000
  C   C39       1.0  0.2697353260066606  0.461492956095249  0.10255939487998225  1.0000
  C   C40       1.0  0.27777276074999696  0.31869800105422286  0.14075775674717764  1.0000
  C   C41       1.0  0.32539587811038473  0.40674555272479296  0.13602805567837345  1.0000
  C   C42       1.0  0.4332314361249985  0.4418293422629774  0.16819009442123442  1.0000
  C   C43       1.0  0.029218842877376888  0.5034501746525208  0.8370109338675462  1.0000
  C   C44       1.0  0.031483107181834634  0.5680378626184394  0.8949364511475579  1.0000
  C   C45       1.0  0.12028037542744828  0.5950836482320057  0.9407233782303877  1.0000
  C   C46       1.0  0.9427682381834898  0.6008092750972623  0.9041587073764886  1.0000
  C   C47       1.0  0.1208340046361369  0.6540675967863978  0.9949275255953224  1.0000
  C   C48       1.0  0.9421890682083642  0.6590914465725747  0.9582038304299801  1.0000
  C   C49       1.0  0.03152307965720521  0.6852663267333555  0.0034317891811284033  1.0000
  C   C50       1.0  0.9582020091978977  0.7382411618772549  0.08032534424186367  1.0000
  C   C51       1.0  0.9064282292798823  0.6448917270599847  0.07470641362976949  1.0000
  C   C52       1.0  0.9363961745679815  0.8270169370470412  0.11293450568628315  1.0000
  C   C53       1.0  0.8326504332489435  0.6411556590087455  0.1025688765988662  1.0000
  C   C54       1.0  0.8628955002310408  0.8221825863518147  0.1407788759025195  1.0000
  C   C55       1.0  0.8105094305113878  0.72941194419694  0.13603987038607096  1.0000
  C   C56       1.0  0.7348707963099484  0.7264683746585731  0.1682196100639429  1.0000
  C   C57       1.0  0.5836157316364634  0.5577932406896763  0.33704535781712497  1.0000
  C   C58       1.0  0.5770333381928124  0.6134948906576554  0.39497432787861436  1.0000
  C   C59       1.0  0.5957547537064938  0.5704440999282524  0.44073914237008427  1.0000
  C   C60       1.0  0.5535782975912369  0.7114749509862365  0.4042182491166599  1.0000
  C   C61       1.0  0.5910111265666913  0.6240964859985992  0.49494470765172593  1.0000
  C   C62       1.0  0.5492533771824027  0.7660780707886586  0.45824091161112074  1.0000
  C   C63       1.0  0.5682571771886629  0.7218630601410753  0.5034343827550245  1.0000
  C   C64       1.0  0.5921226347442426  0.8719715784281663  0.5803213944864467  1.0000
  C   C65       1.0  0.679834801646976  0.9180945804890471  0.5746705417788149  1.0000
  C   C66       1.0  0.5360097951776908  0.9264029330548526  0.6129492261084692  1.0000
  C   C67       1.0  0.7114910256034434  0.0197339135629304  0.6025600627466332  1.0000
  C   C68       1.0  0.568696006519346  0.027770655934617104  0.6407580269912146  1.0000
  C   C69       1.0  0.6567444663962548  0.0753976297209534  0.6360295957438424  1.0000
  C   C70       1.0  0.6918285705910066  0.18323188928853537  0.6681912784803288  1.0000
  C   C71       1.0  0.7534493058247307  0.7792195615421347  0.3370122964448612  1.0000
  C   C72       1.0  0.8180384084495033  0.7814847298677136  0.3949378941928714  1.0000
  C   C73       1.0  0.8450831418140012  0.8702826082122711  0.440723223050064  1.0000
  C   C74       1.0  0.8508061996320677  0.6927697235976709  0.4041590360525689  1.0000
  C   C75       1.0  0.9040691830026617  0.8708346471078838  0.4949289564191517  1.0000
  C   C76       1.0  0.9090917982372915  0.6921905992553831  0.4582040009694807  1.0000
  C   C77       1.0  0.935268809636213  0.7815256220434179  0.5034326464398049  1.0000
  C   C78       1.0  0.988241346854892  0.7082037466397606  0.58032495109461  1.0000
  C   C79       1.0  0.8948945559563554  0.6564315577093395  0.5747068409700162  1.0000
  C   C80       1.0  0.07701879951248705  0.6863978714902147  0.6129341409975383  1.0000
  C   C81       1.0  0.891157301910802  0.5826535176326005  0.602570159693869  1.0000
  C   C82       1.0  0.07218541890455288  0.6128971344744019  0.6407788833125494  1.0000
  C   C83       1.0  0.9794139570409612  0.5605117870823549  0.6360389611393131  1.0000
  C   C84       1.0  0.9764698613812898  0.48487306113647577  0.6682193883017149  1.0000
  C   C85       1.0  0.4422060541013692  0.4163826534057408  0.6629555833124954  1.0000
  C   C86       1.0  0.38650554136930987  0.4229637925674865  0.605026077136209  1.0000
  C   C87       1.0  0.4295571883370996  0.4042414963464935  0.5592618280825832  1.0000
  C   C88       1.0  0.28852500166900086  0.4464170776438295  0.595781497531334  1.0000
  C   C89       1.0  0.3759038992783558  0.40898359871339107  0.5050545105996491  1.0000
  C   C90       1.0  0.2339229171068808  0.4507431084039838  0.5417583950974674  1.0000
  C   C91       1.0  0.2781402546090773  0.43173678302432716  0.49656496063310834  1.0000
  C   C92       1.0  0.1280289231957709  0.40787458120967574  0.4196795601311507  1.0000
  C   C93       1.0  0.08190553827823513  0.32016248458547386  0.425330474631096  1.0000
  C   C94       1.0  0.07359894079252881  0.4639904159014991  0.38705365574914913  1.0000
  C   C95       1.0  0.9802657088802961  0.2885062038826617  0.3974404386421496  1.0000
  C   C96       1.0  0.9722310983565734  0.4313048120821534  0.35924412430460967  1.0000
  C   C97       1.0  0.9246035810957309  0.3432547012428201  0.3639724422115407  1.0000
  C   C98       1.0  0.8167674434359923  0.3081696877161376  0.3318090827088227  1.0000
  C   C99       1.0  0.2207788108768796  0.2465510390949461  0.6629878688824533  1.0000
  C   C100      1.0  0.2185160775718414  0.18196350114449453  0.6050631330607956  1.0000
  C   C101      1.0  0.12971626745296308  0.15491425242127846  0.5592751900392443  1.0000
  C   C102      1.0  0.30722780550793516  0.1491940880778913  0.5958390441235935  1.0000
  C   C103      1.0  0.1291675732227232  0.09593054384781408  0.505072230392166  1.0000
  C   C104      1.0  0.30781104817990007  0.09091175404991256  0.5417964999070719  1.0000
  C   C105      1.0  0.2184745412414343  0.0647319203425667  0.4965670560554472  1.0000
  C   C106      1.0  0.2917968554106736  0.011757024210986353  0.4196745753102036  1.0000
  C   C107      1.0  0.3435687623490793  0.10510651907827663  0.42529388112116356  1.0000
  C   C108      1.0  0.3136036299625218  0.9229808283594778  0.38706556581843893  1.0000
  C   C109      1.0  0.41734800030674524  0.10884421365159373  0.3974313477928177  1.0000
  C   C110      1.0  0.3871064745778412  0.9278161529443736  0.35922110957226755  1.0000
  C   C111      1.0  0.43948971644353213  0.02058643194011721  0.3639610807569298  1.0000
  C   C112      1.0  0.5151293912478182  0.02353122667662426  0.3317808721552851  1.0000
  O   O1        1.0  0.6333101208151104  0.2765247462940862  0.16797727503561075  1.0000
  O   O2        1.0  0.6938236832895229  0.15236674989375115  0.20364402870600162  1.0000
  O   O3        1.0  0.6898080047837424  0.9799767150494104  0.9426858672063502  1.0000
  O   O4        1.0  0.4803436650798575  0.5239994119988582  0.8394177393027534  1.0000
  O   O5        1.0  0.60796839508145  0.5256416209285533  0.7985068360419518  1.0000
  O   O6        1.0  0.5537116737296159  0.2587854333985362  0.2733291505389204  1.0000
  O   O7        1.0  0.5346379783844952  0.8914807981033518  0.1680013388841886  1.0000
  O   O8        1.0  0.5098566595335471  0.051365606905839856  0.20366895910388647  1.0000
  O   O9        1.0  0.2528741310603163  0.9627933182293021  0.9426644633802113  1.0000
  O   O10       1.0  0.3589165925500878  0.3156451694618029  0.8394410968579749  1.0000
  O   O11       1.0  0.1904240056002136  0.2727555588865941  0.7984079361268499  1.0000
  O   O12       1.0  0.7196152331052943  0.014566061882923937  0.2733591238173716  1.0000
  O   O13       1.0  0.72347792871507  0.36669063114131717  0.8320230183000062  1.0000
  O   O14       1.0  0.8476337484897202  0.3061782542257277  0.7963547628352217  1.0000
  O   O15       1.0  0.02002223604331728  0.3101933340912097  0.05731455575600109  1.0000
  O   O16       1.0  0.4760003539064853  0.5196569115484024  0.1605832202815591  1.0000
  O   O17       1.0  0.4743590397816391  0.3920274856152304  0.201490948686228  1.0000
  O   O18       1.0  0.7412156439028196  0.4462857763968772  0.7266699023885579  1.0000
  O   O19       1.0  0.108518977813759  0.46536233275951155  0.8319985660387489  1.0000
  O   O20       1.0  0.9486336263755463  0.49014109054763116  0.7963298373033965  1.0000
  O   O21       1.0  0.037207346178497906  0.7471254149244542  0.05733487594290661  1.0000
  O   O22       1.0  0.6843552699008058  0.6410845097341422  0.16055904382578487  1.0000
  O   O23       1.0  0.7272446239394695  0.809577275342086  0.2015927941048686  1.0000
  O   O24       1.0  0.9854339885896408  0.28038267108967574  0.7266400190691159  1.0000
  O   O25       1.0  0.6166906613402006  0.4734769229204758  0.3320237855214643  1.0000
  O   O26       1.0  0.5561771435472025  0.5976336753156417  0.29635558602493006  1.0000
  O   O27       1.0  0.5601929473254827  0.7700229218293159  0.5573152871276363  1.0000
  O   O28       1.0  0.7696550835019522  0.22599984170406628  0.660584255633168  1.0000
  O   O29       1.0  0.6420281537831299  0.22435773527701744  0.7014922048581411  1.0000
  O   O30       1.0  0.6962869680521564  0.4912169497081037  0.22667051120407677  1.0000
  O   O31       1.0  0.7153618113694263  0.8585198990900762  0.3319986936026566  1.0000
  O   O32       1.0  0.7401401539500299  0.6986355922456511  0.296329632011826  1.0000
  O   O33       1.0  0.9971267469286431  0.7872086390469092  0.5573350967141623  1.0000
  O   O34       1.0  0.8910842968712487  0.4343561345230996  0.6605577719822407  1.0000
  O   O35       1.0  0.059577839828421  0.4772457035833429  0.7015928124337024  1.0000
  O   O36       1.0  0.5303832154028214  0.7354346546682818  0.2266403581522951  1.0000
  O   O37       1.0  0.5265241794544977  0.3833089450285032  0.667977085251657  1.0000
  O   O38       1.0  0.4023661003287698  0.44382182456103436  0.7036445749287665  1.0000
  O   O39       1.0  0.2299803346103532  0.4398022211787237  0.4426855162163079  1.0000
  O   O40       1.0  0.773998332556701  0.23034422755306846  0.3394149956352877  1.0000
  O   O41       1.0  0.7756433330069327  0.3579739335005029  0.29850870508105487  1.0000
  O   O42       1.0  0.5087852156136704  0.3037138398062851  0.7733304512956778  1.0000
  O   O43       1.0  0.14147845293784655  0.2846393023285713  0.6680007603420535  1.0000
  O   O44       1.0  0.30136332381291453  0.2598586669818843  0.703669602161213  1.0000
  O   O45       1.0  0.21279445144210024  0.0028720369830636393  0.4426666575262317  1.0000
  O   O46       1.0  0.5656452448605762  0.10891781332247767  0.3394402427183465  1.0000
  O   O47       1.0  0.5227550468369201  0.9404232105762204  0.2984078714083863  1.0000
  O   O48       1.0  0.26456594930154853  0.46961593119047523  0.7733601705124826  1.0000
