data_image0
_chemical_formula_structural       Mg6H36C72N12O18
_chemical_formula_sum              "Mg6 H36 C72 N12 O18"
_cell_length_a       6.867858098834616
_cell_length_b       33.30641879253808
_cell_length_c       33.29880996229001
_cell_angle_alpha    119.51875842860538
_cell_angle_beta     93.95854173641152
_cell_angle_gamma    93.91779613375347

_space_group_name_H-M_alt    "P 1"
_space_group_IT_number       1

loop_
  _space_group_symop_operation_xyz
  'x, y, z'

loop_
  _atom_site_type_symbol
  _atom_site_label
  _atom_site_symmetry_multiplicity
  _atom_site_fract_x
  _atom_site_fract_y
  _atom_site_fract_z
  _atom_site_occupancy
  Mg  Mg1       1.0  0.257096641854254  0.676223992592334  0.30745418670932895  1.0000
  Mg  Mg2       1.0  0.9495022561772333  0.6925700186016501  0.3688400851088433  1.0000
  Mg  Mg3       1.0  0.5809750593053379  0.6311997666709956  0.3237809701732601  1.0000
  Mg  Mg4       1.0  0.6709927471855862  0.32863666380550444  0.6955221437261088  1.0000
  Mg  Mg5       1.0  0.9753911041316244  0.304532488979909  0.633175986622483  1.0000
  Mg  Mg6       1.0  0.3422723024696522  0.3668882324832977  0.6713860606756157  1.0000
  H   H1        1.0  0.19509778236606934  0.17263903503381076  0.5676101295425084  1.0000
  H   H2        1.0  0.62761889909968  0.43248922789634753  0.6049520517064125  1.0000
  H   H3        1.0  0.023090547644066803  0.39486397261018175  0.8274885446666078  1.0000
  H   H4        1.0  0.37287671963680674  0.10220205390861993  0.539628342062727  1.0000
  H   H5        1.0  0.833641951418585  0.46053024340885435  0.5626027501254427  1.0000
  H   H6        1.0  0.2714597118094915  0.4372303294204584  0.897890508600355  1.0000
  H   H7        1.0  0.9149576699050856  0.19128603430498  0.6098438790988822  1.0000
  H   H8        1.0  0.30524143099479784  0.39024265063053326  0.5815978824170643  1.0000
  H   H9        1.0  0.7240294532179307  0.41844138865037916  0.8086894081753258  1.0000
  H   H10       1.0  0.5493336646742151  0.9888246235170116  0.4705224135335657  1.0000
  H   H11       1.0  0.0796113990200809  0.5294874327270023  0.5181916974609209  1.0000
  H   H12       1.0  0.5612750817124096  0.4818750853066831  0.011417004727675812  1.0000
  H   H13       1.0  0.7107535660096715  0.9152783375058179  0.43598843328603476  1.0000
  H   H14       1.0  0.2759891423021942  0.5639654636343395  0.47920285147980496  1.0000
  H   H15       1.0  0.7966272192874656  0.5209037113191216  0.08488847990135899  1.0000
  H   H16       1.0  0.5648215367006202  0.8920874786612458  0.486709986678669  1.0000
  H   H17       1.0  0.07877255170820524  0.5130545838316537  0.4051711453146468  1.0000
  H   H18       1.0  0.673874768821193  0.5947839628990224  0.10789850918457941  1.0000
  H   H19       1.0  0.7333756829548151  0.8199169360461981  0.4509642239024531  1.0000
  H   H20       1.0  0.283125688278453  0.5489484848540157  0.3688700868406445  1.0000
  H   H21       1.0  0.9143720337805804  0.6311706706472224  0.1801270283077729  1.0000
  H   H22       1.0  0.02393987934240723  0.8129599001098669  0.40240683144273975  1.0000
  H   H23       1.0  0.6221129089646595  0.597425538765954  0.4104485048153776  1.0000
  H   H24       1.0  0.21202892321374386  0.5895481713111297  0.18700156454382025  1.0000
  H   H25       1.0  0.30823830802532376  0.9526755043926375  0.5381137066735778  1.0000
  H   H26       1.0  0.7706278238364207  0.4616570334043145  0.41451667927641017  1.0000
  H   H27       1.0  0.3552252608148976  0.5857431003211531  0.0473150367415728  1.0000
  H   H28       1.0  0.46598732276024185  0.0221675062389366  0.6094239691169676  1.0000
  H   H29       1.0  0.8561617025941148  0.39020926277423484  0.41257953941607184  1.0000
  H   H30       1.0  0.44290014026384483  0.5875276650578983  0.9777465064866321  1.0000
  H   H31       1.0  0.31048785962438075  0.09610072611673812  0.6419390398930531  1.0000
  H   H32       1.0  0.6681144658940923  0.3578434140978501  0.45410799292709214  1.0000
  H   H33       1.0  0.21389530171030197  0.5458052765296131  0.9037580665751507  1.0000
  H   H34       1.0  0.9986087546053714  0.0989829974825511  0.602619869722048  1.0000
  H   H35       1.0  0.39630670407235874  0.3973610337991503  0.49645997612291387  1.0000
  H   H36       1.0  0.899753364741159  0.503471683963852  0.9009260089823387  1.0000
  C   C1        1.0  0.3351208764493521  0.2608681663831049  0.6194285671028936  1.0000
  C   C2        1.0  0.7156879234248733  0.38063518564693066  0.6414342507043075  1.0000
  C   C3        1.0  0.07445297173413218  0.3585876634466345  0.739221461678426  1.0000
  C   C4        1.0  0.45152975814875873  0.22149836003440274  0.6055713582451077  1.0000
  C   C5        1.0  0.8458641495739557  0.39449102589830437  0.6158998015603744  1.0000
  C   C6        1.0  0.23031910923139517  0.3840777303891869  0.7785851976866099  1.0000
  C   C7        1.0  0.3530642801409698  0.1760651017079837  0.5769873735081035  1.0000
  C   C8        1.0  0.7761758457147963  0.4230947698322468  0.599022254114125  1.0000
  C   C9        1.0  0.17752540666835154  0.4008702360115207  0.8240442576729664  1.0000
  C   C10       1.0  0.4500219141463121  0.13701888867046821  0.5610259007834485  1.0000
  C   C11       1.0  0.8892572647128034  0.4390967416219098  0.5760021434197428  1.0000
  C   C12       1.0  0.3136479651533932  0.4238707646739713  0.8630617282835971  1.0000
  C   C13       1.0  0.6554526058149722  0.14307341360465392  0.5729710089172713  1.0000
  C   C14       1.0  0.08270036541905057  0.42711837147960824  0.5701454648729368  1.0000
  C   C15       1.0  0.5129430528949683  0.4297976385978544  0.8569917406664302  1.0000
  C   C16       1.0  0.7565346169435756  0.1874593348439006  0.601062977471443  1.0000
  C   C17       1.0  0.15550627116260066  0.3990061963888891  0.5864646817707211  1.0000
  C   C18       1.0  0.5694623782074616  0.413523026131891  0.812568490171202  1.0000
  C   C19       1.0  0.6591537858423139  0.22755483672680296  0.6188856373116209  1.0000
  C   C20       1.0  0.040104077468889394  0.3811634717724673  0.6086860927974557  1.0000
  C   C21       1.0  0.4318099942603908  0.39129639826241913  0.7724977328463326  1.0000
  C   C22       1.0  0.7880723025008579  0.028420530545602705  0.523676907661539  1.0000
  C   C23       1.0  0.2649583353173384  0.476295693099452  0.504699627306664  1.0000
  C   C24       1.0  0.7600359003546872  0.4953226315286445  0.9716739937489366  1.0000
  C   C25       1.0  0.69322652496507  0.9875160935878927  0.48549757953550476  1.0000
  C   C26       1.0  0.208490011951632  0.514479756663576  0.5019292267079933  1.0000
  C   C27       1.0  0.7064129956457917  0.4981136601218595  0.01264715355121383  1.0000
  C   C28       1.0  0.7817729145469912  0.9467538241117242  0.46665809105184064  1.0000
  C   C29       1.0  0.31621045405957204  0.533298086438471  0.4800367251776408  1.0000
  C   C30       1.0  0.8358978896535306  0.5200803130659395  0.053387457791338064  1.0000
  C   C31       1.0  0.9659106317077077  0.9448473937757527  0.48595263538291533  1.0000
  C   C32       1.0  0.48089974478256187  0.5139334557868268  0.45882889316201414  1.0000
  C   C33       1.0  0.02167282271825141  0.5413049824829487  0.05521696288273159  1.0000
  C   C34       1.0  0.2863292520991293  0.8566168803447809  0.4463726486567624  1.0000
  C   C35       1.0  0.8406139692532762  0.5534239113335957  0.41008869677381204  1.0000
  C   C36       1.0  0.43073679257669545  0.5898812237732969  0.1433524951533657  1.0000
  C   C37       1.0  0.48647419688557386  0.8587076339706882  0.4606156919144625  1.0000
  C   C38       1.0  0.02650302664570599  0.5391840635984978  0.3979223597609406  1.0000
  C   C39       1.0  0.6287861470213585  0.6020383848343868  0.14127084770164097  1.0000
  C   C40       1.0  0.5780289441248172  0.8188785754423833  0.44094893372187743  1.0000
  C   C41       1.0  0.13776191061714377  0.5589382642082158  0.37784164266344095  1.0000
  C   C42       1.0  0.7600802674320378  0.6221856785040745  0.1811258923662466  1.0000
  C   C43       1.0  0.4751722091329568  0.7759905210777446  0.40686243160067903  1.0000
  C   C44       1.0  0.06890183549740662  0.5930757412650465  0.36910642247967473  1.0000
  C   C45       1.0  0.6999243327959662  0.6309576750642876  0.22400250010192493  1.0000
  C   C46       1.0  0.5890968541742725  0.7359511004972887  0.38757509685434155  1.0000
  C   C47       1.0  0.20199597371594546  0.6124552852064583  0.34844377896151724  1.0000
  C   C48       1.0  0.8536162972640614  0.6516632043527012  0.26406835376295146  1.0000
  C   C49       1.0  0.2692608388242092  0.7731699532301022  0.3927123236395503  1.0000
  C   C50       1.0  0.8771017468833551  0.6072060407972089  0.38042117958954713  1.0000
  C   C51       1.0  0.49696830351251736  0.6196133873635719  0.22682712210097844  1.0000
  C   C52       1.0  0.1787677195230799  0.8143220884791733  0.4131766642299583  1.0000
  C   C53       1.0  0.7662232023307425  0.5866790432695409  0.40105450389198444  1.0000
  C   C54       1.0  0.3654942961473537  0.5989529447652302  0.18565472120673127  1.0000
  C   C55       1.0  0.06304096824955248  0.9851704824895863  0.5279145737639085  1.0000
  C   C56       1.0  0.5357506230720048  0.47193897196635964  0.45719644711059715  1.0000
  C   C57       1.0  0.07795025035920125  0.5429270983780299  0.014841387217032343  1.0000
  C   C58       1.0  0.24029002217621803  0.9846279210701282  0.552083554792745  1.0000
  C   C59       1.0  0.6885576271073077  0.44768677783367405  0.43247626166612474  1.0000
  C   C60       1.0  0.2553468556316858  0.5676954664112303  0.01535363757243165  1.0000
  C   C61       1.0  0.3286885207595632  0.023771577139882503  0.5920284594442435  1.0000
  C   C62       1.0  0.7365589320029075  0.4076911344809703  0.4316465742469689  1.0000
  C   C63       1.0  0.3043493744349848  0.5684340892465871  0.9761552249341676  1.0000
  C   C64       1.0  0.24141500025397994  0.06523257350269772  0.6102875860552217  1.0000
  C   C65       1.0  0.6309416181049271  0.3895134005328417  0.45490032978427314  1.0000
  C   C66       1.0  0.17583616480811776  0.5450574163996792  0.9346661833988679  1.0000
  C   C67       1.0  0.0663285532700542  0.066962949884271  0.5884233709801947  1.0000
  C   C68       1.0  0.4780960579517384  0.4114848771117466  0.4785558257469305  1.0000
  C   C69       1.0  0.9993312811968309  0.5214095267601948  0.9329746370427117  1.0000
  C   C70       1.0  0.9728734694966337  0.027819699702277503  0.5468935505586643  1.0000
  C   C71       1.0  0.4264507280974996  0.4530181298554083  0.4808932761439878  1.0000
  C   C72       1.0  0.945184754667075  0.5191504728381916  0.9721972670722325  1.0000
  N   N1        1.0  0.7751366046836382  0.10667431619081921  0.5589754769885645  1.0000
  N   N2        1.0  0.2165773746279099  0.44111224550223227  0.547784288735336  1.0000
  N   N3        1.0  0.6689553883489054  0.45218668818603197  0.8934062772180626  1.0000
  N   N4        1.0  0.6811730505061603  0.06615972963471961  0.5362390116229037  1.0000
  N   N5        1.0  0.1454082280368708  0.4637695693522231  0.5298789597384328  1.0000
  N   N6        1.0  0.6154646013067977  0.47009720117750925  0.9339393891576222  1.0000
  N   N7        1.0  0.03252627737231236  0.9011383427685332  0.4620412525692431  1.0000
  N   N8        1.0  0.5714406135105321  0.5378350567067045  0.4390319502344155  1.0000
  N   N9        1.0  0.13234753777740588  0.5610811054574328  0.09888749095758001  1.0000
  N   N10       1.0  0.21678453953414586  0.9004224811580315  0.4680159128364638  1.0000
  N   N11       1.0  0.7495072786784219  0.531717526364794  0.43220255873355745  1.0000
  N   N12       1.0  0.3172811085836429  0.5677636428396298  0.09954796551544129  1.0000
  O   O1        1.0  0.7682980440024069  0.7400901879046131  0.40314364097664424  1.0000
  O   O2        1.0  0.36568984121520764  0.5969232046322691  0.33702074731733256  1.0000
  O   O3        1.0  0.028664769842805415  0.6631302914900064  0.2599755311947336  1.0000
  O   O4        1.0  0.5037474917142434  0.6965526659447793  0.35396580039970643  1.0000
  O   O5        1.0  0.1499910257630218  0.6460746515912987  0.3426796902827149  1.0000
  O   O6        1.0  0.8074694037188124  0.6573646170333589  0.3034382079088617  1.0000
  O   O7        1.0  0.16114904158845889  0.7332476157847695  0.3609919596029202  1.0000
  O   O8        1.0  0.80069244596735  0.6390015127858818  0.37229729826820107  1.0000
  O   O9        1.0  0.4286323410587445  0.6277509804353375  0.2667377099675082  1.0000
  O   O10       1.0  0.15469227373228733  0.25464747062014237  0.6036400548674338  1.0000
  O   O11       1.0  0.5510772776316059  0.3964467314704266  0.6510243934465763  1.0000
  O   O12       1.0  0.9003379552413406  0.34898009262356317  0.7454518886010746  1.0000
  O   O13       1.0  0.42097814754703217  0.3022709357993704  0.6483984275782647  1.0000
  O   O14       1.0  0.772599993502304  0.35166481122283955  0.6538908961861551  1.0000
  O   O15       1.0  0.1187576661134813  0.34617407045357856  0.6977971118816555  1.0000
  O   O16       1.0  0.765415973572175  0.2689193587499119  0.6469986546750165  1.0000
  O   O17       1.0  0.1182573521312236  0.35303940144536483  0.6219491653148026  1.0000
  O   O18       1.0  0.4966577821252188  0.3780655022437712  0.7311190516689621  1.0000
