data_image0
_chemical_formula_structural       Cd2H24C28S2O16
_chemical_formula_sum              "Cd2 H24 C28 S2 O16"
_cell_length_a       5.2602937867053665
_cell_length_b       12.102749116447642
_cell_length_c       13.165653875262361
_cell_angle_alpha    115.9841084990049
_cell_angle_beta     89.99830907308514
_cell_angle_gamma    90.00148318587732

_space_group_name_H-M_alt    "P 1"
_space_group_IT_number       1

loop_
  _space_group_symop_operation_xyz
  'x, y, z'

loop_
  _atom_site_type_symbol
  _atom_site_label
  _atom_site_symmetry_multiplicity
  _atom_site_fract_x
  _atom_site_fract_y
  _atom_site_fract_z
  _atom_site_occupancy
  Cd  Cd1       1.0  0.0397939317679459  0.7500012755280919  3.596922823521979e-06  1.0000
  Cd  Cd2       1.0  0.9602057618104068  0.24999591315124559  0.9999985915995137  1.0000
  H   H1        1.0  0.7520392525076858  0.6031909830562017  0.08884701850177379  1.0000
  H   H2        1.0  0.7520346663656525  0.8968068783843821  0.9111557019253167  1.0000
  H   H3        1.0  0.2479604410425225  0.39680620551108353  0.911155929527524  1.0000
  H   H4        1.0  0.2479650272264209  0.10319122946750531  0.08884685688717299  1.0000
  H   H5        1.0  0.6028622153146584  0.7319748031871783  0.11586548693018975  1.0000
  H   H6        1.0  0.6028671501285601  0.7680211014369864  0.8841381990020023  1.0000
  H   H7        1.0  0.3971355772429063  0.268023304658101  0.8841370718908049  1.0000
  H   H8        1.0  0.3971325434916509  0.23197700652695374  0.11586360030352688  1.0000
  H   H9        1.0  0.5241128307119425  0.9097326035321486  0.33557647396975887  1.0000
  H   H10       1.0  0.5240759041958541  0.5902599960954263  0.664423768429863  1.0000
  H   H11       1.0  0.4758925661380573  0.09026642407237521  0.6644226575725226  1.0000
  H   H12       1.0  0.47591428427926274  0.4097399501805725  0.33557877149851817  1.0000
  H   H13       1.0  0.8261939240540599  0.042283352830956716  0.4817686093788537  1.0000
  H   H14       1.0  0.8261555484405179  0.4577217820068783  0.518222885403027  1.0000
  H   H15       1.0  0.17381527489240514  0.9577175131319039  0.5182312627267079  1.0000
  H   H16       1.0  0.1738346401739008  0.5422818412954913  0.4817788571650681  1.0000
  H   H17       1.0  0.9772120539215408  0.24555547394260915  0.28772537684387334  1.0000
  H   H18       1.0  0.9772422183809651  0.2544599033428199  0.712268468208286  1.0000
  H   H19       1.0  0.0227762337572059  0.7544472306287844  0.7122729574147255  1.0000
  H   H20       1.0  0.022768881669996705  0.7455418820233105  0.28773025516498746  1.0000
  H   H21       1.0  0.6720974418007089  0.11147825207208942  0.14117543376336525  1.0000
  H   H22       1.0  0.6721114462268787  0.3885212145161604  0.858820146265131  1.0000
  H   H23       1.0  0.3279003509956766  0.888520775842139  0.8588214192920772  1.0000
  H   H24       1.0  0.32789395058126297  0.6114768938037614  0.14117937449397283  1.0000
  C   C1        1.0  0.3803090009426668  0.9274992251682906  0.14662587432710697  1.0000
  C   C2        1.0  0.3803083431669521  0.57249697014732  0.8533775070832161  1.0000
  C   C3        1.0  0.6196925938664606  0.0724998025350558  0.8533724977252388  1.0000
  C   C4        1.0  0.6196913505088375  0.427502976273786  0.14662427329564306  1.0000
  C   C5        1.0  0.572440616186732  0.005083433229074802  0.23084894121323873  1.0000
  C   C6        1.0  0.572431496344791  0.49491350093540404  0.7691521072857269  1.0000
  C   C7        1.0  0.4275571766096534  0.9949155946851532  0.7691479118422107  1.0000
  C   C8        1.0  0.4275739004063865  0.5050864453934878  0.2308504325745701  1.0000
  C   C9        1.0  0.62139134525637  0.9836467251843646  0.3255236918694207  1.0000
  C   C10       1.0  0.6213663707157906  0.516352067198895  0.6744710655535326  1.0000
  C   C11       1.0  0.3786083485319693  0.0163532216849376  0.6744750504815897  1.0000
  C   C12       1.0  0.3786276199127556  0.48364787942647086  0.32552919583693546  1.0000
  C   C13       1.0  0.7924594798692579  0.05781350672948091  0.40748680768909645  1.0000
  C   C14       1.0  0.792437486147236  0.442185878360803  0.592503526867844  1.0000
  C   C15       1.0  0.2075402140041902  0.9421846022428966  0.5925081560537605  1.0000
  C   C16       1.0  0.20755840558581437  0.5578149876678326  0.4074955857903432  1.0000
  C   C17       1.0  0.9167885815735418  0.1520635038913341  0.3931118264431958  1.0000
  C   C18       1.0  0.9167903128070803  0.34795421095478934  0.6068806326538547  1.0000
  C   C19       1.0  0.0832092114033145  0.8479419585669421  0.6068853401224031  1.0000
  C   C20       1.0  0.0832055790789994  0.6520512512727735  0.39311805293419144  1.0000
  C   C21       1.0  0.8744357726578187  0.17323794083176133  0.29838795924354855  1.0000
  C   C22       1.0  0.8744539351896918  0.3267730444727023  0.7016076035549614  1.0000
  C   C23       1.0  0.1255601191445308  0.8267656828265901  0.7016115047781141  1.0000
  C   C24       1.0  0.1255495606395272  0.6732269022977705  0.29839189828598467  1.0000
  C   C25       1.0  0.7018207278354184  0.0987588449940233  0.21705669747301215  1.0000
  C   C26       1.0  0.7018240041979524  0.4012454245113232  0.7829381893698153  1.0000
  C   C27       1.0  0.2981789659810588  0.9012411019873242  0.7829412853710308  1.0000
  C   C28       1.0  0.2981775906248956  0.5987545223645868  0.21706055297268273  1.0000
  S   S1        1.0  0.1295311364552774  0.25000795846413126  0.4999951784170519  1.0000
  S   S2        1.0  0.8704761612617914  0.7499873920085849  0.5000055099839782  1.0000
  O   O1        1.0  0.3382437272929621  0.819436612836974  0.1401005807106159  1.0000
  O   O2        1.0  0.338237631338032  0.6805556122666374  0.8599077723017101  1.0000
  O   O3        1.0  0.6617597684799748  0.1805633337094008  0.8599004401442583  1.0000
  O   O4        1.0  0.6617601612606948  0.31944525309631194  0.14009589738974165  1.0000
  O   O5        1.0  0.2603419543110448  0.9650501973431179  0.0840488311135772  1.0000
  O   O6        1.0  0.26033631940877905  0.5349368909101742  0.9159522919784135  1.0000
  O   O7        1.0  0.7396558383453423  0.034946991777793805  0.9159503193894165  1.0000
  O   O8        1.0  0.7396652752459331  0.4650612170603737  0.08404950731860338  1.0000
  O   O9        1.0  0.2673086417794365  0.3229851135184988  0.45536966410376317  1.0000
  O   O10       1.0  0.26730858268602026  0.17702624630774016  0.5446202752592411  1.0000
  O   O11       1.0  0.7326986563280967  0.6770194296882296  0.5446278916360966  1.0000
  O   O12       1.0  0.732687309061447  0.8229737006603843  0.4553777076018263  1.0000
  O   O13       1.0  0.7677784003866889  0.6876123212564097  0.09251588974892397  1.0000
  O   O14       1.0  0.7677785509655523  0.8123884070879512  0.9074885600947904  1.0000
  O   O15       1.0  0.23222129324793878  0.312384867647026  0.9074847797594925  1.0000
  O   O16       1.0  0.23222304371729768  0.18760970099464913  0.09251247969525879  1.0000
