data_image0
_chemical_formula_structural       Cs8H12C28N4O20
_chemical_formula_sum              "Cs8 H12 C28 N4 O20"
_cell_length_a       4.088164822849925
_cell_length_b       15.224441021370216
_cell_length_c       16.913667596005673
_cell_angle_alpha    90.0002182068722
_cell_angle_beta     90.00123654653372
_cell_angle_gamma    91.25648530471639

_space_group_name_H-M_alt    "P 1"
_space_group_IT_number       1

loop_
  _space_group_symop_operation_xyz
  'x, y, z'

loop_
  _atom_site_type_symbol
  _atom_site_label
  _atom_site_symmetry_multiplicity
  _atom_site_fract_x
  _atom_site_fract_y
  _atom_site_fract_z
  _atom_site_occupancy
  Cs  Cs1       1.0  0.6336486085418969  0.40462558769539203  0.6927947265531031  1.0000
  Cs  Cs2       1.0  0.13363292350729236  0.904626770280167  0.8072064537829178  1.0000
  Cs  Cs3       1.0  0.3663416225211762  0.5953750836009846  0.3072055895571566  1.0000
  Cs  Cs4       1.0  0.8663644789126295  0.095372564051118  0.1927944535818114  1.0000
  Cs  Cs5       1.0  0.5730779719402006  0.5677928149522273  0.886532241878399  1.0000
  Cs  Cs6       1.0  0.0730804602952588  0.06779109617431803  0.6134698534285263  1.0000
  Cs  Cs7       1.0  0.4269319858780419  0.4322091087391299  0.1134657093346263  1.0000
  Cs  Cs8       1.0  0.9269193050924184  0.9322075735147447  0.38652987146566187  1.0000
  H   H1        1.0  0.761255666936293  0.7736514550146935  0.6907795611960098  1.0000
  H   H2        1.0  0.2612439158341928  0.2736520976920572  0.8092230340408335  1.0000
  H   H3        1.0  0.23876138002149364  0.2263484747628723  0.3092201637458132  1.0000
  H   H4        1.0  0.7387558495797393  0.7263465719984338  0.1907772820911759  1.0000
  H   H5        1.0  0.09354661644908903  0.5519459845765768  0.5724541874400799  1.0000
  H   H6        1.0  0.5935147641023164  0.0519468106120016  0.927550918581943  1.0000
  H   H7        1.0  0.9064585331113265  0.4480566114448051  0.427544946237056  1.0000
  H   H8        1.0  0.40648011086274494  0.9480518744612495  0.0724523537263266  1.0000
  H   H9        1.0  0.567921330048783  0.756959577682693  0.4492512786112073  1.0000
  H   H10       1.0  0.06790154265314638  0.25696089386337917  0.050750691202445394  1.0000
  H   H11       1.0  0.43206881874448294  0.24304043666212746  0.5507490374977309  1.0000
  H   H12       1.0  0.932098716300878  0.7430417175321793  0.9492478512240226  1.0000
  C   C1        1.0  0.9391045439876108  0.6621991327283753  0.6403259716796228  1.0000
  C   C2        1.0  0.4390778759803523  0.16220139505522718  0.8596789598495533  1.0000
  C   C3        1.0  0.0608931052154844  0.3378021724561505  0.3596743444512427  1.0000
  C   C4        1.0  0.5609196086568744  0.8377985962247576  0.1403207650408476  1.0000
  C   C5        1.0  0.06487463794744029  0.6358360679077534  0.7215153588653465  1.0000
  C   C6        1.0  0.5648561166548518  0.135833459989982  0.7784904690647352  1.0000
  C   C7        1.0  0.9351278195397299  0.3641645649481831  0.2784843660392298  1.0000
  C   C8        1.0  0.43514013409276237  0.8641566770252069  0.2215128032328124  1.0000
  C   C9        1.0  0.9713611079497895  0.6149137953579783  0.5717571707841316  1.0000
  C   C10       1.0  0.4713351454289736  0.11491246328816368  0.9282501368388836  1.0000
  C   C11       1.0  0.028638657385379  0.38508487432822147  0.4282413716344067  1.0000
  C   C12       1.0  0.5286694284790697  0.8850855340851851  0.0717543179694218  1.0000
  C   C13       1.0  0.8444528857248272  0.6475106382080326  0.497832652593722  1.0000
  C   C14       1.0  0.3444212835454934  0.1475104283807553  0.0021721800601284006  1.0000
  C   C15       1.0  0.15553970833225608  0.3524893684475501  0.5021670722838252  1.0000
  C   C16       1.0  0.6555762011704901  0.8524895629035213  0.9978293185437365  1.0000
  C   C17       1.0  0.6778119504947496  0.7299255767433622  0.5023630074909065  1.0000
  C   C18       1.0  0.17778962313769142  0.22992393132804517  0.9976407750659959  1.0000
  C   C19       1.0  0.3221781160549638  0.2700737806513303  0.4976378998545385  1.0000
  C   C20       1.0  0.8222153619618666  0.7700773507945087  0.0023601323219751  1.0000
  C   C21       1.0  0.6538575897913431  0.7747656254689729  0.5723431108298271  1.0000
  C   C22       1.0  0.1538310812752357  0.2747603488348673  0.9276565574205549  1.0000
  C   C23       1.0  0.3461451144790074  0.22523697824021133  0.4276560228408854  1.0000
  C   C24       1.0  0.846173656857374  0.725238962424427  0.07234080253652309  1.0000
  C   C25       1.0  0.49627720997647634  0.8635046869005691  0.5826161931779694  1.0000
  C   C26       1.0  0.9962561054790271  0.36350082663095423  0.9173838030501216  1.0000
  C   C27       1.0  0.50373038492652  0.13649790143587384  0.41738412298124666  1.0000
  C   C28       1.0  0.0037462696595795997  0.6364991492691274  0.08261414813966891  1.0000
  N   N1        1.0  0.7838654738983023  0.7402005320248933  0.6388156723644869  1.0000
  N   N2        1.0  0.28383558973773393  0.24019558288218681  0.8611887033113703  1.0000
  N   N3        1.0  0.2161519020862173  0.2598020255560485  0.3611828701069655  1.0000
  N   N4        1.0  0.7161663742093438  0.7598011082686966  0.1388127952987546  1.0000
  O   O1        1.0  0.032778555756635804  0.6923776713466907  0.7763438087273258  1.0000
  O   O2        1.0  0.5327356027894864  0.19237485951217081  0.7236608574402511  1.0000
  O   O3        1.0  0.9672076073718827  0.3076295848380112  0.22365532490762519  1.0000
  O   O4        1.0  0.46725306509471665  0.8076133297017307  0.2763382761692981  1.0000
  O   O5        1.0  0.1838588066781313  0.5601069423415553  0.7280333508644219  1.0000
  O   O6        1.0  0.6838575641307046  0.060110161628628596  0.7719758057968917  1.0000
  O   O7        1.0  0.8161395008934704  0.4398996184668889  0.2719716951795732  1.0000
  O   O8        1.0  0.31614390646006296  0.9398825878272064  0.2280316051835385  1.0000
  O   O9        1.0  0.878306079302419  0.606800935644358  0.4326498859523937  1.0000
  O   O10       1.0  0.3783000751218993  0.10680295070949337  0.0673549884083116  1.0000
  O   O11       1.0  0.12167159617856531  0.3931971462819277  0.5673492476448062  1.0000
  O   O12       1.0  0.6216903205333039  0.8931990344928591  0.9326465101802341  1.0000
  O   O13       1.0  0.5124615166172292  0.8962382558385185  0.6517940721838116  1.0000
  O   O14       1.0  0.01244009624453209  0.3962318992027817  0.8482052591251587  1.0000
  O   O15       1.0  0.4875460781807491  0.10376433249219727  0.348203879024112  1.0000
  O   O16       1.0  0.9875622788415586  0.6037680766944432  0.151791509588989  1.0000
  O   O17       1.0  0.36916471476635593  0.897552012029159  0.5221056806023796  1.0000
  O   O18       1.0  0.8691541215064406  0.39755040015677406  0.9778925779256582  1.0000
  O   O19       1.0  0.6308404347415576  0.1024505839893592  0.4778922705991135  1.0000
  O   O20       1.0  0.1308434452168115  0.6024502480647485  0.0221030083013005  1.0000
