data_image0
_chemical_formula_structural       CdH22C14S2N8
_chemical_formula_sum              "Cd1 H22 C14 S2 N8"
_cell_length_a       7.662807112415321
_cell_length_b       8.032109519546164
_cell_length_c       8.813068871835577
_cell_angle_alpha    93.0156524791024
_cell_angle_beta     98.51137903437954
_cell_angle_gamma    118.53325760512374

_space_group_name_H-M_alt    "P 1"
_space_group_IT_number       1

loop_
  _space_group_symop_operation_xyz
  'x, y, z'

loop_
  _atom_site_type_symbol
  _atom_site_label
  _atom_site_symmetry_multiplicity
  _atom_site_fract_x
  _atom_site_fract_y
  _atom_site_fract_z
  _atom_site_occupancy
  Cd  Cd1       1.0  0.4999978451022074  6.161398858007678e-07  0.4999986631778697  1.0000
  H   H1        1.0  0.7208757742318282  0.32174066751306196  0.8191929123138879  1.0000
  H   H2        1.0  0.27912429639786746  0.6782521531116998  0.18081021908119513  1.0000
  H   H3        1.0  0.6264618692605807  0.44766081409065345  0.7072415414265407  1.0000
  H   H4        1.0  0.37353073670656295  0.5523276576067103  0.2927627543673168  1.0000
  H   H5        1.0  0.07315319073698841  0.5785494176448439  0.8408104119112636  1.0000
  H   H6        1.0  0.9268418432934311  0.42145181215413174  0.15918570187589862  1.0000
  H   H7        1.0  0.0010881334064620782  0.6924314856654732  0.7000286438846572  1.0000
  H   H8        1.0  0.9989026942699865  0.30756401791673227  0.29996896174238696  1.0000
  H   H9        1.0  0.8808983176236111  0.650766356420512  0.02110254927184494  1.0000
  H   H10       1.0  0.11910281107599013  0.34923640372555537  0.978897775490097  1.0000
  H   H11       1.0  0.08044503512115857  0.8560279895534961  0.9702917195634414  1.0000
  H   H12       1.0  0.9195599526589929  0.1439719798895638  0.029708938171062002  1.0000
  H   H13       1.0  0.6144053077446543  0.725052280498275  0.0524537595181656  1.0000
  H   H14       1.0  0.38559203654897095  0.2749404685052141  0.9475445009910785  1.0000
  H   H15       1.0  0.41000979854226927  0.8794278548595358  0.8701822493189724  1.0000
  H   H16       1.0  0.5899940967682653  0.12056215731372791  0.1298189405605825  1.0000
  H   H17       1.0  0.8762962319301834  0.8979473970377613  0.6589211855440527  1.0000
  H   H18       1.0  0.12371432537197787  0.1020583344327051  0.341080415793499  1.0000
  H   H19       1.0  0.887741465338813  0.3091870911561685  0.6011724772440559  1.0000
  H   H20       1.0  0.11225529538270941  0.6908070801352079  0.398826914977775  1.0000
  H   H21       1.0  0.7630101966556139  0.40138934279068633  0.5008301193048652  1.0000
  H   H22       1.0  0.23698055539604465  0.5986033425248464  0.49917074816244883  1.0000
  C   C1        1.0  0.754394740151639  0.4201179851676855  0.7317905783093934  1.0000
  C   C2        1.0  0.2456008878254039  0.5798790484479783  0.2682133518257004  1.0000
  C   C3        1.0  0.9505063053525474  0.6078998795114714  0.7948401478420237  1.0000
  C   C4        1.0  0.04948730708490251  0.39209850508444083  0.20515792958654092  1.0000
  C   C5        1.0  0.9320333178544827  0.7294191353968884  0.9239089045430121  1.0000
  C   C6        1.0  0.06796298651931208  0.2705793030718056  0.07609176928328762  1.0000
  C   C7        1.0  0.6356099786325942  0.7844946175706511  0.9447242277322516  1.0000
  C   C8        1.0  0.36438985474821095  0.2154925221495176  0.055279741123108316  1.0000
  C   C9        1.0  0.5370929206748514  0.8603258035783837  0.8537175056305912  1.0000
  C   C10       1.0  0.4628909743115486  0.1396639021657862  0.14627672095048894  1.0000
  C   C11       1.0  0.7747644725040035  0.8723353785663831  0.7392466189788038  1.0000
  C   C12       1.0  0.22524480762942997  0.1276703614646948  0.2607582331360803  1.0000
  C   C13       1.0  0.24351949416343638  0.1742794725982009  0.6479097315751261  1.0000
  C   C14       1.0  0.7564812615887745  0.8257487758737696  0.3520792715743966  1.0000
  S   S1        1.0  0.23212980907720043  0.36895571936877763  0.6838397610111997  1.0000
  S   S2        1.0  0.7678821363684063  0.6310684596684978  0.3161560716366978  1.0000
  N   N1        1.0  0.7581816822409023  0.320538855567534  0.5881835694555806  1.0000
  N   N2        1.0  0.24181329336458648  0.6794595648390143  0.4118169434159001  1.0000
  N   N3        1.0  0.7857927781850621  0.7930323188531574  0.8703858083048034  1.0000
  N   N4        1.0  0.2142081132656415  0.2069647603883098  0.12961535391741563  1.0000
  N   N5        1.0  0.6248985588262529  0.9138855288352377  0.7259861148665578  1.0000
  N   N6        1.0  0.37511041525883115  0.08611449479423781  0.2740150257324032  1.0000
  N   N7        1.0  0.2569540137682438  0.0335797319882971  0.62613462392288  1.0000
  N   N8        1.0  0.7430711677608955  0.9664446010476269  0.373859406541051  1.0000
