data_image0
_chemical_formula_structural       Gd6H38C60O46
_chemical_formula_sum              "Gd6 H38 C60 O46"
_cell_length_a       10.122059893391365
_cell_length_b       12.199023010913491
_cell_length_c       14.71304555974483
_cell_angle_alpha    69.1666987345397
_cell_angle_beta     84.91488325718306
_cell_angle_gamma    75.65438497108809

_space_group_name_H-M_alt    "P 1"
_space_group_IT_number       1

loop_
  _space_group_symop_operation_xyz
  'x, y, z'

loop_
  _atom_site_type_symbol
  _atom_site_label
  _atom_site_symmetry_multiplicity
  _atom_site_fract_x
  _atom_site_fract_y
  _atom_site_fract_z
  _atom_site_occupancy
  Gd  Gd1       1.0  0.2473286269202006  0.4847481750985239  0.9015536418635153  1.0000
  Gd  Gd2       1.0  0.7526716227205487  0.5152528620539414  0.09844554504334005  1.0000
  Gd  Gd3       1.0  0.36092074633882737  0.9793031257065082  0.7843633331670433  1.0000
  Gd  Gd4       1.0  0.6390782706537834  0.020698808661194296  0.21563498477434007  1.0000
  Gd  Gd5       1.0  0.4946851397295617  0.28862887373331597  0.5488743048506067  1.0000
  Gd  Gd6       1.0  0.5053153513797782  0.7113712636960585  0.4511258138249872  1.0000
  H   H1        1.0  0.718798874562367  0.8001361061336283  0.8474867576599012  1.0000
  H   H2        1.0  0.281201100974279  0.19986222126573952  0.1525125715236726  1.0000
  H   H3        1.0  0.8879530653694874  0.0465083259787562  0.6066933880215829  1.0000
  H   H4        1.0  0.11204814831304338  0.9534891102623602  0.3933088470020465  1.0000
  H   H5        1.0  0.09640196016282228  0.8891857366949553  0.6160463571583961  1.0000
  H   H6        1.0  0.9036000050632396  0.1108126037960986  0.3839555622514156  1.0000
  H   H7        1.0  0.28239238573965514  0.7696850204300245  0.6783995211797773  1.0000
  H   H8        1.0  0.7176083450056937  0.2303142152572661  0.3216008503063677  1.0000
  H   H9        1.0  0.20284621692045596  0.7303484923844437  0.5941456744823627  1.0000
  H   H10       1.0  0.7971535226453528  0.2696507407949937  0.40585475980705615  1.0000
  H   H11       1.0  0.011953738370237903  0.3001689186274135  0.9563971675595088  1.0000
  H   H12       1.0  0.9880465131030932  0.6998321205440377  0.04360269830554128  1.0000
  H   H13       1.0  0.9604502216396614  0.9804636555069378  0.19023834925061328  1.0000
  H   H14       1.0  0.039550269469678816  0.019536481922436604  0.8097617694249807  1.0000
  H   H15       1.0  0.16644989077013866  0.8631520919055121  0.14065018555283607  1.0000
  H   H16       1.0  0.8335506040043654  0.1368480495618485  0.8593512910391469  1.0000
  H   H17       1.0  0.3000139710896974  0.7747786856484568  0.0743085413088522  1.0000
  H   H18       1.0  0.6999862767184625  0.22522234948501557  0.9256899666398086  1.0000
  H   H19       1.0  0.421917900384102  0.8374670731794327  0.10763247289168017  1.0000
  H   H20       1.0  0.5780838160430406  0.16253215895874007  0.8923657989166147  1.0000
  H   H21       1.0  0.9349355050336358  0.2516114085484205  0.6254918481571607  1.0000
  H   H22       1.0  0.06506276224802572  0.748389623588324  0.3745074643562346  1.0000
  H   H23       1.0  0.8886881501392879  0.5336599323422178  0.34498858888865414  1.0000
  H   H24       1.0  0.1113098775063648  0.46634200153661  0.6550104708141975  1.0000
  H   H25       1.0  0.13595158655076028  0.4645346120341643  0.31084794065411364  1.0000
  H   H26       1.0  0.8640459310199519  0.5354655178716428  0.6891523664313015  1.0000
  H   H27       1.0  0.34435715958250074  0.2934184164745517  0.291790986543532  1.0000
  H   H28       1.0  0.6556401509877078  0.706586224649513  0.7082079936858605  1.0000
  H   H29       1.0  0.2833581424432836  0.1696826687333512  0.37580190508982275  1.0000
  H   H30       1.0  0.7166408763819094  0.830319267653337  0.6241970918097479  1.0000
  H   H31       1.0  0.4483863488826503  0.6623419065670858  0.8828202536831854  1.0000
  H   H32       1.0  0.5516141403941076  0.33765822884329566  0.11717918603421404  1.0000
  H   H33       1.0  0.5347828534664174  0.5299535201873978  0.900400674460869  1.0000
  H   H34       1.0  0.46521764130808674  0.4700466212799626  0.09960080213111411  1.0000
  H   H35       1.0  0.44170508646182355  0.371226735852666  0.7231597971794131  1.0000
  H   H36       1.0  0.558294892739994  0.6287715955846878  0.2768408899205497  1.0000
  H   H37       1.0  0.4094904227508279  0.243625059614196  0.7507971177081103  1.0000
  H   H38       1.0  0.5905093186475555  0.7563741755842343  0.24920399553949582  1.0000
  C   C1        1.0  0.024339513398928012  0.7507452595060117  0.7346367583108134  1.0000
  C   C2        1.0  0.975662449994552  0.2492530789660563  0.2653644821408037  1.0000
  C   C3        1.0  0.9161305048024957  0.7249737628083112  0.8015298276518906  1.0000
  C   C4        1.0  0.08387046557886182  0.27502457113690326  0.1984707966448056  1.0000
  C   C5        1.0  0.80176110157057  0.8192309556008083  0.7963276206405469  1.0000
  C   C6        1.0  0.19823863799523175  0.18076827757862898  0.2036728136488719  1.0000
  C   C7        1.0  0.7897965064489441  0.9338571237129472  0.7266468798086907  1.0000
  C   C8        1.0  0.21020446393240638  0.0661412102322672  0.2733537444879986  1.0000
  C   C9        1.0  0.8965119791805949  0.9567696136201037  0.6607427099353416  1.0000
  C   C10       1.0  0.10348974457687635  0.0432296265940408  0.3392582777057243  1.0000
  C   C11       1.0  0.012805881503553041  0.8668382482547371  0.6652090890468899  1.0000
  C   C12       1.0  0.987194851074378  0.13316098945155366  0.33479196139744266  1.0000
  C   C13       1.0  0.2454170561099289  0.6977428356506082  0.667662537671113  1.0000
  C   C14       1.0  0.7545819374100804  0.3022554993358709  0.3323402491067072  1.0000
  C   C15       1.0  0.3630422873456425  0.5894231534542769  0.6779174061882645  1.0000
  C   C16       1.0  0.636960930335988  0.410577885164777  0.32207955543418626  1.0000
  C   C17       1.0  0.9147864281042783  0.6050783806780375  0.8790502309645803  1.0000
  C   C18       1.0  0.08521109313159764  0.39492175326574863  0.12095143403721656  1.0000
  C   C19       1.0  0.662197480312841  0.029306675363066904  0.7163061998728326  1.0000
  C   C20       1.0  0.337802767495326  0.9706943597704053  0.2836923080758281  1.0000
  C   C21       1.0  0.2024904193359235  0.012037619213458601  0.013445093574524896  1.0000
  C   C22       1.0  0.7975090842590336  0.9879625197460413  0.9865564458207318  1.0000
  C   C23       1.0  0.1598659900656827  0.1375380658721639  0.9630391349391801  1.0000
  C   C24       1.0  0.8401345028762396  0.8624620735762039  0.03696166269460812  1.0000
  C   C25       1.0  0.0429356910697578  0.203065192090186  0.9942252971239116  1.0000
  C   C26       1.0  0.9570650396755908  0.7969340435971047  0.005775074362226494  1.0000
  C   C27       1.0  0.9667080939615005  0.14727514597498728  0.0727909330015919  1.0000
  C   C28       1.0  0.03329164743688295  0.8527240892234432  0.9272101802460143  1.0000
  C   C29       1.0  0.013503239930905403  0.0242400179103228  0.12482250098212692  1.0000
  C   C30       1.0  0.9864972530110168  0.9757601215380447  0.8751782966516616  1.0000
  C   C31       1.0  0.1313087910236917  0.9575979922234477  0.09662787822405511  1.0000
  C   C32       1.0  0.8686926949303527  0.0424021517517659  0.9033735355646615  1.0000
  C   C33       1.0  0.3765475572031107  0.8289710063820834  0.045926355933133316  1.0000
  C   C34       1.0  0.6234541628892032  0.1710282297940751  0.9540732737915437  1.0000
  C   C35       1.0  0.4810050737586949  0.7597405056136776  0.9935959542898092  1.0000
  C   C36       1.0  0.5189966228610177  0.2402551311812573  0.006408144271311789  1.0000
  C   C37       1.0  0.23391720639807553  0.2073916417476482  0.8793357981364311  1.0000
  C   C38       1.0  0.766082774636324  0.7926066917087056  0.12066556792172636  1.0000
  C   C39       1.0  0.8435337910078362  0.22046705051850068  0.10445552477968793  1.0000
  C   C40       1.0  0.15646523148252106  0.7795348899061736  0.8955448300362717  1.0000
  C   C41       1.0  0.1740647873891277  0.3261651063603495  0.4516627688599755  1.0000
  C   C42       1.0  0.8259334817251159  0.6738359277953947  0.5483372226116147  1.0000
  C   C43       1.0  0.1200734829459407  0.2651557561358259  0.5418640747052097  1.0000
  C   C44       1.0  0.8799250258043118  0.7348443762778344  0.45813616957693176  1.0000
  C   C45       1.0  0.9793512880672427  0.2999534967162277  0.5572332964227799  1.0000
  C   C46       1.0  0.020646981047001047  0.7000475374395165  0.44276669504881033  1.0000
  C   C47       1.0  0.896232916700882  0.3978804213158894  0.4878602292188035  1.0000
  C   C48       1.0  0.10376634359290189  0.6021206153477082  0.5121396994495129  1.0000
  C   C49       1.0  0.9534250733088004  0.4578030178882599  0.39920111389933055  1.0000
  C   C50       1.0  0.04657418698499074  0.5421980187753375  0.6007988147689858  1.0000
  C   C51       1.0  0.09110337489207151  0.4197428923462211  0.3801494023368762  1.0000
  C   C52       1.0  0.9088946527535812  0.5802590415326065  0.6198496573659684  1.0000
  C   C53       1.0  0.35140266772184253  0.2302662225492398  0.3672717491767942  1.0000
  C   C54       1.0  0.6485953617563921  0.769735713348581  0.6327279894842448  1.0000
  C   C55       1.0  0.49691178016665577  0.15531618475553444  0.38861400065091806  1.0000
  C   C56       1.0  0.5030869971899464  0.8446866513542377  0.6113840644799141  1.0000
  C   C57       1.0  0.20804684450027375  0.16757535376630267  0.6210022312799739  1.0000
  C   C58       1.0  0.7919519038859805  0.8324238769052812  0.3789982658127117  1.0000
  C   C59       1.0  0.7461564028622689  0.43848222756801664  0.5057560830304269  1.0000
  C   C60       1.0  0.25384258699258316  0.5615161033804767  0.49424534583100405  1.0000
  O   O1        1.0  0.1422035918543969  0.6630165195707319  0.7395564495942042  1.0000
  O   O2        1.0  0.8577993627186302  0.3369818214091822  0.2604447280541393  1.0000
  O   O3        1.0  0.45400181629850084  0.5993843135144559  0.6132731892009531  1.0000
  O   O4        1.0  0.5459994245217887  0.40061672614586996  0.38672593490262136  1.0000
  O   O5        1.0  0.362834317471382  0.494556000681122  0.7511557057903674  1.0000
  O   O6        1.0  0.6371678818929425  0.505441432010869  0.24884442955541183  1.0000
  O   O7        1.0  0.01573650157040158  0.5160937189447453  0.886381957193386  1.0000
  O   O8        1.0  0.9842647084469647  0.4839037132583855  0.11361891991385417  1.0000
  O   O9        1.0  0.8097836426302722  0.5979426662521591  0.933867072041039  1.0000
  O   O10       1.0  0.1902178378260331  0.4020574716660831  0.06613230487308643  1.0000
  O   O11       1.0  0.571668568286654  0.0134418284257976  0.7833503860479853  1.0000
  O   O12       1.0  0.42833117494431855  0.9865574087916258  0.21665140615781556  1.0000
  O   O13       1.0  0.6493159988133996  0.11990939479717612  0.6389961287365794  1.0000
  O   O14       1.0  0.35068398038841053  0.8800889366401775  0.3610045583633834  1.0000
  O   O15       1.0  0.3145424812643541  0.9468802992728412  0.9791004810329866  1.0000
  O   O16       1.0  0.6854567771968477  0.053120735371763296  0.020898768677135093  1.0000
  O   O17       1.0  0.5496326107637941  0.659696698093903  0.04748783897153426  1.0000
  O   O18       1.0  0.45036444917491286  0.3403088326582875  0.9525068146981468  1.0000
  O   O19       1.0  0.4873321477882017  0.8000971419814249  0.9015251383554101  1.0000
  O   O20       1.0  0.5126686045971667  0.1999056910680963  0.09847008533609623  1.0000
  O   O21       1.0  0.3048217126770254  0.154178398556418  0.8237902034117897  1.0000
  O   O22       1.0  0.6951777872527743  0.8458217363651029  0.1762099780670709  1.0000
  O   O23       1.0  0.22288553393309485  0.3174820877300705  0.865384833335071  1.0000
  O   O24       1.0  0.7771147212053935  0.6825189554793665  0.13461639044636803  1.0000
  O   O25       1.0  0.8228356172043336  0.334681206592748  0.06737906084583756  1.0000
  O   O26       1.0  0.17716610655313766  0.6653180336213964  0.9326219267952283  1.0000
  O   O27       1.0  0.7658760749591027  0.16540291746348149  0.1681783112818636  1.0000
  O   O28       1.0  0.2341244161502374  0.8345972199658932  0.8318218073937302  1.0000
  O   O29       1.0  0.31292293509714864  0.2941964580331771  0.4346117424795324  1.0000
  O   O30       1.0  0.6870753340170949  0.7058045761225671  0.5653882489920575  1.0000
  O   O31       1.0  0.5495411089278193  0.10604064720136111  0.3266752901737249  1.0000
  O   O32       1.0  0.450457189156765  0.8939639923925781  0.6733222693360119  1.0000
  O   O33       1.0  0.5565079602153702  0.14760317274635074  0.4627366575907247  1.0000
  O   O34       1.0  0.44349006926286455  0.85239876315147  0.5372630810703144  1.0000
  O   O35       1.0  0.335647535977408  0.16363940051356712  0.6264548746584283  1.0000
  O   O36       1.0  0.6643529532993496  0.8363607348968146  0.37354456505897093  1.0000
  O   O37       1.0  0.15557570712864796  0.08859019484012978  0.6849646790762735  1.0000
  O   O38       1.0  0.844423277228458  0.9114081300513845  0.3150347129105739  1.0000
  O   O39       1.0  0.6847815910755132  0.3595714639249507  0.5600275475441948  1.0000
  O   O40       1.0  0.315218901866409  0.640428675523424  0.4399732500895937  1.0000
  O   O41       1.0  0.689504914129394  0.5487542362861006  0.46267782558782505  1.0000
  O   O42       1.0  0.3104933549848496  0.45124679786964367  0.5373221658837651  1.0000
  O   O43       1.0  0.44309710214787407  0.580905390399181  0.8876401945036322  1.0000
  O   O44       1.0  0.5569043819735954  0.41909475155703996  0.11236054032688969  1.0000
  O   O45       1.0  0.47143158211627434  0.2939269782758274  0.7103257513427508  1.0000
  O   O46       1.0  0.5285691486290746  0.7060722574114706  0.28967462014339423  1.0000
