data_image0
_chemical_formula_structural       Zn2H20C30S2N2O14
_chemical_formula_sum              "Zn2 H20 C30 S2 N2 O14"
_cell_length_a       11.068366954690571
_cell_length_b       13.948686105687218
_cell_length_c       15.265438593622982
_cell_angle_alpha    89.9995498535794
_cell_angle_beta     89.92800734801143
_cell_angle_gamma    90.00135012305091

_space_group_name_H-M_alt    "P 1"
_space_group_IT_number       1

loop_
  _space_group_symop_operation_xyz
  'x, y, z'

loop_
  _atom_site_type_symbol
  _atom_site_label
  _atom_site_symmetry_multiplicity
  _atom_site_fract_x
  _atom_site_fract_y
  _atom_site_fract_z
  _atom_site_occupancy
  Zn  Zn1       1.0  0.5000034252982744  0.4007640265522099  0.49999976679909935  1.0000
  Zn  Zn2       1.0  0.5000039442026676  0.5963652451363615  0.5000038037041674  1.0000
  H   H1        1.0  0.887123248929072  0.6349509683706812  0.505304045886241  1.0000
  H   H2        1.0  0.48022843973669177  0.35985887550931045  0.7737138810960074  1.0000
  H   H3        1.0  0.4192953585893661  0.6568439161218009  0.218126681033361  1.0000
  H   H4        1.0  0.5807446883966846  0.6568384683036966  0.781876633045776  1.0000
  H   H5        1.0  0.434817572436387  0.6554204338234655  0.05590494541689137  1.0000
  H   H6        1.0  0.565247740341455  0.6554165216331074  0.9440911520575876  1.0000
  H   H7        1.0  0.3733125935870589  0.7510405651807871  0.4002431149981048  1.0000
  H   H8        1.0  0.6266944555967838  0.7510696019142953  0.599772796947043  1.0000
  H   H9        1.0  0.6381947947904506  0.06750388845750879  0.3997142681244908  1.0000
  H   H10       1.0  0.36178425233753597  0.0674968707006869  0.60027601799446  1.0000
  H   H11       1.0  0.2632169227174542  0.07332087230140157  0.4282545535564067  1.0000
  H   H12       1.0  0.11290363291527682  0.6349358932066094  0.494684989078145  1.0000
  H   H13       1.0  0.7367730930984776  0.0733397663472743  0.5717723759125942  1.0000
  H   H14       1.0  0.6349684775187754  0.2481717295194059  0.4064313264649824  1.0000
  H   H15       1.0  0.36503384299673053  0.24816843938772593  0.5935546542379624  1.0000
  H   H16       1.0  0.9099537181044041  0.4202050611004183  0.4618621493942354  1.0000
  H   H17       1.0  0.09004816312608452  0.420221996007598  0.5381726528930384  1.0000
  H   H18       1.0  0.5441888311714392  0.35886823575211935  0.06445976126128267  1.0000
  H   H19       1.0  0.45582425024976897  0.35886769598370455  0.9355400025632643  1.0000
  H   H20       1.0  0.5197656909899138  0.35985788772137545  0.22628982169480583  1.0000
  C   C1        1.0  0.4665013392439761  0.5098364630309149  0.3302277036322606  1.0000
  C   C2        1.0  0.5780174148682634  0.10474304428398538  0.4447683624174486  1.0000
  C   C3        1.0  0.42199413481023385  0.10473283002708907  0.555238067693075  1.0000
  C   C4        1.0  0.575620003880914  0.20445490521682796  0.4471752967555316  1.0000
  C   C5        1.0  0.4243875963079661  0.20445695746717257  0.5528246816369773  1.0000
  C   C6        1.0  0.4999947771728658  0.053699796611873296  0.5000046764199053  1.0000
  C   C7        1.0  0.26585521971487214  0.490208405170513  0.5249902149626988  1.0000
  C   C8        1.0  0.7341510432563396  0.49020818122426135  0.47502650469544944  1.0000
  C   C9        1.0  0.9347649059600726  0.5670806440365368  0.4957218058011889  1.0000
  C   C10       1.0  0.06526125331669158  0.567080172203653  0.5043023290639181  1.0000
  C   C11       1.0  0.8677632318669737  0.48934221088687474  0.4755699283855675  1.0000
  C   C12       1.0  0.5334954585738602  0.5098289813420182  0.669769915885112  1.0000
  C   C13       1.0  0.132216801902544  0.48934159539558664  0.5244710533626031  1.0000
  C   C14       1.0  0.5141284938997401  0.42396991460822164  0.09749896586755107  1.0000
  C   C15       1.0  0.4858879454197123  0.4239746968027589  0.902495189918241  1.0000
  C   C16       1.0  0.5018311481969917  0.4242739898783441  0.18809966502075776  1.0000
  C   C17       1.0  0.49817265023201424  0.42427139483153553  0.8118925332433944  1.0000
  C   C18       1.0  0.46934701577340826  0.5084669864037323  0.2323980718713016  1.0000
  C   C19       1.0  0.5306931173482214  0.5084576985388907  0.7675962477787406  1.0000
  C   C20       1.0  0.44587592552635863  0.5916583262716627  0.18377532577132166  1.0000
  C   C21       1.0  0.5541842572006601  0.5916476210920864  0.8162172025090936  1.0000
  C   C22       1.0  0.45613960770349854  0.590768511071559  0.09296192887537556  1.0000
  C   C23       1.0  0.4924058933395585  0.5073756354490654  0.04806262847731088  1.0000
  C   C24       1.0  0.5439160348326909  0.5907616417186077  0.9070358483497  1.0000
  C   C25       1.0  0.5076360168641187  0.5073739341884647  0.9519441423660591  1.0000
  C   C26       1.0  0.42624073024017417  0.8938407649183446  0.4428160149655937  1.0000
  C   C27       1.0  0.5737245404831696  0.8938454028812758  0.5572069884815958  1.0000
  C   C28       1.0  0.4285627195478057  0.7938069872241728  0.4445662406050415  1.0000
  C   C29       1.0  0.5714073963994223  0.7938101576757292  0.5554638707438853  1.0000
  C   C30       1.0  0.4999837177836142  0.9469903835247636  0.5000165925549138  1.0000
  S   S1        1.0  0.3302963017746308  0.9487793355191485  0.3624511510486243  1.0000
  S   S2        1.0  0.6696576290377719  0.948796035248982  0.6375676223734741  1.0000
  N   N1        1.0  0.49999668439149764  0.7457183801007546  0.5000099412327754  1.0000
  N   N2        1.0  0.5000070815391879  0.2527737438272339  0.5000119702136485  1.0000
  O   O1        1.0  0.47129067298790517  0.4291584612543745  0.3694829912800514  1.0000
  O   O2        1.0  0.2628106963180912  0.8737330151078166  0.3216379191214144  1.0000
  O   O3        1.0  0.23501329765162643  0.0069128985750311  0.42238263021377503  1.0000
  O   O4        1.0  0.5993557331046732  0.0169703075629215  0.6866200440443603  1.0000
  O   O5        1.0  0.7371540972937609  0.8737658550765559  0.6783819219443215  1.0000
  O   O6        1.0  0.7649724197435007  0.0069373815547635  0.5776689124461638  1.0000
  O   O7        1.0  0.5287159505368634  0.42914769942275643  0.6305137630507712  1.0000
  O   O8        1.0  0.4624751973360191  0.5915442747320866  0.3678631865979439  1.0000
  O   O9        1.0  0.5375262524511512  0.5915458809671179  0.6321431424619062  1.0000
  O   O10       1.0  0.3168392347386231  0.407820572182203  0.5248942886832849  1.0000
  O   O11       1.0  0.6831732030184484  0.4078256565705232  0.4751104417923812  1.0000
  O   O12       1.0  0.320346161038799  0.5708008431015656  0.5236361051619693  1.0000
  O   O13       1.0  0.6796701547301183  0.5707922143632729  0.47636836394441656  1.0000
  O   O14       1.0  0.400548023068268  0.016962867024823  0.31338106244318437  1.0000
