data_image0
_chemical_formula_structural       H8Pb2C8O10
_chemical_formula_sum              "H8 Pb2 C8 O10"
_cell_length_a       7.097010573444882
_cell_length_b       7.735357129989452
_cell_length_c       7.826641974181314
_cell_angle_alpha    79.6587298241463
_cell_angle_beta     54.84749215936496
_cell_angle_gamma    70.97113525195051

_space_group_name_H-M_alt    "P 1"
_space_group_IT_number       1

loop_
  _space_group_symop_operation_xyz
  'x, y, z'

loop_
  _atom_site_type_symbol
  _atom_site_label
  _atom_site_symmetry_multiplicity
  _atom_site_fract_x
  _atom_site_fract_y
  _atom_site_fract_z
  _atom_site_occupancy
  H   H1        1.0  0.5467019732636585  0.4740651461144125  0.02858534521347882  1.0000
  H   H2        1.0  0.21298174250759422  0.6463853640118343  0.03498079341083839  1.0000
  H   H3        1.0  0.7124919665980232  0.5032285871432052  0.09171033741994694  1.0000
  H   H4        1.0  0.31833909605249017  0.45999793561934155  0.9127315189586299  1.0000
  H   H5        1.0  0.375338705632835  0.17239478117758722  0.1206095013828943  1.0000
  H   H6        1.0  0.6662098059499753  0.8065993200563639  0.8780553866738715  1.0000
  H   H7        1.0  0.9083447085697639  0.012561625758138507  0.35271352644011245  1.0000
  H   H8        1.0  0.09698461916013208  0.9944758771959668  0.6287494096511637  1.0000
  Pb  Pb1       1.0  0.3659748728636458  0.31462678636167146  0.46148831049007544  1.0000
  Pb  Pb2       1.0  0.63748103273344  0.6844842017623307  0.5394312027172461  1.0000
  C   C1        1.0  0.3651781687668887  0.1271573376382733  0.8568199033723544  1.0000
  C   C2        1.0  0.6698168529221176  0.8541451604555519  0.14449905633970428  1.0000
  C   C3        1.0  0.44247366746672867  0.0703108978445997  0.004681016668485043  1.0000
  C   C4        1.0  0.5955347907897062  0.9091858550507936  0.9948383800378694  1.0000
  C   C5        1.0  0.8565001577106839  0.2618082996568559  0.4908664588357111  1.0000
  C   C6        1.0  0.14833000821029438  0.7458625687573458  0.48833378559054097  1.0000
  C   C7        1.0  0.9447513972381214  0.062011267500985  0.4502348275844739  1.0000
  C   C8        1.0  0.06154429766304055  0.945657265478658  0.5301494389748527  1.0000
  O   O1        1.0  0.27890376991599203  0.2993399543225905  0.844921306167663  1.0000
  O   O2        1.0  0.78635270907381  0.6864127555503712  0.13871086642097907  1.0000
  O   O3        1.0  0.39215143812842246  0.009762475352289395  0.7447247498415024  1.0000
  O   O4        1.0  0.60724337196109  0.9681955606157472  0.27921294842776945  1.0000
  O   O5        1.0  0.918473302460299  0.33521654556179215  0.5761091374786743  1.0000
  O   O6        1.0  0.08811336776817306  0.6763348790265198  0.39787919765598906  1.0000
  O   O7        1.0  0.7149560077860143  0.3572892670503549  0.4341949479683294  1.0000
  O   O8        1.0  0.2843297179086477  0.6474983521533344  0.5494763316961767  1.0000
  O   O9        1.0  0.640446358785951  0.41311760369859474  0.09099790980029342  1.0000
  O   O10       1.0  0.36405048921853456  0.5618821246717546  0.9342876079305072  1.0000
