data_image0
_chemical_formula_structural       Zn2H24C20N4O8
_chemical_formula_sum              "Zn2 H24 C20 N4 O8"
_cell_length_a       5.415575781511623
_cell_length_b       6.994288590030445
_cell_length_c       13.934502451493422
_cell_angle_alpha    89.99978939619457
_cell_angle_beta     98.41370503358259
_cell_angle_gamma    90.00030366768969

_space_group_name_H-M_alt    "P 1"
_space_group_IT_number       1

loop_
  _space_group_symop_operation_xyz
  'x, y, z'

loop_
  _atom_site_type_symbol
  _atom_site_label
  _atom_site_symmetry_multiplicity
  _atom_site_fract_x
  _atom_site_fract_y
  _atom_site_fract_z
  _atom_site_occupancy
  Zn  Zn1       1.0  0.24998394694134876  0.36252954368934814  0.250002028481596  1.0000
  Zn  Zn2       1.0  0.7499957240014509  0.6374728031853041  0.7499977785497478  1.0000
  H   H1        1.0  0.15297150848387278  0.8832396030156957  0.32569789855943293  1.0000
  H   H2        1.0  0.652970329297446  0.1167703004472287  0.8256986972081037  1.0000
  H   H3        1.0  0.8470287609640934  0.11676703311494663  0.6743017912345904  1.0000
  H   H4        1.0  0.34701881163073267  0.8832334761939437  0.1742988448323146  1.0000
  H   H5        1.0  0.9634931669851527  0.7623658673913809  0.2306493846195892  1.0000
  H   H6        1.0  0.4634982075971053  0.2376389322463623  0.7306466926914865  1.0000
  H   H7        1.0  0.03649942954468341  0.2376479173977586  0.7693541207035182  1.0000
  H   H8        1.0  0.5364908640669626  0.762361984912758  0.2693522804516917  1.0000
  H   H9        1.0  0.3827248809101961  0.3406529411030874  0.014570899338771395  1.0000
  H   H10       1.0  0.8827083900949333  0.659337604098077  0.5145734176243764  1.0000
  H   H11       1.0  0.6172977147067797  0.6593208110872908  0.985431654885069  1.0000
  H   H12       1.0  0.11728983994962051  0.3406776104418938  0.4854297304745216  1.0000
  H   H13       1.0  0.9092690860934456  0.8827345851458973  0.08244346615094862  1.0000
  H   H14       1.0  0.4092599690974695  0.1172655103678721  0.5824465253210747  1.0000
  H   H15       1.0  0.09075354420665602  0.11725632390321998  0.9175583725118912  1.0000
  H   H16       1.0  0.5907287216790209  0.8827396959716438  0.4175603188750046  1.0000
  H   H17       1.0  0.27596685677259813  0.5811816767711022  0.3958899087348868  1.0000
  H   H18       1.0  0.7759715107661407  0.4188238497014538  0.8958877145853563  1.0000
  H   H19       1.0  0.7240184823262509  0.41882638907135583  0.6041088255191269  1.0000
  H   H20       1.0  0.2240176647801633  0.5811770674668182  0.10410911190631107  1.0000
  H   H21       1.0  0.9721059675236958  0.5517706637602444  0.3595080227514416  1.0000
  H   H22       1.0  0.47211417314778725  0.44823309792705873  0.8595066237628544  1.0000
  H   H23       1.0  0.02788116862384271  0.44824026155533403  0.6404922620442193  1.0000
  H   H24       1.0  0.5278747599927129  0.5517635300059566  0.1404952115849483  1.0000
  C   C1        1.0  0.6648688486033691  0.1253433754585913  0.05653200608896468  1.0000
  C   C2        1.0  0.16488172508585563  0.8746502302326605  0.5565294893835784  1.0000
  C   C3        1.0  0.3351410292374624  0.874633236215331  0.9434625565313581  1.0000
  C   C4        1.0  0.8351493053822806  0.1253564060295602  0.44345350717564  1.0000
  C   C5        1.0  0.8411473882922706  0.26018779155874233  0.11587820655007157  1.0000
  C   C6        1.0  0.34114238447843803  0.7398160398412658  0.6158790731044803  1.0000
  C   C7        1.0  0.15884883678125314  0.7397759523987019  0.884127684339923  1.0000
  C   C8        1.0  0.6588462025272719  0.2602234802004944  0.3841299177221202  1.0000
  C   C9        1.0  0.14160967533796762  0.7554283463125132  0.2794651608896359  1.0000
  C   C10       1.0  0.641611296546536  0.24457760696136432  0.7794637759901663  1.0000
  C   C11       1.0  0.8583774608002841  0.24457971952711688  0.72053512390778  1.0000
  C   C12       1.0  0.35837397329748916  0.7554304588749974  0.22053638936485237  1.0000
  C   C13       1.0  0.43392361045330574  0.19101668978782974  0.009351524797502005  1.0000
  C   C14       1.0  0.9339154529394805  0.8089755352978686  0.5093564844649165  1.0000
  C   C15       1.0  0.5660990544463473  0.8089656408364901  0.9906495983200827  1.0000
  C   C16       1.0  0.06611094463220012  0.19103253061652484  0.49064487752171  1.0000
  C   C17       1.0  0.7291274278479278  0.9329810826823602  0.04645793817357459  1.0000
  C   C18       1.0  0.22912762755125024  0.06701000678513938  0.5464552160692193  1.0000
  C   C19       1.0  0.2708989003807005  0.06699981820442961  0.9535448549306764  1.0000
  C   C20       1.0  0.7709082746007143  0.9329894807329993  0.4535431653821007  1.0000
  N   N1        1.0  0.14152097553856888  0.5762333311198516  0.3361029038132627  1.0000
  N   N2        1.0  0.6415256616798786  0.4237735800460456  0.836100703609965  1.0000
  N   N3        1.0  0.8584642943379635  0.4237847428823259  0.6638972615356381  1.0000
  N   N4        1.0  0.3584577764741256  0.576227337100221  0.1638986267565414  1.0000
  O   O1        1.0  0.0137412936339274  0.18169897074400146  0.1771067937727793  1.0000
  O   O2        1.0  0.5137317459122245  0.8183030292097373  0.6771030359881679  1.0000
  O   O3        1.0  0.9862851385001505  0.818289078841808  0.822893852675584  1.0000
  O   O4        1.0  0.4862705976037063  0.1817064664184116  0.3228924799434835  1.0000
  O   O5        1.0  0.8158462662663697  0.43836602768925564  0.1034729152462432  1.0000
  O   O6        1.0  0.3158441146384448  0.561632085917168  0.6034685142363045  1.0000
  O   O7        1.0  0.1841408351887495  0.5616248812916353  0.8965280851121661  1.0000
  O   O8        1.0  0.6841445414874202  0.43836597172942493  0.3965390455146505  1.0000
