data_image0
_chemical_formula_structural       Cu2P4H32C34N4O12
_chemical_formula_sum              "Cu2 P4 H32 C34 N4 O12"
_cell_length_a       8.484458939438293
_cell_length_b       8.712256048742516
_cell_length_c       12.747666306304025
_cell_angle_alpha    96.10452293578379
_cell_angle_beta     107.88555197982033
_cell_angle_gamma    103.81964251459573

_space_group_name_H-M_alt    "P 1"
_space_group_IT_number       1

loop_
  _space_group_symop_operation_xyz
  'x, y, z'

loop_
  _atom_site_type_symbol
  _atom_site_label
  _atom_site_symmetry_multiplicity
  _atom_site_fract_x
  _atom_site_fract_y
  _atom_site_fract_z
  _atom_site_occupancy
  Cu  Cu1       1.0  0.6811621138278598  0.68791211248346  0.9094095590773107  1.0000
  Cu  Cu2       1.0  0.31883904289916387  0.31208709494469383  0.0905918849507401  1.0000
  P   P1        1.0  0.6491852074967853  0.46553257891039124  0.6552972306630451  1.0000
  P   P2        1.0  0.3508180594975627  0.5344654207181849  0.3447037808426998  1.0000
  P   P3        1.0  0.31930733671156025  0.435881281871346  0.862517117816722  1.0000
  P   P4        1.0  0.6806949212182334  0.564121530925057  0.13748401017608816  1.0000
  H   H1        1.0  0.434107023025959  0.3488874684060336  0.49204616619296354  1.0000
  H   H2        1.0  0.5658953744880864  0.6511117519946057  0.5079563178821402  1.0000
  H   H3        1.0  0.5160273193184962  0.36309458089368724  0.8084765588611944  1.0000
  H   H4        1.0  0.4839714979622159  0.6369010273668182  0.19152573193194664  1.0000
  H   H5        1.0  0.3837642678355523  0.7916036834115875  0.7711337857699334  1.0000
  H   H6        1.0  0.616228711729832  0.20839305538488165  0.2288626758505359  1.0000
  H   H7        1.0  0.3498436454175007  0.9803839089753906  0.6321422941146507  1.0000
  H   H8        1.0  0.6501508388425634  0.0196055429635393  0.36784849505604456  1.0000
  H   H9        1.0  0.6098517450711398  0.12098027823078181  0.5914079608497573  1.0000
  H   H10       1.0  0.39014361502791667  0.8790080008687938  0.4085852826938279  1.0000
  H   H11       1.0  0.8971540005609028  0.08906488552228348  0.6974101725491337  1.0000
  H   H12       1.0  0.10284095986145302  0.910934314562688  0.3025907835743453  1.0000
  H   H13       1.0  0.1342104136653788  0.0652174561986172  0.8100286189938685  1.0000
  H   H14       1.0  0.8657925817908918  0.9347877857407243  0.189974392677982  1.0000
  H   H15       1.0  0.38507779477939863  0.9920989272486908  0.9273936826274891  1.0000
  H   H16       1.0  0.6149207471480196  0.007903894562964801  0.07260825216640404  1.0000
  H   H17       1.0  0.33813214663692287  0.7745715033279907  0.04133268699619211  1.0000
  H   H18       1.0  0.661868136794581  0.2254288961126036  0.9586678734358711  1.0000
  H   H19       1.0  0.03536391806458999  0.655711845757118  0.03877930073370812  1.0000
  H   H20       1.0  0.9646354920713948  0.3442897456959245  0.9612203761023606  1.0000
  H   H21       1.0  0.8868731233204772  0.23276836277275245  0.3539174718610313  1.0000
  H   H22       1.0  0.1131354692264992  0.7672308553845327  0.6460847147302076  1.0000
  H   H23       1.0  0.9629701266002968  0.0832836209617369  0.42223307972012947  1.0000
  H   H24       1.0  0.03704044298843466  0.916718029724436  0.5777712452087513  1.0000
  H   H25       1.0  0.11197250882001702  0.25875810702877544  0.4138929666924653  1.0000
  H   H26       1.0  0.8880359505013902  0.741244751456975  0.5861117907587285  1.0000
  H   H27       1.0  0.24413022760796105  0.2899546991709485  0.628247350723278  1.0000
  H   H28       1.0  0.7558752443353995  0.7100505303672051  0.3717545994888809  1.0000
  H   H29       1.0  0.9821451745370741  0.49453221114325197  0.8232661567920231  1.0000
  H   H30       1.0  0.017849414578570616  0.5054657551971715  0.1767322867150227  1.0000
  H   H31       1.0  0.7323549208765526  0.32731863055161636  0.4668301150878733  1.0000
  H   H32       1.0  0.26764724109981586  0.6726757349490882  0.5331688562877517  1.0000
  C   C1        1.0  0.4926412841306843  0.8634705781867356  0.7527824030231115  1.0000
  C   C2        1.0  0.5073533024414871  0.1365273689806017  0.2472144697070249  1.0000
  C   C3        1.0  0.4755578973124912  0.9647449266511925  0.675265178100993  1.0000
  C   C4        1.0  0.5244396728225171  0.0352506207041259  0.3247321457028249  1.0000
  C   C5        1.0  0.6217134116541275  0.0440035150225171  0.6533117421296809  1.0000
  C   C6        1.0  0.3782841584808807  0.9559920323328015  0.34668558167413716  1.0000
  C   C7        1.0  0.7815765269779078  0.0261276615057966  0.712718624036718  1.0000
  C   C8        1.0  0.21842201622124693  0.9738751698923948  0.2872840961456263  1.0000
  C   C9        1.0  0.7905504322050803  0.926111283734862  0.7914418154870047  1.0000
  C   C10       1.0  0.20944934669414292  0.0738915222896495  0.20855880318858766  1.0000
  C   C11       1.0  0.9503160168368654  0.8955912395951559  0.8588722252994074  1.0000
  C   C12       1.0  0.0496809168120365  0.10441036425908122  0.14112851299636017  1.0000
  C   C13       1.0  0.1152339985229531  0.9728324798676624  0.8596652454546356  1.0000
  C   C14       1.0  0.8847673911982668  0.027171563287353696  0.14033814049599871  1.0000
  C   C15       1.0  0.2565014848352334  0.9314882277540449  0.9264760036253887  1.0000
  C   C16       1.0  0.7434977908034527  0.06851699444092672  0.07352545868219096  1.0000
  C   C17       1.0  0.23151799368208265  0.8136916831756836  0.9906474434952273  1.0000
  C   C18       1.0  0.7684814177256385  0.1863099178639018  0.009353018729299813  1.0000
  C   C19       1.0  0.06413016801719353  0.7445246115981805  0.9882175225238966  1.0000
  C   C20       1.0  0.9358692433905347  0.2554769894414052  0.011782939700630398  1.0000
  C   C21       1.0  0.9871362800321535  0.21420673521703293  0.4254512018878529  1.0000
  C   C22       1.0  0.012869467264493992  0.7857912807699777  0.5745511043235538  1.0000
  C   C23       1.0  0.9872174859626027  0.2975260845936207  0.535052280163427  1.0000
  C   C24       1.0  0.01278490773622567  0.7024731070474036  0.46494784774632336  1.0000
  C   C25       1.0  0.13128856841483844  0.32554867295108647  0.6332599356670626  1.0000
  C   C26       1.0  0.8687140570064501  0.6744553448302498  0.3667413487768201  1.0000
  C   C27       1.0  0.132416537827595  0.39976102344482467  0.7367031110924103  1.0000
  C   C28       1.0  0.8675855856048927  0.6002454200935008  0.263299802371904  1.0000
  C   C29       1.0  0.9858739782396813  0.4428549631951669  0.7427504476384996  1.0000
  C   C30       1.0  0.014120610875956207  0.5571430031452564  0.2572479958685463  1.0000
  C   C31       1.0  0.8411731816325982  0.41579247457524093  0.6459628360903622  1.0000
  C   C32       1.0  0.1588281966429862  0.5842114823009015  0.3540334813641977  1.0000
  C   C33       1.0  0.8445623281667382  0.3461455616651179  0.5425418052100213  1.0000
  C   C34       1.0  0.15544057006437131  0.653851223391989  0.4574582644562  1.0000
  N   N1        1.0  0.6464273836210382  0.8454938595291142  0.8091621642811617  1.0000
  N   N2        1.0  0.35357115449117066  0.15450893352291226  0.19083741434737791  1.0000
  N   N3        1.0  0.9281298515997921  0.78499756680187  0.924121760897279  1.0000
  N   N4        1.0  0.0718683202926513  0.21500403085176603  0.0758784466686393  1.0000
  O   O1        1.0  0.646870741693661  0.6256293904920583  0.6188805306690526  1.0000
  O   O2        1.0  0.353133764815972  0.37436861252245995  0.3811207354952941  1.0000
  O   O3        1.0  0.4899954645733473  0.3242915018181877  0.5722686744758292  1.0000
  O   O4        1.0  0.5100060583734419  0.6757089010083632  0.42773214061483594  1.0000
  O   O5        1.0  0.6539288594999775  0.46013185958032926  0.775807400180021  1.0000
  O   O6        1.0  0.3460722946835729  0.5398673286747453  0.2241924730711276  1.0000
  O   O7        1.0  0.43195433765050956  0.6097302394900412  0.8812152605206618  1.0000
  O   O8        1.0  0.5680454399769773  0.3902725569479344  0.1187845727664865  1.0000
  O   O9        1.0  0.41901553355184273  0.3110451650615644  0.8397657276967223  1.0000
  O   O10       1.0  0.5809847498796614  0.6889552343790373  0.16023483273534112  1.0000
  O   O11       1.0  0.2454748818900612  0.3992571920010519  0.9552227545115812  1.0000
  O   O12       1.0  0.754525769032945  0.6007444124244757  0.044777962371554784  1.0000
