data_image0
_chemical_formula_structural       Na2H16C4O10
_chemical_formula_sum              "Na2 H16 C4 O10"
_cell_length_a       5.396134006709977
_cell_length_b       6.614972837855683
_cell_length_c       8.996567197998758
_cell_angle_alpha    98.05913131623136
_cell_angle_beta     102.40448196989773
_cell_angle_gamma    109.5326215034364

_space_group_name_H-M_alt    "P 1"
_space_group_IT_number       1

loop_
  _space_group_symop_operation_xyz
  'x, y, z'

loop_
  _atom_site_type_symbol
  _atom_site_label
  _atom_site_symmetry_multiplicity
  _atom_site_fract_x
  _atom_site_fract_y
  _atom_site_fract_z
  _atom_site_occupancy
  Na  Na1       1.0  0.163898386983  0.36310803040832695  0.902623017295582  1.0000
  Na  Na2       1.0  0.8360899428462787  0.6368809156408377  0.09737272283334159  1.0000
  H   H1        1.0  0.21335616437887242  0.23272089266468038  0.5825766829396954  1.0000
  H   H2        1.0  0.7866754920107653  0.7672962225755597  0.4174251141424037  1.0000
  H   H3        1.0  0.26268772113960637  0.03384411510054262  0.4481573262724154  1.0000
  H   H4        1.0  0.7373322497372143  0.9661682349314659  0.5518569590010713  1.0000
  H   H5        1.0  0.7861358905982171  0.14705130597172197  0.06989556084961626  1.0000
  H   H6        1.0  0.2138535466932865  0.8529441664690295  0.9300976108117921  1.0000
  H   H7        1.0  0.5954403519470618  0.1778816730197406  0.9257377020021592  1.0000
  H   H8        1.0  0.4045430359408187  0.8221089046220699  0.07425866809330729  1.0000
  H   H9        1.0  0.021921581509936224  0.5556214148447866  0.666533649796726  1.0000
  H   H10       1.0  0.9780899593336231  0.44438085815488654  0.3334685808960884  1.0000
  H   H11       1.0  0.788809881658189  0.3396812850162548  0.5592290863009097  1.0000
  H   H12       1.0  0.21120692578907105  0.6603241797397955  0.4407663474713813  1.0000
  H   H13       1.0  0.5055390949582446  0.33060546602773405  0.22538348916626208  1.0000
  H   H14       1.0  0.494453815364416  0.6693851880522956  0.7746152282217621  1.0000
  H   H15       1.0  0.33473303137722615  0.48271149439783306  0.23563075645596138  1.0000
  H   H16       1.0  0.6652610070784418  0.5172774865484087  0.7643657234151959  1.0000
  C   C1        1.0  0.1565604533381446  0.0558936141331046  0.5368378362534258  1.0000
  C   C2        1.0  0.8434484536764445  0.9441153082048075  0.46317024792110567  1.0000
  C   C3        1.0  0.23834857086918518  0.9529093514507211  0.66993316133631  1.0000
  C   C4        1.0  0.7616610429265124  0.0470928550873282  0.3300654796092317  1.0000
  O   O1        1.0  0.23921618279306497  0.0367056989095289  0.8063872153192547  1.0000
  O   O2        1.0  0.7607691633183085  0.9633015087324425  0.1936221121217514  1.0000
  O   O3        1.0  0.29113163493172317  0.7793270437110918  0.6371136607339806  1.0000
  O   O4        1.0  0.7088753324216909  0.2206900299669954  0.3628916171314742  1.0000
  O   O5        1.0  0.7828574367156875  0.24611957666985518  0.996415437508773  1.0000
  O   O6        1.0  0.21711757648697033  0.7538775423074214  0.003581588770806823  1.0000
  O   O7        1.0  0.8695240756070743  0.4239155110033154  0.67074501366897  1.0000
  O   O8        1.0  0.13047639331679056  0.5760833160258443  0.32924990153603767  1.0000
  O   O9        1.0  0.4364064059878672  0.4279544570281359  0.17004738473644207  1.0000
  O   O10       1.0  0.5635815588917695  0.5720295742898998  0.8299489504022473  1.0000
