data_image0
_chemical_formula_structural       Cu2Mo2As2H16C24N4O12F2
_chemical_formula_sum              "Cu2 Mo2 As2 H16 C24 N4 O12 F2"
_cell_length_a       8.525234851125262
_cell_length_b       8.569741262657569
_cell_length_c       11.118437120372912
_cell_angle_alpha    68.93783665656323
_cell_angle_beta     89.35190634946973
_cell_angle_gamma    68.33470479501315

_space_group_name_H-M_alt    "P 1"
_space_group_IT_number       1

loop_
  _space_group_symop_operation_xyz
  'x, y, z'

loop_
  _atom_site_type_symbol
  _atom_site_label
  _atom_site_symmetry_multiplicity
  _atom_site_fract_x
  _atom_site_fract_y
  _atom_site_fract_z
  _atom_site_occupancy
  Cu  Cu1       1.0  0.9101891018539735  0.4721779783843872  0.7863597204746139  1.0000
  Cu  Cu2       1.0  0.08980825908137999  0.5278246640640843  0.21364060679693603  1.0000
  Mo  Mo1       1.0  0.5184781714264163  0.271281777881839  0.09223929089584708  1.0000
  Mo  Mo2       1.0  0.48152371031753194  0.7287181387869027  0.9077608662627339  1.0000
  As  As1       1.0  0.14972866218352732  0.5995261037455746  0.9135308119740698  1.0000
  As  As2       1.0  0.8502710513293367  0.40047653217474977  0.0864686035500242  1.0000
  H   H1        1.0  0.8713841952902545  0.10935674275360441  0.9445395113050237  1.0000
  H   H2        1.0  0.12861550260576135  0.8906459024419962  0.05546259998298798  1.0000
  H   H3        1.0  0.7630110446038928  0.9103611843221344  0.8823456297291512  1.0000
  H   H4        1.0  0.23699752617972786  0.08963328731530851  0.11765509895094074  1.0000
  H   H5        1.0  0.6550186642287346  0.00021955944516349992  0.6497692535748952  1.0000
  H   H6        1.0  0.34499009610693326  0.9997776218239381  0.3502289231352903  1.0000
  H   H7        1.0  0.5954256497134696  0.23973922607195422  0.4107873315926794  1.0000
  H   H8        1.0  0.40457956874189455  0.7602579727187757  0.5892144592086127  1.0000
  H   H9        1.0  0.6018118036255516  0.5279100799194865  0.2607654829853772  1.0000
  H   H10       1.0  0.3981946093382194  0.4720871047860058  0.7392327068842872  1.0000
  H   H11       1.0  0.6875885559914826  0.8008250335278218  0.22254245761874356  1.0000
  H   H12       1.0  0.3124112965123373  0.19917081199542963  0.777458841600385  1.0000
  H   H13       1.0  0.8092692235037121  0.958495665498823  0.32177111212213555  1.0000
  H   H14       1.0  0.19072529799279894  0.0415083360609643  0.6782279556138064  1.0000
  H   H15       1.0  0.9093663839310651  0.8189102178865827  0.5639935719901883  1.0000
  H   H16       1.0  0.09063099262114355  0.18109241528659936  0.43600405951744375  1.0000
  C   C1        1.0  0.826533036647966  0.14284539338741814  0.8437217388345102  1.0000
  C   C2        1.0  0.1734700187819342  0.8571545215631318  0.15627841174433127  1.0000
  C   C3        1.0  0.7641576769814479  0.033304978768093504  0.8071770860012747  1.0000
  C   C4        1.0  0.23585009401469406  0.9666949169426359  0.1928194439067141  1.0000
  C   C5        1.0  0.7059748446807178  0.08369405188937408  0.6777320426512431  1.0000
  C   C6        1.0  0.2940355605853853  0.9163017843536493  0.32227099452617824  1.0000
  C   C7        1.0  0.7092102881309688  0.24529841348216053  0.5836881261154685  1.0000
  C   C8        1.0  0.29079326457149085  0.7547001427017008  0.4163123985704757  1.0000
  C   C9        1.0  0.6480297799494253  0.31513017191188186  0.4474819009786869  1.0000
  C   C10       1.0  0.3519726340113393  0.6848778952941857  0.5525168903859875  1.0000
  C   C11       1.0  0.6520523978158651  0.47547755642670353  0.36339234538817056  1.0000
  C   C12       1.0  0.3479548149353919  0.5245142042055021  0.63661004325359  1.0000
  C   C13       1.0  0.7195932409618492  0.5787947956203326  0.4076114616786127  1.0000
  C   C14       1.0  0.2804108090131834  0.42120240179683327  0.5923894371144411  1.0000
  C   C15       1.0  0.7736433855649878  0.34688726464115394  0.6295703467151481  1.0000
  C   C16       1.0  0.22635966465929167  0.6531126534011518  0.37043070245166376  1.0000
  C   C17       1.0  0.7790572801895195  0.5131148393590478  0.5416279439983923  1.0000
  C   C18       1.0  0.22094458593757338  0.48688508658497653  0.4583749089241066  1.0000
  C   C19       1.0  0.7315348953524393  0.7432053799420402  0.3269003760600879  1.0000
  C   C20       1.0  0.2684669759802746  0.256794542910221  0.6731015782744335  1.0000
  C   C21       1.0  0.7983189689965542  0.831584127251283  0.3816602455378869  1.0000
  C   C22       1.0  0.20167891523945514  0.16841714097169103  0.6183359629009002  1.0000
  C   C23       1.0  0.853527719491524  0.7567285299557013  0.5162188375843398  1.0000
  C   C24       1.0  0.14647316770729196  0.2432741042464244  0.4837805713600145  1.0000
  N   N1        1.0  0.8313636411309061  0.2951507165544385  0.7567307661476333  1.0000
  N   N2        1.0  0.16863606717634388  0.7048519224576423  0.2432695479644308  1.0000
  N   N3        1.0  0.8435894053310166  0.6015307026669562  0.5935803811515398  1.0000
  N   N4        1.0  0.15640963697408952  0.39847057311310863  0.4064185164714258  1.0000
  O   O1        1.0  0.4485979556910137  0.21536548282566062  0.2417894711344885  1.0000
  O   O2        1.0  0.5513992417203752  0.7846344345323432  0.7582089151671026  1.0000
  O   O3        1.0  0.5972543796760449  0.0738209664479754  0.06595667762343277  1.0000
  O   O4        1.0  0.402744165356495  0.9261816680987777  0.9340418458924301  1.0000
  O   O5        1.0  0.29940202912526814  0.3753283837310732  0.9780208865593065  1.0000
  O   O6        1.0  0.7005995292813053  0.6246756106113053  0.02197904028617603  1.0000
  O   O7        1.0  0.021404462035086166  0.6325235958103052  0.7829950711751008  1.0000
  O   O8        1.0  0.9785940829974464  0.36747903873644827  0.21700345234076213  1.0000
  O   O9        1.0  0.03643521417432534  0.6623775708901292  0.027435075478834343  1.0000
  O   O10       1.0  0.9635671596365754  0.3376209901036801  0.9725663543748266  1.0000
  O   O11       1.0  0.25955347329691136  0.7392219060452734  0.8436988851155715  1.0000
  O   O12       1.0  0.7404472347610921  0.2607780123416675  0.1563012786227417  1.0000
  F   F1        1.0  0.5751536208981635  0.442891824157833  0.9168201213234252  1.0000
  F   F2        1.0  0.4248492605965383  0.5571053718857683  0.08317988546139793  1.0000
