data_image0
_chemical_formula_structural       Cu3H16C8S2Cl6O2
_chemical_formula_sum              "Cu3 H16 C8 S2 Cl6 O2"
_cell_length_a       7.2698418236988145
_cell_length_b       7.787194989099262
_cell_length_c       9.348338006268266
_cell_angle_alpha    66.59587007101496
_cell_angle_beta     73.22427094101047
_cell_angle_gamma    67.69243681019378

_space_group_name_H-M_alt    "P 1"
_space_group_IT_number       1

loop_
  _space_group_symop_operation_xyz
  'x, y, z'

loop_
  _atom_site_type_symbol
  _atom_site_label
  _atom_site_symmetry_multiplicity
  _atom_site_fract_x
  _atom_site_fract_y
  _atom_site_fract_z
  _atom_site_occupancy
  Cu  Cu1       1.0  0.8566101192560325  0.07943148704934798  0.3556522671596482  1.0000
  Cu  Cu2       1.0  0.14256505966489633  0.9208575615602825  0.6455973692735028  1.0000
  Cu  Cu3       1.0  0.0004344432232699192  0.9996073307001507  0.9991956472593059  1.0000
  H   H1        1.0  0.14166937887424771  0.5499819697374734  0.31878965072157667  1.0000
  H   H2        1.0  0.8580806114064284  0.45093280020773097  0.6807936846642448  1.0000
  H   H3        1.0  0.12635532462238064  0.5217834386188044  0.14257156232117293  1.0000
  H   H4        1.0  0.8738631883559833  0.4775448412638781  0.8575740842133894  1.0000
  H   H5        1.0  0.32944760793108674  0.20628803701040246  0.309176813829758  1.0000
  H   H6        1.0  0.6695210381342634  0.7938999165978158  0.6923238346876629  1.0000
  H   H7        1.0  0.488589497125318  0.30240755213470283  0.13146983624203298  1.0000
  H   H8        1.0  0.5111279701128594  0.696109702685625  0.8698757663588946  1.0000
  H   H9        1.0  0.717124240001773  0.5060818481350325  0.11591726665559302  1.0000
  H   H10       1.0  0.28321002436502596  0.4929901036925841  0.8845822336799997  1.0000
  H   H11       1.0  0.7119261450942886  0.5730152699294989  0.2790080714817121  1.0000
  H   H12       1.0  0.28775564634841533  0.42735377944252645  0.7210013852919132  1.0000
  H   H13       1.0  0.48256992731327836  0.8417903170448395  0.09523893693651073  1.0000
  H   H14       1.0  0.5184054404737638  0.15767222716579  0.9033714606869264  1.0000
  H   H15       1.0  0.3472315702732444  0.7543353038516685  0.287938032675619  1.0000
  H   H16       1.0  0.6528120939479151  0.24698778232592392  0.7106117792285997  1.0000
  C   C1        1.0  0.3946651553953017  0.326786228697216  0.24101396425711374  1.0000
  C   C2        1.0  0.6048827612100139  0.6729312418412688  0.7599072766072437  1.0000
  C   C3        1.0  0.2292231136374808  0.5230786406551715  0.2079149878461236  1.0000
  C   C4        1.0  0.770829006183149  0.4768220786844635  0.7920839160676321  1.0000
  C   C5        1.0  0.4348565658626031  0.7156419671655098  0.18171634752513194  1.0000
  C   C6        1.0  0.5654965503255268  0.2844157606736885  0.817421384379358  1.0000
  C   C7        1.0  0.6223392280868084  0.5416077045773163  0.22139139912167136  1.0000
  C   C8        1.0  0.3776140639730911  0.45832778567818605  0.7787118009926883  1.0000
  S   S1        1.0  0.5530920404064972  0.3254760485008176  0.359168332243847  1.0000
  S   S2        1.0  0.44638801105779885  0.6748541103050766  0.6415096018901281  1.0000
  Cl  Cl1       1.0  0.9557672887748294  0.2221093876480538  0.4827978480187696  1.0000
  Cl  Cl2       1.0  0.04433164466369983  0.7784344889939592  0.5172954692474575  1.0000
  Cl  Cl3       1.0  0.7763876900150491  0.9218998266914084  0.23317025909012276  1.0000
  Cl  Cl4       1.0  0.22437173657770157  0.07955329010391668  0.7658519005180864  1.0000
  Cl  Cl5       1.0  0.08466439817043889  0.17968587596903518  0.09681665207830287  1.0000
  Cl  Cl6       1.0  0.9153003787904693  0.8198391957024924  0.9031610272082202  1.0000
  O   O1        1.0  0.3081692314034539  0.6830153672195183  0.108352668558858  1.0000
  O   O2        1.0  0.6923227917789915  0.31644777894332066  0.8910324290315685  1.0000
