data_image0
_chemical_formula_structural       Cu6H56W2C56S6I2N16O2
_chemical_formula_sum              "Cu6 H56 W2 C56 S6 I2 N16 O2"
_cell_length_a       10.498182246729518
_cell_length_b       12.522953274969863
_cell_length_c       17.215651253134308
_cell_angle_alpha    70.94005461097854
_cell_angle_beta     88.20563827779019
_cell_angle_gamma    76.78249461696734

_space_group_name_H-M_alt    "P 1"
_space_group_IT_number       1

loop_
  _space_group_symop_operation_xyz
  'x, y, z'

loop_
  _atom_site_type_symbol
  _atom_site_label
  _atom_site_symmetry_multiplicity
  _atom_site_fract_x
  _atom_site_fract_y
  _atom_site_fract_z
  _atom_site_occupancy
  Cu  Cu1       1.0  0.29080709417407036  0.8248906409676451  0.16848655507946123  1.0000
  Cu  Cu2       1.0  0.7091847014953814  0.17511459620600792  0.8315107802938828  1.0000
  Cu  Cu3       1.0  0.9951315598047971  0.7357904410354335  0.28521477114654215  1.0000
  Cu  Cu4       1.0  0.00486535957004012  0.26420957590505617  0.7147825050398143  1.0000
  Cu  Cu5       1.0  0.9775183677390944  0.7702245386376988  0.08523556102906588  1.0000
  Cu  Cu6       1.0  0.022478567548340316  0.2297754662506648  0.9147628793958734  1.0000
  H   H1        1.0  0.5404062238455367  0.936897856551319  0.20042514094423325  1.0000
  H   H2        1.0  0.45959207315281253  0.06309690816295437  0.7995773984113301  1.0000
  H   H3        1.0  0.24547318063458332  0.05886268671928718  0.01075316067429101  1.0000
  H   H4        1.0  0.7545390428488332  0.9411407391876097  0.9892400587418639  1.0000
  H   H5        1.0  0.4201827252803909  0.20446918860250207  0.9743143533490941  1.0000
  H   H6        1.0  0.5798338186559349  0.7955289081364326  0.02568988796726761  1.0000
  H   H7        1.0  0.6372371754998483  0.18914917831385478  0.03434442619713002  1.0000
  H   H8        1.0  0.3627822485294985  0.8108376179447558  0.9656635540818503  1.0000
  H   H9        1.0  0.7121440772778342  0.0599436698402798  0.11218313538294927  1.0000
  H   H10       1.0  0.2878606693392741  0.9400448862446353  0.8878305822872224  1.0000
  H   H11       1.0  0.8175857931317694  0.1716931886047419  0.17269342103445245  1.0000
  H   H12       1.0  0.1824223320599145  0.8283006039566345  0.8273137651247002  1.0000
  H   H13       1.0  0.7989944994757963  0.2825923929961789  0.27056648673154643  1.0000
  H   H14       1.0  0.20101014279542545  0.7174075131746063  0.7294370262018649  1.0000
  H   H15       1.0  0.3780341010923323  0.3398718422826761  0.2544217960578977  1.0000
  H   H16       1.0  0.6219676619998753  0.6601280926213633  0.7455806150988596  1.0000
  H   H17       1.0  0.3970618304783358  0.23074927241501797  0.1563779547196306  1.0000
  H   H18       1.0  0.6029458222450187  0.7692462809318599  0.8436265068509673  1.0000
  H   H19       1.0  0.34011957435065904  0.5581274942234487  0.2646032116049924  1.0000
  H   H20       1.0  0.6598726126949757  0.4418725203886212  0.7353970792810431  1.0000
  H   H21       1.0  0.6150918226017339  0.7628358257134309  0.17208149021017508  1.0000
  H   H22       1.0  0.38488797439786987  0.23716777116812435  0.8279141834657653  1.0000
  H   H23       1.0  0.7493049264967697  0.5404181742932009  0.26189394882242584  1.0000
  H   H24       1.0  0.25068788081807725  0.4595905371743497  0.7381013884482645  1.0000
  H   H25       1.0  0.4929746240369682  0.3779945499737067  0.366214319319788  1.0000
  H   H26       1.0  0.5070235909552212  0.6220080247115475  0.6337858137739476  1.0000
  H   H27       1.0  0.6642901962844122  0.36680132496567114  0.36497567907520095  1.0000
  H   H28       1.0  0.3357108158806171  0.6332090309573032  0.6350231495333534  1.0000
  H   H29       1.0  0.9002828818147608  0.507565615049927  0.38377354112826384  1.0000
  H   H30       1.0  0.09971672028640907  0.49243522341975426  0.6162263851369192  1.0000
  H   H31       1.0  0.910787086870414  0.8037450447656979  0.4464571656702464  1.0000
  H   H32       1.0  0.0892079967959987  0.19625845109769097  0.5535393391139751  1.0000
  H   H33       1.0  0.8091548603647639  0.6492998199417243  0.5764780248361918  1.0000
  H   H34       1.0  0.19084215601482415  0.3507036467227208  0.423520184664618  1.0000
  H   H35       1.0  0.8006621717821931  0.43390671560852206  0.6032889306792062  1.0000
  H   H36       1.0  0.1993346242758208  0.5660976193965508  0.3967090807659021  1.0000
  H   H37       1.0  0.8322958563787567  0.37826692313540616  0.5213461874039712  1.0000
  H   H38       1.0  0.16770498564567768  0.6217365152614673  0.478652520933551  1.0000
  H   H39       1.0  0.6159472141520438  0.3169632338609531  0.6055488769091899  1.0000
  H   H40       1.0  0.38405361195979293  0.6830402165880398  0.39444866718974253  1.0000
  H   H41       1.0  0.6210857269094275  0.6485881178417613  0.4244625968120348  1.0000
  H   H42       1.0  0.3789148788808419  0.35141620094786674  0.5755347492312028  1.0000
  H   H43       1.0  0.8802630317374633  0.5363631412934923  0.12401644542579503  1.0000
  H   H44       1.0  0.11973058372782228  0.46363862900939523  0.8759804971110942  1.0000
  H   H45       1.0  0.9255023082373416  0.791680050724345  0.9004095646074082  1.0000
  H   H46       1.0  0.07450619547628182  0.2083155754009596  0.09958730859174386  1.0000
  H   H47       1.0  0.8306486388136137  0.6184127216750284  0.8663433140885676  1.0000
  H   H48       1.0  0.169362230300024  0.38158114459614006  0.13365507781927738  1.0000
  H   H49       1.0  0.8228052743566748  0.38486611943260834  0.07122535764167993  1.0000
  H   H50       1.0  0.1771925994403035  0.6151338919475008  0.9287718977240264  1.0000
  H   H51       1.0  0.8250568224706359  0.40768911798379287  0.9642675435003769  1.0000
  H   H52       1.0  0.17493652340611027  0.5923100347793949  0.035731760382120094  1.0000
  H   H53       1.0  0.6126063208100804  0.5691027542637952  0.09248735597616088  1.0000
  H   H54       1.0  0.38738917810140805  0.4308955009598137  0.9075138506786193  1.0000
  H   H55       1.0  0.6299477276098531  0.38892835402060644  0.9164304852230036  1.0000
  H   H56       1.0  0.37004653137837823  0.6110673012758098  0.08357193935944453  1.0000
  W   W1        1.0  0.03274402189946109  0.9135636445292832  0.15743046435441246  1.0000
  W   W2        1.0  0.9672505639005566  0.0864381081611043  0.8425676216004239  1.0000
  C   C1        1.0  0.4820109230468788  0.9878295982370133  0.1441622457870366  1.0000
  C   C2        1.0  0.5179905227190105  0.012167755283705596  0.8558390339995727  1.0000
  C   C3        1.0  0.33262885928242275  0.054646779327576694  0.044818212731613016  1.0000
  C   C4        1.0  0.6673783543269635  0.9453540327372636  0.9551798006105376  1.0000
  C   C5        1.0  0.4176321338858102  0.12717503143888106  0.02571736425075241  1.0000
  C   C6        1.0  0.5823796140709306  0.8728231111801247  0.974285234810957  1.0000
  C   C7        1.0  0.6238238703054578  0.13115197247894633  0.09597010679576103  1.0000
  C   C8        1.0  0.3761866123299456  0.868840066254343  0.9040380159527862  1.0000
  C   C9        1.0  0.6084642173707876  0.19548737584331377  0.1573726382763924  1.0000
  C   C10       1.0  0.3915417786550536  0.8045072961794373  0.8426343914683588  1.0000
  C   C11       1.0  0.7213528619197476  0.20999720320043735  0.19018359341297505  1.0000
  C   C12       1.0  0.278655556729369  0.7899991888224492  0.8098229777584511  1.0000
  C   C13       1.0  0.7104295204014547  0.2716310110387212  0.2453781756071437  1.0000
  C   C14       1.0  0.2895751950056181  0.728372362934209  0.7546245242828465  1.0000
  C   C15       1.0  0.5873795284514643  0.3184830262267795  0.2692855656935792  1.0000
  C   C16       1.0  0.41262251218557827  0.6815195201909033  0.7307150662368687  1.0000
  C   C17       1.0  0.4749357113706625  0.3030061409106749  0.2368880630640363  1.0000
  C   C18       1.0  0.5250658886232317  0.6969981421882634  0.7631121727550156  1.0000
  C   C19       1.0  0.48544933694640235  0.24202234588759805  0.18130459729682263  1.0000
  C   C20       1.0  0.514557565763795  0.7579723567311515  0.81869891891153  1.0000
  C   C21       1.0  0.4321702424739658  0.5853867922810778  0.251932709965388  1.0000
  C   C22       1.0  0.5678226134926804  0.41461061128303794  0.7480687572070227  1.0000
  C   C23       1.0  0.5768590013447509  0.6877262217225422  0.20459025182173468  1.0000
  C   C24       1.0  0.4231291079092686  0.3122747136019726  0.7954070136947211  1.0000
  C   C25       1.0  0.6450508009293543  0.5777250908678369  0.2493859810164524  1.0000
  C   C26       1.0  0.3549414512958364  0.422278397572441  0.7506129147068639  1.0000
  C   C27       1.0  0.575135527773682  0.3900788453797261  0.3257530625945579  1.0000
  C   C28       1.0  0.4248636575532387  0.6099237116930213  0.6742482139171175  1.0000
  C   C29       1.0  0.8866269597306909  0.5692546833330778  0.41700323551405943  1.0000
  C   C30       1.0  0.11337123139260541  0.43074790943035873  0.5829951512217948  1.0000
  C   C31       1.0  0.8915891608416827  0.7200877812972452  0.45242095714922953  1.0000
  C   C32       1.0  0.10840615905890161  0.27991483417338964  0.5475769099292693  1.0000
  C   C33       1.0  0.8397038695860745  0.6462892231265157  0.516329173946737  1.0000
  C   C34       1.0  0.160297641359378  0.3537116042224114  0.48367071067716  1.0000
  C   C35       1.0  0.7801669533690897  0.45475656273562476  0.5369793762674534  1.0000
  C   C36       1.0  0.21983219217634814  0.5452460244674383  0.46301898964775773  1.0000
  C   C37       1.0  0.635025759299225  0.4800961754344397  0.5171797263740106  1.0000
  C   C38       1.0  0.3649760291910482  0.5199072634281166  0.48281837902357  1.0000
  C   C39       1.0  0.5652351568458301  0.39719406733286156  0.5589262992163386  1.0000
  C   C40       1.0  0.43476683605342015  0.602808515241193  0.4410708399983536  1.0000
  C   C41       1.0  0.5686093186864696  0.583108068942245  0.4581382804393715  1.0000
  C   C42       1.0  0.4313906818331646  0.4168988126868385  0.5418625462718298  1.0000
  C   C43       1.0  0.8762641957483839  0.5850203386900643  0.05883721780414672  1.0000
  C   C44       1.0  0.12373293599172545  0.4149788159358534  0.9411596743186057  1.0000
  C   C45       1.0  0.899581469000772  0.7138796018966359  0.941154549117471  1.0000
  C   C46       1.0  0.10042045871892213  0.2861195068492107  0.05884398525993363  1.0000
  C   C47       1.0  0.8516050958166163  0.6306189561807685  0.9237661368751025  1.0000
  C   C48       1.0  0.14839991549106915  0.36937926754331574  0.07623253309606785  1.0000
  C   C49       1.0  0.785125317203395  0.4474291591072658  0.010676463877828696  1.0000
  C   C50       1.0  0.21487088398347248  0.5525699830008506  0.989322195423448  1.0000
  C   C51       1.0  0.6373725998602778  0.4759034960066799  0.005044018646827891  1.0000
  C   C52       1.0  0.36262457166132117  0.5240956284889364  0.9949557840723889  1.0000
  C   C53       1.0  0.5635928108020495  0.5388880940736555  0.05156176135816545  1.0000
  C   C54       1.0  0.4364056906052768  0.46110581435210923  0.9484398118145099  1.0000
  C   C55       1.0  0.5727622913586075  0.4373777000437329  0.9532788020513582  1.0000
  C   C56       1.0  0.42723386851759676  0.5626179501579857  0.0467229987705124  1.0000
  S   S1        1.0  0.14824845200038803  0.8537348863731108  0.059000616874584626  1.0000
  S   S2        1.0  0.8517468679001895  0.1462677290975236  0.9409972502039071  1.0000
  S   S3        1.0  0.15700030721307456  0.8325360284353708  0.27714485578876263  1.0000
  S   S4        1.0  0.842995469243242  0.16746483830188194  0.7228545716397081  1.0000
  S   S5        1.0  0.8512490865757061  0.8369587365083998  0.17556962224534808  1.0000
  S   S6        1.0  0.1487473110638433  0.1630395553372637  0.8244274887537418  1.0000
  I   I1        1.0  0.09064727210878941  0.5201488888863324  0.2486104481726984  1.0000
  I   I2        1.0  0.9093475260565003  0.47985200148948337  0.751387253718541  1.0000
  N   N1        1.0  0.3738279684823453  0.9677011653727162  0.11882927701402936  1.0000
  N   N2        1.0  0.6261756557163595  0.0322987945669411  0.8811695997856862  1.0000
  N   N3        1.0  0.512199083309902  0.08345067250405687  0.08901477838490733  1.0000
  N   N4        1.0  0.4878085614571575  0.9165448868688839  0.9109891010663991  1.0000
  N   N5        1.0  0.44402452053599006  0.6913699666703154  0.2066574099078268  1.0000
  N   N6        1.0  0.555966174439611  0.3086283404594283  0.7933415723730096  1.0000
  N   N7        1.0  0.5517276752683743  0.5144994691089978  0.2790475681850425  1.0000
  N   N8        1.0  0.44826714676580803  0.4855014031886284  0.7209518800640711  1.0000
  N   N9        1.0  0.9207846787230095  0.6707703740924273  0.39092208723467814  1.0000
  N   N10       1.0  0.07921277034341763  0.3292313619168183  0.6090759362582221  1.0000
  N   N11       1.0  0.8381997342525693  0.5510017785048404  0.4929765832511709  1.0000
  N   N12       1.0  0.16180059399286506  0.448999928771151  0.5070225420183834  1.0000
  N   N13       1.0  0.9148027979802152  0.6842596985220977  0.02585216770625465  1.0000
  N   N14       1.0  0.08519745712937522  0.3157385409517488  0.9741477706067205  1.0000
  N   N15       1.0  0.8380420699091502  0.5496809206802239  0.9987034834223185  1.0000
  N   N16       1.0  0.16195602420940255  0.45031822235925734  0.0012939699990823948  1.0000
  O   O1        1.0  0.9859717150312547  0.06463253480610119  0.13188739834180305  1.0000
  O   O2        1.0  0.014024069381356747  0.935368325905088  0.8681126112059592  1.0000
