data_image0
_chemical_formula_structural       Cd4H8C32Cl8O16
_chemical_formula_sum              "Cd4 H8 C32 Cl8 O16"
_cell_length_a       7.104018055022654
_cell_length_b       7.855138773821109
_cell_length_c       16.775738958602474
_cell_angle_alpha    96.70875049844823
_cell_angle_beta     90.00024118548866
_cell_angle_gamma    90.000132199402

_space_group_name_H-M_alt    "P 1"
_space_group_IT_number       1

loop_
  _space_group_symop_operation_xyz
  'x, y, z'

loop_
  _atom_site_type_symbol
  _atom_site_label
  _atom_site_symmetry_multiplicity
  _atom_site_fract_x
  _atom_site_fract_y
  _atom_site_fract_z
  _atom_site_occupancy
  Cd  Cd1       1.0  0.8846574831013924  0.799011738830323  0.43837429220700835  1.0000
  Cd  Cd2       1.0  0.3846592527534014  0.7009834076242996  0.5616276352223507  1.0000
  Cd  Cd3       1.0  0.11534062247618948  0.20098581506189103  0.5616260022559416  1.0000
  Cd  Cd4       1.0  0.6153402604742553  0.29901544642194006  0.4383715424629315  1.0000
  H   H1        1.0  0.5225148551975849  0.5563839328419677  0.2811002025752813  1.0000
  H   H2        1.0  0.0225145885795257  0.9436102203136014  0.7189040138757434  1.0000
  H   H3        1.0  0.47748747335607794  0.4436187298837736  0.7189015805915915  1.0000
  H   H4        1.0  0.9774863323012611  0.05638606096432848  0.2810956106241065  1.0000
  H   H5        1.0  0.8909675975642485  0.357499754059141  0.1885483057494781  1.0000
  H   H6        1.0  0.39096610733246007  0.14249967408051128  0.8114490189286698  1.0000
  H   H7        1.0  0.10903473097149428  0.6425029637350546  0.8114499039278371  1.0000
  H   H8        1.0  0.6090348135552475  0.8574991616114216  0.1885513499211342  1.0000
  C   C1        1.0  0.8948676661412946  0.42348654939051034  0.344401032954714  1.0000
  C   C2        1.0  0.3948686653213541  0.0765090252111449  0.6555972671553362  1.0000
  C   C3        1.0  0.1051332547315553  0.5765084684475282  0.6555973259977675  1.0000
  C   C4        1.0  0.6051294402581958  0.9234898104771001  0.3444031016917961  1.0000
  C   C5        1.0  0.0545753758796153  0.4612277590097377  0.2903232456624423  1.0000
  C   C6        1.0  0.5545714691161123  0.03877073401825728  0.7096770126022207  1.0000
  C   C7        1.0  0.9454269526631194  0.5387736494541925  0.7096766763754729  1.0000
  C   C8        1.0  0.44542382115528073  0.9612281016663147  0.2903233562422329  1.0000
  C   C9        1.0  0.17362133139553043  0.4085171780045798  0.15285862022694366  1.0000
  C   C10       1.0  0.6736203476667272  0.09148162646490479  0.8471418644951854  1.0000
  C   C11       1.0  0.826380997153102  0.5914880758474651  0.8471415249635186  1.0000
  C   C12       1.0  0.32637916556092966  0.9085172275813349  0.152857313190097  1.0000
  C   C13       1.0  0.3826304850042774  0.5145309378931913  0.2609130577155128  1.0000
  C   C14       1.0  0.882625168832476  0.9854641940712268  0.7390894614328474  1.0000
  C   C15       1.0  0.6173746588555816  0.4854704430401922  0.7390886510698635  1.0000
  C   C16       1.0  0.1173743443971418  0.014535941771050897  0.2609097906366173  1.0000
  C   C17       1.0  0.2897838315688618  0.5991171171694558  0.3993207960799623  1.0000
  C   C18       1.0  0.789783949607525  0.9008829082669789  0.6006812484115258  1.0000
  C   C19       1.0  0.710215681666732  0.400883000316675  0.6006796471526882  1.0000
  C   C20       1.0  0.21021415597100204  0.09911721839539209  0.3993185992381925  1.0000
  C   C21       1.0  0.028337631875494696  0.4066633657184793  0.20853945450451047  1.0000
  C   C22       1.0  0.5283346843181532  0.09333378605190028  0.791460083884644  1.0000
  C   C23       1.0  0.9716646966672402  0.5933380427454436  0.7914604675334047  1.0000
  C   C24       1.0  0.47166342126241295  0.9066637586622335  0.2085408061598955  1.0000
  C   C25       1.0  0.23426403563745882  0.523554162054374  0.3164108049316212  1.0000
  C   C26       1.0  0.7342651763853854  0.9764418819272931  0.6835903152143885  1.0000
  C   C27       1.0  0.7657354775951505  0.47644596460983013  0.6835890427194328  1.0000
  C   C28       1.0  0.265735744500283  0.023559535712863098  0.3164090112405944  1.0000
  C   C29       1.0  0.3550934776966273  0.45719335321204096  0.18009379737878106  1.0000
  C   C30       1.0  0.8550864681471424  0.04280461667092079  0.8199087449028752  1.0000
  C   C31       1.0  0.644911666157256  0.5428080460774892  0.8199067202434023  1.0000
  C   C32       1.0  0.14491304508349856  0.957194228197245  0.1800910283640036  1.0000
  Cl  Cl1       1.0  0.1302424825071142  0.34461887675573166  0.05328995645423619  1.0000
  Cl  Cl2       1.0  0.6302370296784048  0.1553836687901295  0.9467100733173552  1.0000
  Cl  Cl3       1.0  0.8697612536906475  0.6553851044801958  0.946709518771783  1.0000
  Cl  Cl4       1.0  0.36976107589619284  0.8446138942801509  0.05328962556399829  1.0000
  Cl  Cl5       1.0  0.5438637752193074  0.44660402172549846  0.11566780927511638  1.0000
  Cl  Cl6       1.0  0.043857167044478694  0.053394379029675997  0.8843365976820294  1.0000
  Cl  Cl7       1.0  0.4561413686385123  0.5533999411561155  0.8843328571154316  1.0000
  Cl  Cl8       1.0  0.9561437538452041  0.946605738458295  0.11566384555195698  1.0000
  O   O1        1.0  0.8741432297583103  0.5036885817665463  0.4149026077969112  1.0000
  O   O2        1.0  0.37414174646615816  0.996305310449756  0.5850956517549051  1.0000
  O   O3        1.0  0.1258548758133031  0.49630899048181476  0.5850964955028459  1.0000
  O   O4        1.0  0.6258549514612781  0.0036948070326942987  0.4149047914750668  1.0000
  O   O5        1.0  0.44864753517997263  0.5580729682904105  0.42674122700443456  1.0000
  O   O6        1.0  0.9486474790290418  0.9419248908029514  0.5732621620795513  1.0000
  O   O7        1.0  0.551351978056644  0.4419258582216086  0.573259737425623  1.0000
  O   O8        1.0  0.0513506265435879  0.05807139047129789  0.4267374624176199  1.0000
  O   O9        1.0  0.19142294632221282  0.7129710308311913  0.4409906326005952  1.0000
  O   O10       1.0  0.6914265848085607  0.7870249010766199  0.5590104060535025  1.0000
  O   O11       1.0  0.8085737516032624  0.28702780485522067  0.5590097362451942  1.0000
  O   O12       1.0  0.3085729284250718  0.21297393461347267  0.44098996279496555  1.0000
  O   O13       1.0  0.7844777454419686  0.301341574608152  0.3189088810434911  1.0000
  O   O14       1.0  0.28447930478618844  0.19865502053200143  0.6810874967177085  1.0000
  O   O15       1.0  0.21552176778167362  0.6986585795902797  0.6810891798627807  1.0000
  O   O16       1.0  0.715518800796353  0.8013438059781706  0.3189134677110133  1.0000
