data_image0
_chemical_formula_structural       Sr2H12C12N8
_chemical_formula_sum              "Sr2 H12 C12 N8"
_cell_length_a       7.102421312964265
_cell_length_b       7.102409308522548
_cell_length_c       7.432723440362412
_cell_angle_alpha    94.76327441725809
_cell_angle_beta     94.76696592057995
_cell_angle_gamma    92.37669596959613

_space_group_name_H-M_alt    "P 1"
_space_group_IT_number       1

loop_
  _space_group_symop_operation_xyz
  'x, y, z'

loop_
  _atom_site_type_symbol
  _atom_site_label
  _atom_site_symmetry_multiplicity
  _atom_site_fract_x
  _atom_site_fract_y
  _atom_site_fract_z
  _atom_site_occupancy
  Sr  Sr1       1.0  0.39248479106249323  0.6075174920545409  0.7500012358086037  1.0000
  Sr  Sr2       1.0  0.6075203803386913  0.3924849830089628  0.2500089653292221  1.0000
  H   H1        1.0  0.3586234242117712  0.8847313941297726  0.24864456237798288  1.0000
  H   H2        1.0  0.11525905018751102  0.6413998361264461  0.25137211030951073  1.0000
  H   H3        1.0  0.6413593852393547  0.11525998810008531  0.7513562621609465  1.0000
  H   H4        1.0  0.8847278542001434  0.3586085712099275  0.7486618794993021  1.0000
  H   H5        1.0  0.8950822103643007  0.0387892962457954  0.09637416787555958  1.0000
  H   H6        1.0  0.9612553781735259  0.10491086282286942  0.4036363446155633  1.0000
  H   H7        1.0  0.10488164880969461  0.961237543872571  0.9036178555268533  1.0000
  H   H8        1.0  0.03878546955614582  0.8950579735484541  0.5963429319697011  1.0000
  H   H9        1.0  0.8103235735626838  0.6655415856104057  0.977043220890614  1.0000
  H   H10       1.0  0.3345103956735542  0.1896779289230324  0.5229399204537086  1.0000
  H   H11       1.0  0.18966859863579094  0.3344806764386378  0.0229591531229545  1.0000
  H   H12       1.0  0.6655183218282518  0.8103128701285272  0.4770478222934712  1.0000
  C   C1        1.0  0.4945835532361471  0.8744338751340095  0.19190811766328855  1.0000
  C   C2        1.0  0.12556799601557603  0.5054351517339911  0.30810121489999887  1.0000
  C   C3        1.0  0.5054065960608298  0.1255628337339374  0.808090498705468  1.0000
  C   C4        1.0  0.8744388595175253  0.49454650161143837  0.6919176855959461  1.0000
  C   C5        1.0  0.7700870380839221  0.9510829145262746  0.112804616976824  1.0000
  C   C6        1.0  0.0489448110516193  0.22992493247211604  0.38721295547452417  1.0000
  C   C7        1.0  0.22989011201033804  0.04893358132721198  0.8871861722676682  1.0000
  C   C8        1.0  0.9510744399517891  0.7700533256595747  0.612772591773975  1.0000
  C   C9        1.0  0.7270786779841174  0.7642775050612229  0.05304625795554329  1.0000
  C   C10       1.0  0.23576396824947216  0.2729211721707188  0.44695156436443984  1.0000
  C   C11       1.0  0.272904192156453  0.2357415315986771  0.946942153468697  1.0000
  C   C12       1.0  0.7642632347652594  0.7270682536042232  0.5530360671680085  1.0000
  N   N1        1.0  0.5488154915072343  0.7135740878037993  0.10325685672570017  1.0000
  N   N2        1.0  0.28645112584024457  0.4512064272872465  0.3967493724627288  1.0000
  N   N3        1.0  0.4511729364944017  0.28643425444143134  0.8967475331840474  1.0000
  N   N4        1.0  0.7135594496698373  0.5487943509174755  0.6032582755487892  1.0000
  N   N5        1.0  0.6219989944537545  0.021580521835694796  0.20247639118266383  1.0000
  N   N6        1.0  0.9784329757193218  0.3780105816041371  0.2975485515774707  1.0000
  N   N7        1.0  0.377971197625847  0.9784310289495227  0.7975247236574106  1.0000
  N   N8        1.0  0.021587587473412415  0.6219742170773728  0.7024561700717271  1.0000
