data_image0
_chemical_formula_structural       Cd3H30C42N4Cl4O8
_chemical_formula_sum              "Cd3 H30 C42 N4 Cl4 O8"
_cell_length_a       7.829170141749251
_cell_length_b       9.663426448429421
_cell_length_c       15.554293909319235
_cell_angle_alpha    87.00037322624306
_cell_angle_beta     79.74190128063901
_cell_angle_gamma    68.43021322462846

_space_group_name_H-M_alt    "P 1"
_space_group_IT_number       1

loop_
  _space_group_symop_operation_xyz
  'x, y, z'

loop_
  _atom_site_type_symbol
  _atom_site_label
  _atom_site_symmetry_multiplicity
  _atom_site_fract_x
  _atom_site_fract_y
  _atom_site_fract_z
  _atom_site_occupancy
  Cd  Cd1       1.0  0.9999931266913865  2.2322735588999994e-06  1.6814659531110525e-06  1.0000
  Cd  Cd2       1.0  0.8812507516547045  0.9697926524009972  0.23522805108408557  1.0000
  Cd  Cd3       1.0  0.11874838192026259  0.030199898107774504  0.7647734826873387  1.0000
  H   H1        1.0  0.33933328757350284  0.10141198993510162  0.021806374605844808  1.0000
  H   H2        1.0  0.6606547877143784  0.8985905791294543  0.9781957437524723  1.0000
  H   H3        1.0  0.3054283009908048  0.5536070023984436  0.975307226941801  1.0000
  H   H4        1.0  0.6945719935214995  0.4463886590267096  0.024685072714547125  1.0000
  H   H5        1.0  0.9627219939539345  0.45386587988784294  0.19784112886715374  1.0000
  H   H6        1.0  0.03727467485703779  0.5461377643767733  0.8021588851211231  1.0000
  H   H7        1.0  0.6337198966473282  0.28485491239039357  0.9350266743971003  1.0000
  H   H8        1.0  0.36627107246661006  0.7151299363048836  0.0649791263361053  1.0000
  H   H9        1.0  0.5614207409888222  0.14211300926988465  0.9101027360876157  1.0000
  H   H10       1.0  0.4385616044701878  0.8578850326646618  0.08989686965218618  1.0000
  H   H11       1.0  0.4403341112992721  0.14218105147722332  0.7940623784234828  1.0000
  H   H12       1.0  0.5596602690499709  0.8578247545261207  0.20593518099936145  1.0000
  H   H13       1.0  0.35822282877258266  0.24863824094359907  0.6527408754392068  1.0000
  H   H14       1.0  0.6417842269759504  0.751365397273773  0.34725820298926635  1.0000
  H   H15       1.0  0.4255189515687263  0.6514591904398018  0.7276245729258974  1.0000
  H   H16       1.0  0.5745007135938993  0.34853673386958667  0.2723769013447707  1.0000
  H   H17       1.0  0.5188863906000949  0.5231052254015581  0.8630945055206636  1.0000
  H   H18       1.0  0.48112599791091515  0.4768895745595927  0.1369070275652433  1.0000
  H   H19       1.0  0.2918021562769368  0.44774557822283606  0.5563801210435528  1.0000
  H   H20       1.0  0.7082023563862168  0.5522636398898726  0.4436196001782093  1.0000
  H   H21       1.0  0.3216137841048195  0.743189855996036  0.6062919404296847  1.0000
  H   H22       1.0  0.6783950465538954  0.2568127493662828  0.39371023541884387  1.0000
  H   H23       1.0  0.17338876885823848  0.530336436938427  0.448108320398063  1.0000
  H   H24       1.0  0.8266301176568336  0.4696583431124424  0.5518919850930359  1.0000
  H   H25       1.0  0.056029637278427954  0.6492640151891039  0.3140768629815938  1.0000
  H   H26       1.0  0.9439871537176218  0.3507296697514164  0.685924319284723  1.0000
  H   H27       1.0  0.14297203947919002  0.0338790580036843  0.36055538300651335  1.0000
  H   H28       1.0  0.8570181911448247  0.9661301684239875  0.6394456246099692  1.0000
  H   H29       1.0  0.26871972610129563  0.9311510849828579  0.49758217551589456  1.0000
  H   H30       1.0  0.7312702745714504  0.0688614950784157  0.502419357979562  1.0000
  C   C1        1.0  0.06977601295150039  0.15880611941104664  0.1652658050508791  1.0000
  C   C2        1.0  0.9302174610840556  0.8411931575192995  0.83473789112832  1.0000
  C   C3        1.0  0.1435935650454212  0.26681065442223684  0.11497196578056898  1.0000
  C   C4        1.0  0.856397639032679  0.7331907358545706  0.8850273472233707  1.0000
  C   C5        1.0  0.28300597270538225  0.21843728856758562  0.041135713355686186  1.0000
  C   C6        1.0  0.7169795428566773  0.7815651852242526  0.9588627816729484  1.0000
  C   C7        1.0  0.3488999941434941  0.31890801791054446  0.9917828312902371  1.0000
  C   C8        1.0  0.6510891452560587  0.6810921966021368  0.00821414413923801  1.0000
  C   C9        1.0  0.26557084902545114  0.46969164742485964  0.014068749655848504  1.0000
  C   C10       1.0  0.734422469075959  0.530310789570038  0.985927757963061  1.0000
  C   C11       1.0  0.12600313192876916  0.5196143358182539  0.08757241624491738  1.0000
  C   C12       1.0  0.8739837005047665  0.4803880888254213  0.9124240332289303  1.0000
  C   C13       1.0  0.06860597588654122  0.41723358889495904  0.13956546585707488  1.0000
  C   C14       1.0  0.9313867626781235  0.5827644308615945  0.8604325614529883  1.0000
  C   C15       1.0  0.04432504394620207  0.6838500806892115  0.10714405097032649  1.0000
  C   C16       1.0  0.9556570838977266  0.316151282617426  0.8928547949085652  1.0000
  C   C17       1.0  0.51492839042335  0.26267421058243207  0.9192466255398698  1.0000
  C   C18       1.0  0.48506426365182886  0.7373183114443621  0.0807542072165504  1.0000
  C   C19       1.0  0.43611668400247794  0.25351244535026046  0.7754870672908821  1.0000
  C   C20       1.0  0.5638877873478593  0.7464911621174153  0.22451095928767015  1.0000
  C   C21       1.0  0.389082435026424  0.3162790734758972  0.6973093529804968  1.0000
  C   C22       1.0  0.6109209679079798  0.6837211811140878  0.3026882646640629  1.0000
  C   C23       1.0  0.37869021283619747  0.4625122218088578  0.6773384953213861  1.0000
  C   C24       1.0  0.6213126167295544  0.5374835994120204  0.3226599991443847  1.0000
  C   C25       1.0  0.4269648928069858  0.5387641590253125  0.7386445800672303  1.0000
  C   C26       1.0  0.5730506306623371  0.46122944601733457  0.26135350479437125  1.0000
  C   C27       1.0  0.4767766921230035  0.47014627665028297  0.8149806636966088  1.0000
  C   C28       1.0  0.5232359984925596  0.5298506996685362  0.18501882380384416  1.0000
  C   C29       1.0  0.31866350587478826  0.5248934133006743  0.5962546229603445  1.0000
  C   C30       1.0  0.6813386276690566  0.4751124849517582  0.40374609201226963  1.0000
  C   C31       1.0  0.2932160529019257  0.6647368675152522  0.5679391695423348  1.0000
  C   C32       1.0  0.706794620516007  0.33526452755372566  0.4320590321569212  1.0000
  C   C33       1.0  0.2279714071323299  0.7226612309516156  0.4864431435310763  1.0000
  C   C34       1.0  0.772040262548231  0.27733798700379003  0.5135569868086518  1.0000
  C   C35       1.0  0.1691853096182497  0.6426307312206279  0.43231163563038416  1.0000
  C   C36       1.0  0.8308299592274295  0.35736629197864284  0.5676895465899318  1.0000
  C   C37       1.0  0.10305241722998915  0.7076863523152143  0.357472791655887  1.0000
  C   C38       1.0  0.8969631352159697  0.2923128956339837  0.6425282735887945  1.0000
  C   C39       1.0  0.15222747598093644  0.9227659129461259  0.38292646751974496  1.0000
  C   C40       1.0  0.8477658649290164  0.0772421830860637  0.6170736633521869  1.0000
  C   C41       1.0  0.22108568125895559  0.8654992749383794  0.45910804769783903  1.0000
  C   C42       1.0  0.7789107637688489  0.13450770682908345  0.54089184929947  1.0000
  N   N1        1.0  0.09177725932650553  0.8466221794690372  0.3332197767970086  1.0000
  N   N2        1.0  0.9082279308542667  0.153377010004391  0.6667796525277225  1.0000
  N   N3        1.0  0.4771132318436601  0.33054947393858214  0.8336873432839905  1.0000
  N   N4        1.0  0.5228929792721291  0.669447473898252  0.16631144320146518  1.0000
  Cl  Cl1       1.0  0.6834555883065718  0.0811987102725311  0.10917542441884359  1.0000
  Cl  Cl2       1.0  0.31653274590921393  0.9188061480649666  0.8908291484435862  1.0000
  Cl  Cl3       1.0  0.6017178032241901  0.03293236882731781  0.3539960495286251  1.0000
  Cl  Cl4       1.0  0.3982937634626041  0.9670613997905946  0.6460088148672793  1.0000
  O   O1        1.0  0.11265289067067394  0.029521227189810904  0.12949762166716275  1.0000
  O   O2        1.0  0.887344689913448  0.9704747422314812  0.8705071264079505  1.0000
  O   O3        1.0  0.9656466680280859  0.19525366911602757  0.23877484664874513  1.0000
  O   O4        1.0  0.034352494523517484  0.804744524299288  0.7612296675057519  1.0000
  O   O5        1.0  0.9539919468686907  0.728266432261087  0.1832722891420814  1.0000
  O   O6        1.0  0.04600852638628787  0.27173172813681395  0.8167308223275637  1.0000
  O   O7        1.0  0.07946861344859724  0.7638570247583018  0.04420635378914281  1.0000
  O   O8        1.0  0.9205070348955431  0.2361443100663578  0.9557917910747517  1.0000
