data_image0
_chemical_formula_structural       Cu2H28C28N8Cl2O4
_chemical_formula_sum              "Cu2 H28 C28 N8 Cl2 O4"
_cell_length_a       8.36025891618273
_cell_length_b       9.044700570049208
_cell_length_c       9.924145632943967
_cell_angle_alpha    91.28680726659958
_cell_angle_beta     92.75293103718954
_cell_angle_gamma    106.76514619292804

_space_group_name_H-M_alt    "P 1"
_space_group_IT_number       1

loop_
  _space_group_symop_operation_xyz
  'x, y, z'

loop_
  _atom_site_type_symbol
  _atom_site_label
  _atom_site_symmetry_multiplicity
  _atom_site_fract_x
  _atom_site_fract_y
  _atom_site_fract_z
  _atom_site_occupancy
  Cu  Cu1       1.0  0.010886129197594104  0.06796686468784692  0.857712884177623  1.0000
  Cu  Cu2       1.0  0.9891129490952081  0.932033188598851  0.1422867049855725  1.0000
  H   H1        1.0  0.27525035771915185  0.13796510061471415  0.747488550318515  1.0000
  H   H2        1.0  0.7247499262706256  0.8620349328545557  0.2525151147099791  1.0000
  H   H3        1.0  0.7549857690358905  0.1049241097576399  0.7719559897960977  1.0000
  H   H4        1.0  0.245013772732868  0.895073624130319  0.2280445686007369  1.0000
  H   H5        1.0  0.2926795632990745  0.817926821877677  0.515889540900794  1.0000
  H   H6        1.0  0.7073186912311157  0.18207438383489458  0.48411206014928604  1.0000
  H   H7        1.0  0.02704745816107839  0.6206123568387482  0.4287344619173012  1.0000
  H   H8        1.0  0.9729503352984564  0.3793911644542902  0.5712671775516611  1.0000
  H   H9        1.0  0.7597476711043213  0.8384197810972933  0.691301342441399  1.0000
  H   H10       1.0  0.24025058583117698  0.16158142079701324  0.3087012662611954  1.0000
  H   H11       1.0  0.603617383474585  0.6217043604799954  0.5554844640742758  1.0000
  H   H12       1.0  0.3963808710556123  0.37829684523256896  0.4445171369757972  1.0000
  H   H13       1.0  0.7099824154286265  0.48268693770196347  0.5197225385714077  1.0000
  H   H14       1.0  0.2900174002745857  0.5173154228025824  0.48027814191840423  1.0000
  H   H15       1.0  0.6806124508412521  0.6090435253372704  0.393374928207777  1.0000
  H   H16       1.0  0.3193877323645181  0.39095999068533155  0.6066257941190827  1.0000
  H   H17       1.0  0.7661080276413726  0.519587870442841  0.8057386566270708  1.0000
  H   H18       1.0  0.23389354118167194  0.4804086950200955  0.1942629580956563  1.0000
  H   H19       1.0  0.04007933463009996  0.7220798370810896  0.8521662777656757  1.0000
  H   H20       1.0  0.9599225896689773  0.2779179029912413  0.1478303405314847  1.0000
  H   H21       1.0  0.2729266869150492  0.3574154135928538  0.8888135769930302  1.0000
  H   H22       1.0  0.7270740485241729  0.6425823195690227  0.11118601900649588  1.0000
  H   H23       1.0  0.4373411284741166  0.6307952121842179  0.9488544166664569  1.0000
  H   H24       1.0  0.5626603395649141  0.3692048358320434  0.051144255354635994  1.0000
  H   H25       1.0  0.3432325294027692  0.7829327799394791  0.9285078731366028  1.0000
  H   H26       1.0  0.656766178982167  0.21706612164742717  0.0714906665370236  1.0000
  H   H27       1.0  0.40957409545138995  0.7003207231546326  0.7868304817399548  1.0000
  H   H28       1.0  0.590425809009318  0.29967817388791934  0.2131681031888846  1.0000
  C   C1        1.0  0.4656603414659628  0.056313366009995015  0.6969916589596751  1.0000
  C   C2        1.0  0.5343419431197629  0.9436855410352007  0.3030019782169759  1.0000
  C   C3        1.0  0.5756804583305666  0.21380510869984456  0.7563300548157343  1.0000
  C   C4        1.0  0.42431825005437673  0.7861937928870618  0.2436684848578921  1.0000
  C   C5        1.0  0.1627064434420973  0.9310301402979136  0.6458796449296997  1.0000
  C   C6        1.0  0.8372938381423795  0.0689698969896284  0.3541230124462729  1.0000
  C   C7        1.0  0.17146685944869217  0.8178588106104029  0.5504207342776013  1.0000
  C   C8        1.0  0.8285325935625707  0.18214238673954242  0.44958191968020594  1.0000
  C   C9        1.0  0.023755749821830832  0.7101339948318143  0.503043925908571  1.0000
  C   C10       1.0  0.9762428746162183  0.28986836258054893  0.49695872463107804  1.0000
  C   C11       1.0  0.8699657724844485  0.7157457817668343  0.5500689536594336  1.0000
  C   C12       1.0  0.1300333106189555  0.2842542638833265  0.4499326508088117  1.0000
  C   C13       1.0  0.8741971343415074  0.8303819035635982  0.6473457800588706  1.0000
  C   C14       1.0  0.125801122593991  0.16961929833070144  0.352656828643731  1.0000
  C   C15       1.0  0.7076434613627569  0.6016784004031807  0.5020755261010237  1.0000
  C   C16       1.0  0.2923547907621327  0.3983228091276558  0.4979250672965351  1.0000
  C   C17       1.0  0.8783684075916653  0.3334749843252283  0.816641651279781  1.0000
  C   C18       1.0  0.12163269775541605  0.6665239005364468  0.183358994209307  1.0000
  C   C19       1.0  0.8820375029596121  0.48910009049649983  0.8207074485297953  1.0000
  C   C20       1.0  0.11796360238746928  0.5108987943651684  0.1792931969592928  1.0000
  C   C21       1.0  0.03541218006055396  0.6004848366585379  0.8451307258605283  1.0000
  C   C22       1.0  0.9645885577839762  0.39951289268507406  0.1548698777915192  1.0000
  C   C23       1.0  0.18276277757283313  0.5573789748946113  0.864193977598802  1.0000
  C   C24       1.0  0.8172374943904259  0.44262107766599706  0.1358046491670848  1.0000
  C   C25       1.0  0.16498356086565735  0.39921938167739046  0.8659797927077761  1.0000
  C   C26       1.0  0.8350175468867319  0.6007794993660055  0.1340218604338332  1.0000
  C   C27       1.0  0.35168923736098623  0.673402152947041  0.8839564228557747  1.0000
  C   C28       1.0  0.648309840931816  0.3265979003396565  0.1160431663074277  1.0000
  N   N1        1.0  0.30129442554682134  0.049728152947921  0.6945274159955801  1.0000
  N   N2        1.0  0.6987058536323543  0.9502718881578859  0.3054742337278711  1.0000
  N   N3        1.0  0.7359129392241853  0.2121224622408704  0.7804883895387249  1.0000
  N   N4        1.0  0.26408780102564583  0.7878752632844767  0.21951322176584404  1.0000
  N   N5        1.0  0.01664376996260585  0.9349637942260713  0.6969167327349552  1.0000
  N   N6        1.0  0.9833553131408052  0.0650362514240896  0.3030848717332831  1.0000
  N   N7        1.0  0.017520679707828914  0.28872919890886817  0.8437883606110645  1.0000
  N   N8        1.0  0.9824807931418107  0.7112708414708564  0.15621232671507812  1.0000
  Cl  Cl1       1.0  0.7730856381892508  0.9258070357503243  0.9740810121498457  1.0000
  Cl  Cl2       1.0  0.22691224162247886  0.07419302589898538  0.025917524105622602  1.0000
  O   O1        1.0  0.5258616125388825  0.9550518724676492  0.655566972057045  1.0000
  O   O2        1.0  0.47413817189539026  0.0449505376743744  0.3444206089499886  1.0000
  O   O3        1.0  0.5192623385923127  0.3249639705611784  0.7734287341226818  1.0000
  O   O4        1.0  0.48074271767401905  0.6750360638220343  0.22657007366404258  1.0000
