data_image0
_chemical_formula_structural       Zn16H36C112S8Cl16O52F4
_chemical_formula_sum              "Zn16 H36 C112 S8 Cl16 O52 F4"
_cell_length_a       18.38349322270035
_cell_length_b       19.642210860123704
_cell_length_c       32.68487522377554
_cell_angle_alpha    86.12924624660619
_cell_angle_beta     73.68780042452796
_cell_angle_gamma    62.076352646584475

_space_group_name_H-M_alt    "P 1"
_space_group_IT_number       1

loop_
  _space_group_symop_operation_xyz
  'x, y, z'

loop_
  _atom_site_type_symbol
  _atom_site_label
  _atom_site_symmetry_multiplicity
  _atom_site_fract_x
  _atom_site_fract_y
  _atom_site_fract_z
  _atom_site_occupancy
  Zn  Zn1       1.0  0.874364445866618  0.5466287804336574  0.518631753257715  1.0000
  Zn  Zn2       1.0  0.04720200830554691  0.47743082500652184  0.4393300463219632  1.0000
  Zn  Zn3       1.0  0.05311736081424804  0.40048659594427966  0.525492651068646  1.0000
  Zn  Zn4       1.0  0.040393273778953166  0.569383815284155  0.5157331621701006  1.0000
  Zn  Zn5       1.0  0.6240043911272364  0.18287527608352153  0.7365122643410728  1.0000
  Zn  Zn6       1.0  0.4775165475639227  0.3509879242234391  0.7263468821199837  1.0000
  Zn  Zn7       1.0  0.4451565386246372  0.26840871831326757  0.8119489599537529  1.0000
  Zn  Zn8       1.0  0.44880089856841465  0.20236643851950484  0.7245419670265107  1.0000
  Zn  Zn9       1.0  0.4679837041321022  0.7540503901135621  0.31388333949344377  1.0000
  Zn  Zn10      1.0  0.4663568526496321  0.6837603081959073  0.22705179661722497  1.0000
  Zn  Zn11      1.0  0.6257931225988925  0.7029679790757443  0.22782187643688456  1.0000
  Zn  Zn12      1.0  0.44568787703030205  0.8513136467263962  0.22974295321409244  1.0000
  Zn  Zn13      1.0  0.022706642052824546  0.9018347343163813  0.0252854650835488  1.0000
  Zn  Zn14      1.0  0.06600120113021289  0.046006997804333594  0.015062666743745  1.0000
  Zn  Zn15      1.0  0.8759492005035837  0.06989575458556631  0.023798821081868492  1.0000
  Zn  Zn16      1.0  0.022859736525958702  0.988719610858084  0.9388045815395857  1.0000
  H   H1        1.0  0.7924669317173496  0.9551303791342179  0.6626121697464882  1.0000
  H   H2        1.0  0.3239345869280541  0.9670553309351179  0.4091668342764692  1.0000
  H   H3        1.0  0.5680781543648904  0.44583251620313297  0.6223434190291641  1.0000
  H   H4        1.0  0.5668422876178382  0.4975475797543254  0.6654108965975142  1.0000
  H   H5        1.0  0.6597719944108177  0.5459970468517527  0.6135398418315604  1.0000
  H   H6        1.0  0.6619557867553283  0.49375093736477293  0.5703699723418935  1.0000
  H   H7        1.0  0.36546352885925865  0.657361302164894  0.42325259285040323  1.0000
  H   H8        1.0  0.2788052565459721  0.7506642507695604  0.42277020022088857  1.0000
  H   H9        1.0  0.1750462378313743  0.7106488388602087  0.472320796532685  1.0000
  H   H10       1.0  0.2619127546632922  0.6177043221549  0.47336713746511083  1.0000
  H   H11       1.0  0.5569504237361258  0.7513241733108701  0.42575724772841983  1.0000
  H   H12       1.0  0.5564722682548223  0.6609793454334679  0.4246625588678867  1.0000
  H   H13       1.0  0.6532678776540662  0.6103150737842854  0.4730855366726558  1.0000
  H   H14       1.0  0.653871304245612  0.7004851577051597  0.474335444888844  1.0000
  H   H15       1.0  0.3325701327569632  0.20588364387232624  0.6313430530952714  1.0000
  H   H16       1.0  0.24286112889422637  0.25026548926833675  0.6772580272959347  1.0000
  H   H17       1.0  0.143595077955716  0.3004429152661814  0.6298870353788288  1.0000
  H   H18       1.0  0.23332050045677014  0.2559937344786434  0.5840163760611147  1.0000
  H   H19       1.0  0.17485104104582652  0.6626730194628722  0.9627537968872134  1.0000
  H   H20       1.0  0.929447895148641  0.09919052774188941  0.8332282722256111  1.0000
  H   H21       1.0  0.934228532791373  0.006618608411649502  0.8317575815571985  1.0000
  H   H22       1.0  0.8383749147823991  0.052297089570203105  0.7829442796929769  1.0000
  H   H23       1.0  0.8325314162584192  0.1452369824422988  0.7846854039207826  1.0000
  H   H24       1.0  0.17359294790475846  0.19719398337456792  0.9684765768895858  1.0000
  H   H25       1.0  0.2669590745956826  0.107390364704429  0.9663327656552525  1.0000
  H   H26       1.0  0.3584635800993681  0.16042408779390632  0.917254776675584  1.0000
  H   H27       1.0  0.265091426469617  0.2499747219002657  0.9192004119091948  1.0000
  H   H28       1.0  0.9612273494419482  0.29183359350771104  0.08731075266482677  1.0000
  H   H29       1.0  0.2651678741270728  0.0064394647631900006  0.06932541363185861  1.0000
  H   H30       1.0  0.1724251994643851  0.05588118342860331  0.11325715557428138  1.0000
  H   H31       1.0  0.26469833371061924  0.010232064358589801  0.16385880386805243  1.0000
  H   H32       1.0  0.35779746829351194  0.9624310009536361  0.11978461152912702  1.0000
  H   H33       1.0  0.9292066800237676  0.7475019712711913  0.08699221316725671  1.0000
  H   H34       1.0  0.9311802560079343  0.7940668431497785  0.1313038680187475  1.0000
  H   H35       1.0  0.8319844242878601  0.7498668040716083  0.18148919622657192  1.0000
  H   H36       1.0  0.8313612785704263  0.7019523691435908  0.13729330417839944  1.0000
  C   C1        1.0  0.8732757872191499  0.5618358629397022  0.4289426780955878  1.0000
  C   C2        1.0  0.1334152119152847  0.3103202904039222  0.443325285970225  1.0000
  C   C3        1.0  0.8807156336587384  0.41489902952118035  0.569353778799524  1.0000
  C   C4        1.0  0.14338610392328377  0.4537510856615726  0.5658511792844011  1.0000
  C   C5        1.0  0.861468136737187  0.6817444025877891  0.5609140459394766  1.0000
  C   C6        1.0  0.13335269163753335  0.5719107450628516  0.4295398972439699  1.0000
  C   C7        1.0  0.6618957932577486  0.30088607763428143  0.6888179532143256  1.0000
  C   C8        1.0  0.3735642602341116  0.4377265501996773  0.8099746735573419  1.0000
  C   C9        1.0  0.6162032590129344  0.18069124822206822  0.8279210019223129  1.0000
  C   C10       1.0  0.3513771638741403  0.1825181354101062  0.8094797890998251  1.0000
  C   C11       1.0  0.6149474751659342  0.06764542162731862  0.6868472633220507  1.0000
  C   C12       1.0  0.3738707932544755  0.3376662860250193  0.6766483422002736  1.0000
  C   C13       1.0  0.36734747617621377  0.6732304026788897  0.3140198014347177  1.0000
  C   C14       1.0  0.6448955633380392  0.5694920092027118  0.18437689142294292  1.0000
  C   C15       1.0  0.6465966560609715  0.6789399852866894  0.3159021049348638  1.0000
  C   C16       1.0  0.6137445101781085  0.8386964231653166  0.18160478736092497  1.0000
  C   C17       1.0  0.3740653216976851  0.9245065128311583  0.3184155934598465  1.0000
  C   C18       1.0  0.35823240227851727  0.8089786178888546  0.18335660792864417  1.0000
  C   C19       1.0  0.1324165250854178  0.9195993588275827  0.07017042951163432  1.0000
  C   C20       1.0  0.9118038232099013  0.18222179945785652  0.061192822106583764  1.0000
  C   C21       1.0  0.8422888414429084  0.9484406332829495  0.06845442396188157  1.0000
  C   C22       1.0  0.8419255980462808  0.07666287155463182  0.9411431978633261  1.0000
  C   C23       1.0  0.11657682007864875  0.8191713251208911  0.9396945119075609  1.0000
  C   C24       1.0  0.1330518154122586  0.06315050968574101  0.9242250827467089  1.0000
  C   C25       1.0  0.7222108443678366  0.8068228443549755  0.5966883504405374  1.0000
  C   C26       1.0  0.7484629439577899  0.9421707263309931  0.652531103639177  1.0000
  C   C27       1.0  0.8097249102134753  0.7567298469748209  0.5859578119172326  1.0000
  C   C28       1.0  0.6613332480294711  0.9920460797193374  0.662284415680297  1.0000
  C   C29       1.0  0.7701032555988762  0.8751775282903014  0.6282914046674222  1.0000
  C   C30       1.0  0.6984190478622663  0.8750401743954515  0.6205689667160357  1.0000
  C   C31       1.0  0.2017394819108134  0.21777702721514203  0.3760663247550653  1.0000
  C   C32       1.0  0.30616695495742613  0.013115684349188002  0.3877380836620858  1.0000
  C   C33       1.0  0.1808678088205369  0.234379203306581  0.4197229129618876  1.0000
  C   C34       1.0  0.3265325001398195  0.9990800910653308  0.344003775222312  1.0000
  C   C35       1.0  0.26096383804986084  0.09340420782858423  0.39937060011075687  1.0000
  C   C36       1.0  0.24765158888879304  0.13799159114476822  0.36394292157747543  1.0000
  C   C37       1.0  0.7237344613405767  0.32481069052182937  0.6598926232984752  1.0000
  C   C38       1.0  0.8314924880332979  0.3810428021672649  0.6004052878293678  1.0000
  C   C39       1.0  0.69065701348962  0.3931011522410088  0.6397746194948297  1.0000
  C   C40       1.0  0.8674244145662727  0.3115867748066279  0.621046184931636  1.0000
  C   C41       1.0  0.7421021040502467  0.4197330822500904  0.6112923945249449  1.0000
  C   C42       1.0  0.8146809510897057  0.2843160101560969  0.6499998416221118  1.0000
  C   C43       1.0  0.6077936235853585  0.4606674159519174  0.6357599310025251  1.0000
  C   C44       1.0  0.6661640968581252  0.49086116372912875  0.6033599334568578  1.0000
  C   C45       1.0  0.30422912521178336  0.6486574373396793  0.34063441531709776  1.0000
  C   C46       1.0  0.18629083122702653  0.6014559994413418  0.3981101940620206  1.0000
  C   C47       1.0  0.2824008067932696  0.6589597118681212  0.3850605069159485  1.0000
  C   C48       1.0  0.20430391887373395  0.5927412273795909  0.35307232091201257  1.0000
  C   C49       1.0  0.22555060636518215  0.6368030898189546  0.4125977936683752  1.0000
  C   C50       1.0  0.26233822513311367  0.6152050532072124  0.32484677556606567  1.0000
  C   C51       1.0  0.29907589750163766  0.6884422649595123  0.4213427913315471  1.0000
  C   C52       1.0  0.2343441535519872  0.6633194932674655  0.4525830582640041  1.0000
  C   C53       1.0  0.7093070889238008  0.6500969326297507  0.3418104414325711  1.0000
  C   C54       1.0  0.8212332673668852  0.5904588553699812  0.3977208425002985  1.0000
  C   C55       1.0  0.6785953988507882  0.6575614875409885  0.38629393587001465  1.0000
  C   C56       1.0  0.8549871923599924  0.5820756135103264  0.35238754000073413  1.0000
  C   C57       1.0  0.7319701597544535  0.6292814625445475  0.4129750177183809  1.0000
  C   C58       1.0  0.8003916388247347  0.6122506899474233  0.3251213674943116  1.0000
  C   C59       1.0  0.5972118416361382  0.6883732860963293  0.42318600208275836  1.0000
  C   C60       1.0  0.6578276215339398  0.6565675010657017  0.453487065948373  1.0000
  C   C61       1.0  0.3146847344612098  0.37423155074576203  0.6491680564529716  1.0000
  C   C62       1.0  0.20058385971947254  0.43178289243080314  0.5944558635703318  1.0000
  C   C63       1.0  0.277196816429381  0.3332187435044887  0.6383630541521583  1.0000
  C   C64       1.0  0.23616255807227998  0.4759896988710609  0.605632938709178  1.0000
  C   C65       1.0  0.2227100762086351  0.36071898330396834  0.6122601657871911  1.0000
  C   C66       1.0  0.2918735418539951  0.4478990127486072  0.6323686413303093  1.0000
  C   C67       1.0  0.27173987581406317  0.25842580161527456  0.6442617856272577  1.0000
  C   C68       1.0  0.209756902271593  0.28972047956871444  0.6146441596022854  1.0000
  C   C69       1.0  0.30258484815232833  0.586161277470275  0.8211023032793108  1.0000
  C   C70       1.0  0.1932288659238849  0.6717444055127901  0.9290252399578094  1.0000
  C   C71       1.0  0.3250703153141358  0.5124755144618761  0.834986106374828  1.0000
  C   C72       1.0  0.16981937530113111  0.7445954823755727  0.9142024632073245  1.0000
  C   C73       1.0  0.24169297515501129  0.6140837136435168  0.8948372420681281  1.0000
  C   C74       1.0  0.25461210301010345  0.6447932679935561  0.85474611218104  1.0000
  C   C75       1.0  0.7789459603095992  0.10352554263182158  0.9154951258739175  1.0000
  C   C76       1.0  0.6674515446233755  0.154783448850182  0.8595633945368847  1.0000
  C   C77       1.0  0.8099044287381858  0.09660276933058044  0.8711116174469993  1.0000
  C   C78       1.0  0.6338792830410398  0.16095920545296852  0.9048527836180683  1.0000
  C   C79       1.0  0.756657808397989  0.12151064347425948  0.8443632277990433  1.0000
  C   C80       1.0  0.6883574204856089  0.13638913793184318  0.9321276019582213  1.0000
  C   C81       1.0  0.8914215510123213  0.06911089436238882  0.8344562283617023  1.0000
  C   C82       1.0  0.8310207722734404  0.0976867487750184  0.8040102094729988  1.0000
  C   C83       1.0  0.1895119090779858  0.08909750469590702  0.8922908486884256  1.0000
  C   C84       1.0  0.295649210272714  0.1496812676801014  0.8355218278141407  1.0000
  C   C85       1.0  0.22651315825434182  0.1266900332779102  0.9070271789440483  1.0000
  C   C86       1.0  0.2597639092167724  0.11059816817660821  0.8193635841395519  1.0000
  C   C87       1.0  0.2767668679325936  0.1559862163554726  0.87994638869489  1.0000
  C   C88       1.0  0.20835720495934143  0.08071022509631122  0.8470718705376541  1.0000
  C   C89       1.0  0.234209373459457  0.15381249201122676  0.9471962304650816  1.0000
  C   C90       1.0  0.2914147770999662  0.18692713663273966  0.9164304089405918  1.0000
  C   C91       1.0  0.6752510056312031  0.44301505817934134  0.1493431277271  1.0000
  C   C92       1.0  0.8938007114845021  0.3061259899086366  0.09634852459886642  1.0000
  C   C93       1.0  0.7003213836986499  0.4941596183615647  0.16030422882371917  1.0000
  C   C94       1.0  0.8651079738967979  0.2577965506740156  0.08571322923032193  1.0000
  C   C95       1.0  0.8239409917829619  0.3743928910302968  0.1196956136944607  1.0000
  C   C96       1.0  0.7444446510100633  0.37508339626119647  0.12621196368090176  1.0000
  C   C97       1.0  0.18783541633368359  0.8867626567707348  0.09972448953803338  1.0000
  C   C98       1.0  0.2972858045989709  0.8337119259095119  0.1566364153964699  1.0000
  C   C99       1.0  0.22497534866025848  0.9284885425699586  0.1101581714350459  1.0000
  C   C100      1.0  0.25951815963213676  0.7902046456654193  0.1473096386136135  1.0000
  C   C101      1.0  0.2765609453465458  0.9035412284479707  0.1377349626573547  1.0000
  C   C102      1.0  0.2063104776911401  0.8158250725685436  0.11940163299755109  1.0000
  C   C103      1.0  0.2328470544222583  0.0020513190666946  0.10242980163037169  1.0000
  C   C104      1.0  0.29107054855384706  0.9738307623401499  0.13395079813219724  1.0000
  C   C105      1.0  0.7786508103961296  0.9248132709895173  0.09535389929554582  1.0000
  C   C106      1.0  0.665166889163217  0.8719739161171348  0.1520565020538029  1.0000
  C   C107      1.0  0.8087312463840136  0.8543750792930567  0.11374727224606569  1.0000
  C   C108      1.0  0.6323279767151957  0.9435159197482296  0.13305175645108852  1.0000
  C   C109      1.0  0.7544584420413398  0.8294729950567616  0.1411864027371053  1.0000
  C   C110      1.0  0.6878616552047846  0.9692758884214712  0.10536362596421607  1.0000
  C   C111      1.0  0.8896034697575033  0.7833827583072194  0.11708556194737693  1.0000
  C   C112      1.0  0.8279540614030266  0.7551834794319278  0.14843792697863736  1.0000
  S   S1        1.0  0.8643454413723077  0.7932829870200564  0.6055988807601194  1.0000
  S   S2        1.0  0.604815402651809  0.9579977979457442  0.6424073551279932  1.0000
  S   S3        1.0  0.21822047984563406  0.15053917110559212  0.4465987080885654  1.0000
  S   S4        1.0  0.29130551552152184  0.08224570200723492  0.3166132281101994  1.0000
  S   S5        1.0  0.287549508326414  0.514600661488558  0.8903510762465814  1.0000
  S   S6        1.0  0.20668764084885544  0.7440792291744103  0.8589414564729125  1.0000
  S   S7        1.0  0.8114009348995167  0.4580469704733972  0.14196060063994756  1.0000
  S   S8        1.0  0.7543278998792005  0.29379575246590417  0.10382448595836992  1.0000
  Cl  Cl1       1.0  0.9766199315661054  0.25782818837787863  0.6125848581518696  1.0000
  Cl  Cl2       1.0  0.8640867152720657  0.20124853199953213  0.674379660837353  1.0000
  Cl  Cl3       1.0  0.1516437909049059  0.557929125523252  0.3316734911479386  1.0000
  Cl  Cl4       1.0  0.2797760070751635  0.6000687674434959  0.2710174179803246  1.0000
  Cl  Cl5       1.0  0.9636412465519157  0.532566752856184  0.32830372638873934  1.0000
  Cl  Cl6       1.0  0.8492731086453916  0.6017118840728916  0.2710117393353642  1.0000
  Cl  Cl7       1.0  0.2116916829520648  0.5664903220235403  0.5877419034822609  1.0000
  Cl  Cl8       1.0  0.3293498106885409  0.5070558055929908  0.6447938473566595  1.0000
  Cl  Cl9       1.0  0.525508122254827  0.19651859747407494  0.9286771835211881  1.0000
  Cl  Cl10      1.0  0.6421228360801905  0.14386105356364706  0.9862992788761816  1.0000
  Cl  Cl11      1.0  0.2761767716248187  0.09862965087657471  0.7652864971132659  1.0000
  Cl  Cl12      1.0  0.17178628986363978  0.031198177523684506  0.8239942339609457  1.0000
  Cl  Cl13      1.0  0.2744436704585738  0.7060697152273576  0.17156675143063183  1.0000
  Cl  Cl14      1.0  0.16676510432265687  0.7566464397406422  0.10945915507387843  1.0000
  Cl  Cl15      1.0  0.523577007431406  0.002773596760256701  0.1435037751259856  1.0000
  Cl  Cl16      1.0  0.6419011536183631  0.0552881414487842  0.0828806212190045  1.0000
  O   O1        1.0  8.784733687859388e-05  0.5000341686455485  0.501555042472944  1.0000
  O   O2        1.0  0.8318762040601438  0.5609785091273597  0.4675530797177032  1.0000
  O   O3        1.0  0.09765740444940009  0.36804345820208795  0.4224505144088653  1.0000
  O   O4        1.0  0.9617644190803032  0.3755044630041482  0.5562428133501456  1.0000
  O   O5        1.0  0.9528314805064111  0.5421001045495616  0.4154165902506577  1.0000
  O   O6        1.0  0.8351401697393609  0.48209245426311054  0.5583274165273551  1.0000
  O   O7        1.0  0.13141487585960476  0.31216938756396934  0.4827639712702094  1.0000
  O   O8        1.0  0.11325368639610645  0.40713212172211405  0.5645963475212383  1.0000
  O   O9        1.0  0.9425639977784427  0.6542904665547838  0.5546964810603114  1.0000
  O   O10       1.0  0.1297253414073296  0.5135538186834055  0.5451059216901513  1.0000
  O   O11       1.0  0.8235126700292877  0.6510141292947936  0.5479294323743886  1.0000
  O   O12       1.0  0.13751299235229192  0.5086660273636028  0.4191211818409002  1.0000
  O   O13       1.0  0.09090312564987343  0.6112107012554379  0.4656258568977166  1.0000
  O   O14       1.0  0.49962689102547125  0.25078544012043125  0.7499933612228773  1.0000
  O   O15       1.0  0.6877088768359129  0.23087450828597164  0.6979091357280822  1.0000
  O   O16       1.0  0.40432015393368187  0.43781619935183613  0.7697946294338252  1.0000
  O   O17       1.0  0.5356295676119912  0.22359446186221993  0.8411492382641939  1.0000
  O   O18       1.0  0.5848964110319059  0.355617837224628  0.7012546314444066  1.0000
  O   O19       1.0  0.6605019231495035  0.15726166743373682  0.788962981164282  1.0000
  O   O20       1.0  0.38042871281489  0.37884037402466936  0.8312743493863124  1.0000
  O   O21       1.0  0.3667700248044454  0.22358887683863324  0.8312286657742405  1.0000
  O   O22       1.0  0.5357319763024648  0.108040038826708  0.6880926308285138  1.0000
  O   O23       1.0  0.3798136304759723  0.16731530016580365  0.7692614404467264  1.0000
  O   O24       1.0  0.6576207127908092  0.08591441557605609  0.7046094032420385  1.0000
  O   O25       1.0  0.42042295350574216  0.36656167467421613  0.6812624018920133  1.0000
  O   O26       1.0  0.3729088096600888  0.276993167841745  0.6931848427819105  1.0000
  O   O27       1.0  0.5008780785553453  0.7492315891266019  0.25116161775351037  1.0000
  O   O28       1.0  0.39770347719422716  0.7011445589943507  0.3351455325676654  1.0000
  O   O29       1.0  0.565878340049167  0.5869508152031387  0.20007284459921953  1.0000
  O   O30       1.0  0.675364408658261  0.6667529267827489  0.27557003874270697  1.0000
  O   O31       1.0  0.38605432686249214  0.6650749222775972  0.2735845822686827  1.0000
  O   O32       1.0  0.5672200113951504  0.7130885372722063  0.3374086961523375  1.0000
  O   O33       1.0  0.6802860229246832  0.6108498083964804  0.18774277602404502  1.0000
  O   O34       1.0  0.6580556742565733  0.7795293223958597  0.19935340287501188  1.0000
  O   O35       1.0  0.38847147772334945  0.9297045412318499  0.27793467350941375  1.0000
  O   O36       1.0  0.533379894193253  0.8687766421557939  0.18668147367234406  1.0000
  O   O37       1.0  0.3962725566459822  0.8629781089926286  0.3381885179254382  1.0000
  O   O38       1.0  0.40787500521062714  0.7372253664959418  0.18360480584455985  1.0000
  O   O39       1.0  0.35734935544191154  0.8639923253764082  0.20268174337913789  1.0000
  O   O40       1.0  0.9991826844092273  0.0015651023193044005  0.0008681985250901939  1.0000
  O   O41       1.0  0.08405127624985909  0.8913356369954287  0.06757358721369398  1.0000
  O   O42       1.0  0.9935462706512295  0.14963802822590824  0.047043838858584826  1.0000
  O   O43       1.0  0.8186834218383795  0.0198965353542278  0.06420731918922225  1.0000
  O   O44       1.0  0.13791587978798245  0.9760587929832668  0.05008487498591308  1.0000
  O   O45       1.0  0.9179171030447928  0.8929793933309967  0.052747459720293884  1.0000
  O   O46       1.0  0.8622655891014261  0.15620404284319278  0.056542455547472066  1.0000
  O   O47       1.0  0.8183148329757729  0.10790773565407363  0.9786042148061469  1.0000
  O   O48       1.0  0.09870974248774893  0.8794560008672294  0.9185379726923912  1.0000
  O   O49       1.0  0.9172131131743627  0.024216869171894508  0.9217622811438845  1.0000
  O   O50       1.0  0.09293660623774253  0.8168072199006604  0.9801682591862784  1.0000
  O   O51       1.0  0.1418591673586391  0.05827499397095441  0.9619633073923524  1.0000
  O   O52       1.0  0.07999358039394619  0.05031802526026751  0.9124408782350955  1.0000
  F   F1        1.0  0.6648750150041423  0.7932847214868558  0.5854137614405488  1.0000
  F   F2        1.0  0.1820236452533166  0.2709186873222222  0.34738966805364413  1.0000
  F   F3        1.0  0.32290358092219423  0.6017194382859188  0.7800038366396862  1.0000
  F   F4        1.0  0.593867892502054  0.45537808959903003  0.1589284015621359  1.0000
