data_image0
_chemical_formula_structural       CuH16C20N14O6
_chemical_formula_sum              "Cu1 H16 C20 N14 O6"
_cell_length_a       7.307542486912492
_cell_length_b       8.728131790081223
_cell_length_c       9.581305339812456
_cell_angle_alpha    81.72798136204467
_cell_angle_beta     75.60712700352349
_cell_angle_gamma    81.98957679398183

_space_group_name_H-M_alt    "P 1"
_space_group_IT_number       1

loop_
  _space_group_symop_operation_xyz
  'x, y, z'

loop_
  _atom_site_type_symbol
  _atom_site_label
  _atom_site_symmetry_multiplicity
  _atom_site_fract_x
  _atom_site_fract_y
  _atom_site_fract_z
  _atom_site_occupancy
  Cu  Cu1       1.0  8.475674915080232e-08  0.5000004401635254  1.375050757701522e-06  1.0000
  H   H1        1.0  0.5890240738335849  0.3872327272982048  0.13684849711749789  1.0000
  H   H2        1.0  0.4109789314537053  0.6127659112827715  0.8631507503742526  1.0000
  H   H3        1.0  0.798283606133765  0.801005244877544  0.17800351583087357  1.0000
  H   H4        1.0  0.2017041730100857  0.1990015412950683  0.8219955380129208  1.0000
  H   H5        1.0  0.4263362409256786  0.6583188538706254  0.5623169377987125  1.0000
  H   H6        1.0  0.5736590496884164  0.3416739589720806  0.43768353299020646  1.0000
  H   H7        1.0  0.22908093640224786  0.8529376201105521  0.7239243838304503  1.0000
  H   H8        1.0  0.7709208496066892  0.14705985136745883  0.2760794292131621  1.0000
  H   H9        1.0  0.10929440966208398  0.11115331122327632  0.6141329853079895  1.0000
  H   H10       1.0  0.8907045216064516  0.8888441606305763  0.3858682522363708  1.0000
  H   H11       1.0  0.40327145769364137  0.9893967243152488  0.1872581701722211  1.0000
  H   H12       1.0  0.5967298655800307  0.010604240921978201  0.8127452740313643  1.0000
  H   H13       1.0  0.1910543875643356  0.16709044749816124  0.11504723673115082  1.0000
  H   H14       1.0  0.8089513182182628  0.8329093552933671  0.8849544633131784  1.0000
  H   H15       1.0  0.9988242051535536  0.5621875751158854  0.34190303124103133  1.0000
  H   H16       1.0  0.0011745718698960709  0.43781106132437503  0.6580980833566556  1.0000
  C   C1        1.0  0.5947987262655516  0.4993864728220745  0.17101717576705516  1.0000
  C   C2        1.0  0.4052000311772587  0.5006121646016339  0.8289818550652513  1.0000
  C   C3        1.0  0.7063512125797331  0.7092846122896364  0.18917093388581915  1.0000
  C   C4        1.0  0.2936444110034627  0.2907163532075572  0.8108284012019666  1.0000
  C   C5        1.0  0.4206301212333017  0.8150760916358168  0.367871339627321  1.0000
  C   C6        1.0  0.5793632939608103  0.18492021441643663  0.6321290373959912  1.0000
  C   C7        1.0  0.37440361057389987  0.7731645246904009  0.5174707891258592  1.0000
  C   C8        1.0  0.6255924855348809  0.22683294655585945  0.482529956684651  1.0000
  C   C9        1.0  0.26537015500917244  0.8818087479465292  0.6063991694061954  1.0000
  C   C10       1.0  0.7346304974342601  0.11818639528419078  0.3936020389571055  1.0000
  C   C11       1.0  0.20074549223020455  0.028260276911645104  0.5458270181151974  1.0000
  C   C12       1.0  0.7992536128640637  0.9717360293723659  0.4541764261412311  1.0000
  C   C13       1.0  0.25035464836345506  0.06614711857268671  0.395800283460119  1.0000
  C   C14       1.0  0.749641313080872  0.933851516276526  0.6042024231690988  1.0000
  C   C15       1.0  0.3627944542316328  0.9610962950550572  0.30449870507587923  1.0000
  C   C16       1.0  0.6372047953174019  0.038898847134277  0.6955038202445323  1.0000
  C   C17       1.0  0.15829496138704255  0.24901465683446836  0.19528533477539162  1.0000
  C   C18       1.0  0.8417094957462368  0.7509839803292737  0.8047178051727144  1.0000
  C   C19       1.0  0.05685735946863698  0.44593639627436243  0.31490384750177464  1.0000
  C   C20       1.0  0.9431442625048944  0.5540622402817734  0.685098800712474  1.0000
  N   N1        1.0  0.7507796956324668  0.5797298348431424  0.12253042294392467  1.0000
  N   N2        1.0  0.24921893693621658  0.42026996569179437  0.8774716105897866  1.0000
  N   N3        1.0  0.5303392784324858  0.7042072187882128  0.27511974512628273  1.0000
  N   N4        1.0  0.46965680788597564  0.29579025294977157  0.7248799588015302  1.0000
  N   N5        1.0  0.45711969356794663  0.5713217911613171  0.2649122064149196  1.0000
  N   N6        1.0  0.5428779596803252  0.42867451653992117  0.7350873453851533  1.0000
  N   N7        1.0  0.18007024434799493  0.21241059640670562  0.33226400814902485  1.0000
  N   N8        1.0  0.8199312135901236  0.7875892052275617  0.6677374752358531  1.0000
  N   N9        1.0  0.11468393065424462  0.3365397083210553  0.41016285640275635  1.0000
  N   N10       1.0  0.8853148659498447  0.663458927135757  0.5898403419603254  1.0000
  N   N11       1.0  0.08104526070741967  0.3968061023155797  0.18126521309986293  1.0000
  N   N12       1.0  0.9189590226001413  0.6031937004180108  0.8187357201361891  1.0000
  N   N13       1.0  0.8302180967965782  0.13666360833840943  0.9609332694225401  1.0000
  N   N14       1.0  0.1697853369629811  0.8633420212609908  0.03905871401860139  1.0000
  O   O1        1.0  0.8574054879018007  0.2501946112510964  0.020814815958502254  1.0000
  O   O2        1.0  0.14260538630377076  0.7498086884817425  0.9791833311827531  1.0000
  O   O3        1.0  0.950663452455828  0.09342524508704741  0.8499052280475324  1.0000
  O   O4        1.0  0.04933908030587728  0.906576887744862  0.1500926087215078  1.0000
  O   O5        1.0  0.6832984111279713  0.06729205180063501  0.013487309050795192  1.0000
  O   O6        1.0  0.3167006646015977  0.9327252220717454  0.9865050369551227  1.0000
