data_image0
_chemical_formula_structural       Cu2H16C24N4O8
_chemical_formula_sum              "Cu2 H16 C24 N4 O8"
_cell_length_a       7.791481020968514
_cell_length_b       7.833488529246812
_cell_length_c       10.148561364253458
_cell_angle_alpha    89.1836286789811
_cell_angle_beta     88.35813737988904
_cell_angle_gamma    60.17606173801391

_space_group_name_H-M_alt    "P 1"
_space_group_IT_number       1

loop_
  _space_group_symop_operation_xyz
  'x, y, z'

loop_
  _atom_site_type_symbol
  _atom_site_label
  _atom_site_symmetry_multiplicity
  _atom_site_fract_x
  _atom_site_fract_y
  _atom_site_fract_z
  _atom_site_occupancy
  Cu  Cu1       1.0  0.5663427745533625  0.8673533763818424  0.2500089559221053  1.0000
  Cu  Cu2       1.0  0.4336519907659877  0.132647229328775  0.7499938626434001  1.0000
  H   H1        1.0  0.39397591658725867  0.5262608571764602  0.0722349346800257  1.0000
  H   H2        1.0  0.07976895316565454  0.526263563098034  0.42777334711843906  1.0000
  H   H3        1.0  0.6060149574129738  0.47376034877543555  0.9277519745176546  1.0000
  H   H4        1.0  0.9202114757399259  0.47376058589868103  0.5722344557216558  1.0000
  H   H5        1.0  0.1466569005621069  0.7066822142840931  0.2500023254762239  1.0000
  H   H6        1.0  0.853344482334336  0.2933051483387246  0.7499945810069946  1.0000
  H   H7        1.0  0.579219504234274  0.5719242365462874  0.42810401676563703  1.0000
  H   H8        1.0  0.8488414219513277  0.5719220306174221  0.07189038762302148  1.0000
  H   H9        1.0  0.4207781891326619  0.428080783463649  0.5718977013862059  1.0000
  H   H10       1.0  0.1511494758122964  0.4280888752462388  0.9281104314867291  1.0000
  H   H11       1.0  0.7584780091226407  0.20102251778641286  0.4366517654811445  1.0000
  H   H12       1.0  0.040500665039289216  0.20101814027609774  0.06334771598704948  1.0000
  H   H13       1.0  0.2415217026101717  0.7989810307524646  0.5633479532104388  1.0000
  H   H14       1.0  0.9595001425068332  0.7989883511380496  0.936650959824881  1.0000
  H   H15       1.0  0.9930059259971886  0.014001858686960099  0.25000219257223927  1.0000
  H   H16       1.0  0.006993410749316857  0.9860075756349926  0.7499974685870257  1.0000
  C   C1        1.0  0.6205018985116625  0.09928621515705059  0.05483784231479659  1.0000
  C   C2        1.0  0.2802219047921639  0.09928339154000548  0.4451702568864562  1.0000
  C   C3        1.0  0.3795290621925743  0.900670246802022  0.9451636744474712  1.0000
  C   C4        1.0  0.7197782395374477  0.9006730707649592  0.5548309649444931  1.0000
  C   C5        1.0  0.46481811055785743  0.23995973052096523  0.15202661989136598  1.0000
  C   C6        1.0  0.2952240828644719  0.23995757827122333  0.3479748045038703  1.0000
  C   C7        1.0  0.5351952343980741  0.7600011459692055  0.8479742567338276  1.0000
  C   C8        1.0  0.7047909047902436  0.7600077125291875  0.6520230297825407  1.0000
  C   C9        1.0  0.36500375701857024  0.4448654133731509  0.14902426603246965  1.0000
  C   C10       1.0  0.19013183764440808  0.4448677456968184  0.35098311202746396  1.0000
  C   C11       1.0  0.6349785488609213  0.5551293067134963  0.8509867805078454  1.0000
  C   C12       1.0  0.8098805304883641  0.5551284454488793  0.6490016250972417  1.0000
  C   C13       1.0  0.22671849013333661  0.5465645831204923  0.2500022355022011  1.0000
  C   C14       1.0  0.7732611982665605  0.4534610373167708  0.7499986699150226  1.0000
  C   C15       1.0  0.6835969290252919  0.4820161773460256  0.35062488363756467  1.0000
  C   C16       1.0  0.8343712763180026  0.4820111743103297  0.14936953831518446  1.0000
  C   C17       1.0  0.3164042528263596  0.5179844282832561  0.6493728643604868  1.0000
  C   C18       1.0  0.16562605629504654  0.5179894313695356  0.8506322373695381  1.0000
  C   C19       1.0  0.783702941492223  0.27764021276766465  0.3544237506970233  1.0000
  C   C20       1.0  0.9386602841949527  0.27763809181389115  0.1455721117245758  1.0000
  C   C21       1.0  0.21630043402838336  0.7223662786175069  0.6455748675803362  1.0000
  C   C22       1.0  0.06133831953448521  0.7223728139681994  0.8544314908200619  1.0000
  C   C23       1.0  0.9129568582417777  0.17408417503617102  0.2500023976019036  1.0000
  C   C24       1.0  0.0870457978134027  0.8259134876942085  0.7499992917798366  1.0000
  N   N1        1.0  0.7087045267570391  0.582578660560415  0.2499976557896915  1.0000
  N   N2        1.0  0.2912959207159814  0.4174234165254448  0.7500020629013304  1.0000
  N   N3        1.0  0.4266066226260323  0.1467752137455633  0.2500013274704003  1.0000
  N   N4        1.0  0.5733833505426702  0.853240106459097  0.7499974921813432  1.0000
  O   O1        1.0  0.6997024445753087  0.9146423458746039  0.08803829799048658  1.0000
  O   O2        1.0  0.3856680780697348  0.9146464639545397  0.41197129970408497  1.0000
  O   O3        1.0  0.3002790815051384  0.08538474600094759  0.9119704326623645  1.0000
  O   O4        1.0  0.614308849416254  0.08538209938900111  0.5880217517119276  1.0000
  O   O5        1.0  0.663273818045731  0.16115131450275294  0.9525604279754913  1.0000
  O   O6        1.0  0.1755890511015395  0.16115017615523183  0.547453499199527  1.0000
  O   O7        1.0  0.33672242556184545  0.8388463483196344  0.0474522440509233  1.0000
  O   O8        1.0  0.8244007555502438  0.8388474866950869  0.4525346830082312  1.0000
