data_image0
_chemical_formula_structural       Ag8H16C24S8O16
_chemical_formula_sum              "Ag8 H16 C24 S8 O16"
_cell_length_a       5.473000943018354
_cell_length_b       12.351881989332474
_cell_length_c       12.652815077059472
_cell_angle_alpha    94.83188337599918
_cell_angle_beta     90.00026439022508
_cell_angle_gamma    89.99985340910341

_space_group_name_H-M_alt    "P 1"
_space_group_IT_number       1

loop_
  _space_group_symop_operation_xyz
  'x, y, z'

loop_
  _atom_site_type_symbol
  _atom_site_label
  _atom_site_symmetry_multiplicity
  _atom_site_fract_x
  _atom_site_fract_y
  _atom_site_fract_z
  _atom_site_occupancy
  Ag  Ag1       1.0  0.1459814785824065  0.12107690726158893  0.9797529905406893  1.0000
  Ag  Ag2       1.0  0.6459883744057535  0.37893047154701526  0.02024155384835072  1.0000
  Ag  Ag3       1.0  0.8540246258940198  0.8789237204074709  0.020240646844726515  1.0000
  Ag  Ag4       1.0  0.3540232115392498  0.6210782984075821  0.9797590544626049  1.0000
  Ag  Ag5       1.0  0.7855819868340529  0.9094567866658778  0.494435976050852  1.0000
  Ag  Ag6       1.0  0.28558116744797957  0.5905461202159047  0.5055652400188891  1.0000
  Ag  Ag7       1.0  0.21441315476486983  0.0905438563311733  0.5055631949296214  1.0000
  Ag  Ag8       1.0  0.7144176284625131  0.4094504603906445  0.4944336075652488  1.0000
  H   H1        1.0  0.8570034504469034  0.581195989431386  0.6618266186867815  1.0000
  H   H2        1.0  0.3569990726216119  0.9188019682750693  0.33817434594728735  1.0000
  H   H3        1.0  0.14299534547571108  0.4187989705975214  0.3381736805675717  1.0000
  H   H4        1.0  0.6429887603886539  0.08120275024777608  0.6618298915164971  1.0000
  H   H5        1.0  0.5843929384657329  0.5680548985508551  0.7378550342298597  1.0000
  H   H6        1.0  0.08439133392616328  0.9319400819378958  0.26214119753793613  1.0000
  H   H7        1.0  0.41560951172183985  0.4319416689203948  0.2621390702673026  1.0000
  H   H8        1.0  0.9156056348383785  0.06805975514718202  0.7378602803095549  1.0000
  H   H9        1.0  0.9458184388270324  0.6440310578748694  0.8486080798697205  1.0000
  H   H10       1.0  0.4458142381833951  0.8559668096123475  0.1513938452053979  1.0000
  H   H11       1.0  0.0541730484811964  0.3559663374021014  0.15139162290246597  1.0000
  H   H12       1.0  0.5541790762905947  0.14403710080772217  0.8486119086138191  1.0000
  H   H13       1.0  0.9533236467952904  0.7583045940067095  0.769760033699605  1.0000
  H   H14       1.0  0.45333186703749817  0.7416949015651468  0.23024598768210328  1.0000
  H   H15       1.0  0.04667697627156999  0.24169524307646378  0.2302414441513819  1.0000
  H   H16       1.0  0.546676064647599  0.25830819636960467  0.7697597014711308  1.0000
  C   C1        1.0  0.2635492630790779  0.8795774947981628  0.6305648352302742  1.0000
  C   C2        1.0  0.7635137708505795  0.6204270359032905  0.36942777234613555  1.0000
  C   C3        1.0  0.7364751129080601  0.12042719962779103  0.3694307066026142  1.0000
  C   C4        1.0  0.236490506513384  0.37956954470040943  0.6305710752432463  1.0000
  C   C5        1.0  0.4233597522192979  0.8121502693129516  0.6977955652430057  1.0000
  C   C6        1.0  0.923359722224262  0.687847621539362  0.3022063168668937  1.0000
  C   C7        1.0  0.5766299079359172  0.18784793844269393  0.30220420220740624  1.0000
  C   C8        1.0  0.07663176509051789  0.3121505905931273  0.6977950316154209  1.0000
  C   C9        1.0  0.7168665744859553  0.6259745813941893  0.7101387429930173  1.0000
  C   C10       1.0  0.21686923274479133  0.874021075926045  0.2898585974298698  1.0000
  C   C11       1.0  0.2831322213919023  0.37402523598985493  0.2898556202205144  1.0000
  C   C12       1.0  0.7831313903178625  0.12597875896823751  0.7101420899060432  1.0000
  C   C13       1.0  0.8370349413903284  0.6953443530662116  0.7997377290833189  1.0000
  C   C14       1.0  0.3370406746274456  0.8046560716000856  0.20026655345576938  1.0000
  C   C15       1.0  0.16294923727728158  0.3046522100367497  0.20025479436620233  1.0000
  C   C16       1.0  0.6629526398638673  0.1953494747199258  0.7997432822987778  1.0000
  C   C17       1.0  0.44364711171446203  0.8363079559136039  0.8039686441176104  1.0000
  C   C18       1.0  0.9436405998226504  0.663693154989268  0.1960303734605447  1.0000
  C   C19       1.0  0.5563480298834589  0.16368943279476875  0.1960286871128362  1.0000
  C   C20       1.0  0.0563563689050497  0.3363099166843996  0.803965829501266  1.0000
  C   C21       1.0  0.31784781165011816  0.9308572349859787  0.862673155273207  1.0000
  C   C22       1.0  0.817837531490305  0.5691342942860659  0.13733828421182184  1.0000
  C   C23       1.0  0.682167428773205  0.0691223426801528  0.137345677954464  1.0000
  C   C24       1.0  0.18216857301690229  0.4308639090832217  0.8626599022241594  1.0000
  S   S1        1.0  0.5661587751957383  0.7087804055551601  0.6174456378473466  1.0000
  S   S2        1.0  0.06615556014492799  0.7912227405724579  0.38255911098274015  1.0000
  S   S3        1.0  0.43383088492313243  0.29122266393341084  0.38254977459239115  1.0000
  S   S4        1.0  0.9338359271727087  0.20877791337098728  0.6174440125696281  1.0000
  S   S5        1.0  0.6176199691916793  0.7618067226276249  0.8900857358891727  1.0000
  S   S6        1.0  0.11761596361847639  0.7381906760465854  0.10991628709358993  1.0000
  S   S7        1.0  0.3823916167740578  0.23818741616131694  0.10991133663713985  1.0000
  S   S8        1.0  0.88239196802877  0.2618124021880774  0.890082287423944  1.0000
  O   O1        1.0  0.37437094663118126  0.9271988458984668  0.5579569143854146  1.0000
  O   O2        1.0  0.8743766828404488  0.5728015442991747  0.44204902061716933  1.0000
  O   O3        1.0  0.6256168863520059  0.0728066719687135  0.44204264466787196  1.0000
  O   O4        1.0  0.1256221131176503  0.42719262076320064  0.5579575380778509  1.0000
  O   O5        1.0  0.03732062859140941  0.8788747759711841  0.6463344518510541  1.0000
  O   O6        1.0  0.5373580506584402  0.6211243202403126  0.353663594322697  1.0000
  O   O7        1.0  0.9626544143452949  0.12112749418066222  0.3536656389852056  1.0000
  O   O8        1.0  0.4626407452412947  0.37887144132182016  0.646332817036239  1.0000
  O   O9        1.0  0.26976490153427324  0.0146873376890611  0.8156504970482674  1.0000
  O   O10       1.0  0.7697620073399422  0.4853215679335108  0.1843554807317959  1.0000
  O   O11       1.0  0.7302448572768937  0.9853230681664229  0.18435419319626337  1.0000
  O   O12       1.0  0.23024409710399135  0.5146896175681165  0.8156374164630338  1.0000
  O   O13       1.0  0.274588731441554  0.9211556116380849  0.9611106853197031  1.0000
  O   O14       1.0  0.7745736958085344  0.5788343114233571  0.038891055854215026  1.0000
  O   O15       1.0  0.7254392989064655  0.0788344713203912  0.038888435367745416  1.0000
  O   O16       1.0  0.22543423579381988  0.42116630311135594  0.961097838442477  1.0000
