data_image0
_chemical_formula_structural       Li2H58C46N2O6
_chemical_formula_sum              "Li2 H58 C46 N2 O6"
_cell_length_a       8.986241672550136
_cell_length_b       9.26163541128008
_cell_length_c       12.624009874346338
_cell_angle_alpha    76.04896252282201
_cell_angle_beta     86.5239970433083
_cell_angle_gamma    80.97226775204481

_space_group_name_H-M_alt    "P 1"
_space_group_IT_number       1

loop_
  _space_group_symop_operation_xyz
  'x, y, z'

loop_
  _atom_site_type_symbol
  _atom_site_label
  _atom_site_symmetry_multiplicity
  _atom_site_fract_x
  _atom_site_fract_y
  _atom_site_fract_z
  _atom_site_occupancy
  Li  Li1       1.0  0.38653731754804  0.569384601699923  0.4123531553074216  1.0000
  Li  Li2       1.0  0.6134643423401727  0.43061322263204704  0.5876466886970987  1.0000
  H   H1        1.0  0.9298749462931752  0.22732001174026095  0.21573438347260065  1.0000
  H   H2        1.0  0.07012543090817051  0.7726789271957555  0.7842645221805069  1.0000
  H   H3        1.0  0.7563744896979402  0.44808981973353906  0.11484652526520017  1.0000
  H   H4        1.0  0.24362889565331614  0.5519113751835362  0.8851518369682835  1.0000
  H   H5        1.0  0.995342867648873  0.9980423689905816  0.09645298879618744  1.0000
  H   H6        1.0  0.0046595725617209005  0.0019577307101315013  0.9035487831430657  1.0000
  H   H7        1.0  0.49114788814718935  0.7846046298152058  0.04362014824425131  1.0000
  H   H8        1.0  0.508856612991167  0.21539659104905695  0.9563805364711014  1.0000
  H   H9        1.0  0.5669068045184533  0.600920004861372  0.028514068755995905  1.0000
  H   H10       1.0  0.4330975280549509  0.3990823248732197  0.9714848372817712  1.0000
  H   H11       1.0  0.6829358273822451  0.7111506016967295  0.07185804140864598  1.0000
  H   H12       1.0  0.3170688414884708  0.2888494944567483  0.9281428405802713  1.0000
  H   H13       1.0  0.3702765101495302  0.1966946471453355  0.16209741433583247  1.0000
  H   H14       1.0  0.6297248146902561  0.8033054345284254  0.8379028258235691  1.0000
  H   H15       1.0  0.6151588875901481  0.8249414467499605  0.2546837118528628  1.0000
  H   H16       1.0  0.3848444977611081  0.1750597481671221  0.7453146503806208  1.0000
  H   H17       1.0  0.11331377702760653  0.22508577158087203  0.0919520411913695  1.0000
  H   H18       1.0  0.886689943788369  0.7749131739146405  0.9080467155892433  1.0000
  H   H19       1.0  0.6639940760784029  0.9979702752689619  0.07426936163341935  1.0000
  H   H20       1.0  0.3360045164878827  0.0020331761641472013  0.9257303859536279  1.0000
  H   H21       1.0  0.7754158123177889  0.020857808442961798  0.1792032636156549  1.0000
  H   H22       1.0  0.22458389395411163  0.9791456293361871  0.8207948529432018  1.0000
  H   H23       1.0  0.6170746098554787  0.15520598161069185  0.13422994285296136  1.0000
  H   H24       1.0  0.38292526498137397  0.8447963472981357  0.8657699523834808  1.0000
  H   H25       1.0  0.7918974274223843  0.0148885226610531  0.5886743799767089  1.0000
  H   H26       1.0  0.2081050119556168  0.9851115611992036  0.4113258105585302  1.0000
  H   H27       1.0  0.9032638717755574  0.15860594287339316  0.5964367543216866  1.0000
  H   H28       1.0  0.09673600222870253  0.8413963701949709  0.4035615595107273  1.0000
  H   H29       1.0  0.9073354177492378  0.7790409980448345  0.2526711621532129  1.0000
  H   H30       1.0  0.09266574019078182  0.22096022418016042  0.7473304621366522  1.0000
  H   H31       1.0  0.9018155431779393  0.6169667437077563  0.20191630780360734  1.0000
  H   H32       1.0  0.09818466712363969  0.38303333577950127  0.7980839819799641  1.0000
  H   H33       1.0  0.8914388255054675  0.7968236895394225  0.11081799350618839  1.0000
  H   H34       1.0  0.10856104933138509  0.20317863936940475  0.8891819017302538  1.0000
  H   H35       1.0  0.49885014968192826  0.9224083679463885  0.4109997447649151  1.0000
  H   H36       1.0  0.5011539070150731  0.07758833604779618  0.5890001972648307  1.0000
  H   H37       1.0  0.5140197319712528  0.11063335006542725  0.33786440461547335  1.0000
  H   H38       1.0  0.48598415824227453  0.8893645024002195  0.6621377122467466  1.0000
  H   H39       1.0  0.6789637565199343  0.9794843987278906  0.37469448371883374  1.0000
  H   H40       1.0  0.3210414151315746  0.020512315373018498  0.6253061993887599  1.0000
  H   H41       1.0  0.10714862331165878  0.3293692836142128  0.355138528116079  1.0000
  H   H42       1.0  0.8928520906032986  0.670627429660932  0.6448631441901966  1.0000
  H   H43       1.0  0.24809135749815425  0.23716111434294618  0.4546324489416023  1.0000
  H   H44       1.0  0.7519101359065914  0.7628378584604858  0.5453695698953922  1.0000
  H   H45       1.0  0.3011088386146028  0.3567439112507528  0.3290896920928573  1.0000
  H   H46       1.0  0.6988915398356353  0.643255051445955  0.6709115856662891  1.0000
  H   H47       1.0  0.16245945759040134  0.6167961099489219  0.2444596649876942  1.0000
  H   H48       1.0  0.8375409200272372  0.38320283690732987  0.7555400313674241  1.0000
  H   H49       1.0  0.2864178820288927  0.604582309068867  0.0666110721790503  1.0000
  H   H50       1.0  0.7135832754948342  0.3954189052358997  0.9333897614087974  1.0000
  H   H51       1.0  0.1292619737525484  0.7198835699128094  0.9965628321226846  1.0000
  H   H52       1.0  0.8707401305770264  0.2801187712892385  0.0034377545674359857  1.0000
  H   H53       1.0  0.1107960715469574  0.5355276719526714  0.0754017400353817  1.0000
  H   H54       1.0  0.8892050847278695  0.4644735185914185  0.9245967214464345  1.0000
  H   H55       1.0  0.11138920619740843  0.5228128173907932  0.5814283098294765  1.0000
  H   H56       1.0  0.8886100577146222  0.477186143119411  0.4185730175538324  1.0000
  H   H57       1.0  0.07324951422354083  0.34593488698101976  0.567277379705601  1.0000
  H   H58       1.0  0.9267486351502755  0.6540640713426881  0.4327239973018706  1.0000
  C   C1        1.0  0.616468032572321  0.47858824377345127  0.25690017756586775  1.0000
  C   C2        1.0  0.3835334587509394  0.5214106894288406  0.743097887761067  1.0000
  C   C3        1.0  0.8366696923377644  0.28316321329518246  0.25708494693519407  1.0000
  C   C4        1.0  0.1633317994017887  0.7168357278273446  0.742913909093744  1.0000
  C   C5        1.0  0.6865296753468044  0.3077911761230822  0.4180841144842802  1.0000
  C   C6        1.0  0.31346958690002685  0.6922077527062098  0.5819140500909866  1.0000
  C   C7        1.0  0.336666922693297  0.8257314153711588  0.20143379327033986  1.0000
  C   C8        1.0  0.6633345702951488  0.17426754951204515  0.798567434864637  1.0000
  C   C9        1.0  0.5255562358220018  0.6171242369496851  0.19567197813859843  1.0000
  C   C10       1.0  0.47444620272340643  0.3828758310701159  0.8043266309926124  1.0000
  C   C11       1.0  0.4041678081573181  0.9547097417629545  0.200147155898918  1.0000
  C   C12       1.0  0.5958347989530424  0.045289217386517984  0.7998532319098857  1.0000
  C   C13       1.0  0.5844599934817226  0.4294477444125348  0.3719053139311654  1.0000
  C   C14       1.0  0.4155392687651159  0.5705511844167642  0.6280928506441014  1.0000
  C   C15       1.0  0.7369100886731275  0.40695005635954823  0.20214309804542546  1.0000
  C   C16       1.0  0.26309123533406614  0.5930500094737496  0.7978555607099551  1.0000
  C   C17       1.0  0.10882686943052283  0.9852974234017038  0.1267223709045453  1.0000
  C   C18       1.0  0.8911735094360084  0.014701547215231897  0.8732796975566117  1.0000
  C   C19       1.0  0.1867696857144239  0.8409347464013874  0.16679801146684534  1.0000
  C   C20       1.0  0.8132318076903218  0.1590642264020445  0.8332040073701421  1.0000
  C   C21       1.0  0.8086211994475295  0.23542009565833408  0.3680787406959851  1.0000
  C   C22       1.0  0.19137917775381647  0.7645788432776893  0.6319201649571226  1.0000
  C   C23       1.0  0.5681076400527729  0.68275260625078  0.07866134991102308  1.0000
  C   C24       1.0  0.4318957457147762  0.31724859658653043  0.9213378030244712  1.0000
  C   C25       1.0  0.3197193573863757  0.09678626159516307  0.16268928571427915  1.0000
  C   C26       1.0  0.6802819687023105  0.9032138438392817  0.8373133265511542  1.0000
  C   C27       1.0  0.5633229504897913  0.9434636239622802  0.23885917681428737  1.0000
  C   C28       1.0  0.4366778719855091  0.05653984768427729  0.7611420529284487  1.0000
  C   C29       1.0  0.1745578116179232  0.11301522037783227  0.12432427389655488  1.0000
  C   C30       1.0  0.8254423990999485  0.8869848670296603  0.8756768065890199  1.0000
  C   C31       1.0  0.6598303881233106  0.03439742611772089  0.1511607532808696  1.0000
  C   C32       1.0  0.34016931856488963  0.9656060195816561  0.8488381539799974  1.0000
  C   C33       1.0  0.8219095487996881  0.1257322312986275  0.5480365822116013  1.0000
  C   C34       1.0  0.17809066066929094  0.874267832348174  0.4519621261679489  1.0000
  C   C35       1.0  0.944854040357157  0.7250528014304437  0.18518930530368038  1.0000
  C   C36       1.0  0.05514616994442179  0.2749472780568211  0.8148109844798836  1.0000
  C   C37       1.0  0.5628670934175943  0.9917979232985912  0.3471305810887984  1.0000
  C   C38       1.0  0.43713662864727343  0.0082010459576125  0.6528705477978463  1.0000
  C   C39       1.0  0.21162720946281152  0.34021041169553706  0.3918807093083173  1.0000
  C   C40       1.0  0.7883720548655121  0.6597885567348952  0.6081214087770022  1.0000
  C   C41       1.0  0.11642061203527022  0.7007210096535059  0.17208819811966686  1.0000
  C   C42       1.0  0.8835826064162191  0.2992813258148103  0.8279115482442735  1.0000
  C   C43       1.0  0.1637673032920688  0.6360333283376105  0.07197011805820348  1.0000
  C   C44       1.0  0.8362338533990652  0.3639678701267001  0.9280291341256232  1.0000
  C   C45       1.0  0.0772660013546869  0.4636082675262542  0.5233864863270199  1.0000
  C   C46       1.0  0.9227332621410442  0.536390685063722  0.47661405035427856  1.0000
  N   N1        1.0  0.4135908273737172  0.6811586333491346  0.24654685244136232  1.0000
  N   N2        1.0  0.5864117793203506  0.3188403178801166  0.7534527446654238  1.0000
  O   O1        1.0  0.6891188371282339  0.23584887629859  0.5315606604665675  1.0000
  O   O2        1.0  0.31088042553489714  0.7641500604509303  0.46843829481070987  1.0000
  O   O3        1.0  0.8890935845819001  0.11962413378348194  0.4411425533639814  1.0000
  O   O4        1.0  0.11090696035180508  0.8803736804417638  0.5588565495626909  1.0000
  O   O5        1.0  0.19242012336695066  0.4688363218466165  0.43893369288998224  1.0000
  O   O6        1.0  0.8075780255905656  0.5311626285568635  0.5610668934154788  1.0000
