data_image0
_chemical_formula_structural       Na2H30C22S4N4O6
_chemical_formula_sum              "Na2 H30 C22 S4 N4 O6"
_cell_length_a       5.369597795246577
_cell_length_b       9.243101175614147
_cell_length_c       17.704321755958276
_cell_angle_alpha    122.05742598447908
_cell_angle_beta     81.01347119888538
_cell_angle_gamma    93.84891911245107

_space_group_name_H-M_alt    "P 1"
_space_group_IT_number       1

loop_
  _space_group_symop_operation_xyz
  'x, y, z'

loop_
  _atom_site_type_symbol
  _atom_site_label
  _atom_site_symmetry_multiplicity
  _atom_site_fract_x
  _atom_site_fract_y
  _atom_site_fract_z
  _atom_site_occupancy
  Na  Na1       1.0  0.3936673031059285  0.85248233142795  0.30810342891985  1.0000
  Na  Na2       1.0  0.6063524613016326  0.14751333402804812  0.6918922482706268  1.0000
  H   H1        1.0  0.35275999825812215  0.9306137256722096  0.5350605796804901  1.0000
  H   H2        1.0  0.6472860286821245  0.06935879539051377  0.46493486465688266  1.0000
  H   H3        1.0  0.2995017248510479  0.06969729439396133  0.2497534248130578  1.0000
  H   H4        1.0  0.7004840646841756  0.9303211573985878  0.750254162520861  1.0000
  H   H5        1.0  0.7949830795627263  0.6158275958985867  0.3771355634264709  1.0000
  H   H6        1.0  0.20502807716667346  0.3841707916477831  0.6228628712990844  1.0000
  H   H7        1.0  0.6629364750313654  0.6141562618163477  0.4859142975720305  1.0000
  H   H8        1.0  0.33709285026588276  0.3858154380424992  0.5140749582218903  1.0000
  H   H9        1.0  0.5925941454574042  0.5595508546969156  0.609911577038105  1.0000
  H   H10       1.0  0.40740300020657116  0.4404338513932089  0.39008319157163396  1.0000
  H   H11       1.0  0.8955129234303099  0.6655309088429603  0.719843071554749  1.0000
  H   H12       1.0  0.1044442926522677  0.33448542953662047  0.2801674461221638  1.0000
  H   H13       1.0  0.25100260133143565  0.8506142007672466  0.7139770984663163  1.0000
  H   H14       1.0  0.7489642174978997  0.14939868129086162  0.28603172388530146  1.0000
  H   H15       1.0  0.7542213239217831  0.49550360089470047  0.013250837176137495  1.0000
  H   H16       1.0  0.24578600165184364  0.5045115812854563  0.9867540092929732  1.0000
  H   H17       1.0  0.761071186056057  0.36146133493899407  0.0578767065399859  1.0000
  H   H18       1.0  0.2389491725141395  0.6385502419412179  0.9421211358728248  1.0000
  H   H19       1.0  0.5124588629009565  0.5164920108862461  0.10153524243347795  1.0000
  H   H20       1.0  0.48755561944194153  0.4835092854595757  0.8984649042876287  1.0000
  H   H21       1.0  0.5138325938697432  0.78497009451101  0.08385080060958933  1.0000
  H   H22       1.0  0.48614888806066836  0.2150542170678805  0.91615126946342  1.0000
  H   H23       1.0  0.6450888992070318  0.9901597175069979  0.12185050314587194  1.0000
  H   H24       1.0  0.3548678773773443  0.00987159899474951  0.8781519747789237  1.0000
  H   H25       1.0  0.08830768203271323  0.9053759930410763  0.0958857531142244  1.0000
  H   H26       1.0  0.91164789903911  0.09463071421170369  0.9041236759660694  1.0000
  H   H27       1.0  0.3226785099156687  0.9261182854084639  0.01897455862520301  1.0000
  H   H28       1.0  0.6772518484877988  0.0738846342921209  0.9810263249568084  1.0000
  H   H29       1.0  0.230827813080225  0.10651976122963445  0.12801500073351244  1.0000
  H   H30       1.0  0.7691045076644301  0.8934898667358199  0.8719882398669017  1.0000
  C   C1        1.0  0.06954240719110762  0.7828265380636735  0.45025353196924567  1.0000
  C   C2        1.0  0.9304764226460945  0.21714810447535635  0.5497414546326953  1.0000
  C   C3        1.0  0.0012542546725028665  0.7603876472015684  0.5272885062576409  1.0000
  C   C4        1.0  0.998778793221746  0.2395963711434064  0.4727082234260537  1.0000
  C   C5        1.0  0.7941108158426217  0.6652891744411492  0.5350538607373141  1.0000
  C   C6        1.0  0.2059252146321881  0.3346962349989155  0.4649331003377385  1.0000
  C   C7        1.0  0.7527807870474416  0.6334930482773942  0.6042133681969875  1.0000
  C   C8        1.0  0.24722086340047864  0.3664922997639195  0.3957833210017868  1.0000
  C   C9        1.0  0.9205814389144817  0.6967981868167784  0.6678163839678251  1.0000
  C   C10       1.0  0.07943412613358446  0.3032173385073166  0.3321874121988345  1.0000
  C   C11       1.0  0.12114445487370752  0.7975922764232521  0.6643794930071681  1.0000
  C   C12       1.0  0.8788374377751395  0.20240458211247875  0.3356231476911234  1.0000
  C   C13       1.0  0.16102546618449745  0.8320912748488851  0.5952526676838803  1.0000
  C   C14       1.0  0.8389988128194826  0.16789422517046404  0.40474660373345034  1.0000
  C   C15       1.0  0.8474207493399604  0.6111121220413976  0.24333873039127957  1.0000
  C   C16       1.0  0.15260868746741335  0.3888924196417349  0.7566597449463404  1.0000
  C   C17       1.0  0.7132630030772305  0.48913418030566896  0.07419148523204204  1.0000
  C   C18       1.0  0.2867479875338362  0.5108683705186295  0.9258058968731648  1.0000
  C   C19       1.0  0.4698733433935516  0.9225112982906722  0.12483864476376287  1.0000
  C   C20       1.0  0.5300863487435377  0.07750548296915864  0.8751625263179437  1.0000
  C   C21       1.0  0.265423905308637  0.967810451294639  0.09009548439969009  1.0000
  C   C22       1.0  0.7345182588604046  0.03219848592610243  0.9099124437871215  1.0000
  S   S1        1.0  0.6196077701442491  0.4775483778066558  0.24761504195911505  1.0000
  S   S2        1.0  0.38040793714861804  0.5224451056245982  0.7523831745199703  1.0000
  S   S3        1.0  0.9093175913958615  0.6454218252358714  0.15212583599829804  1.0000
  S   S4        1.0  0.09069310557078553  0.35459071967742545  0.8478785836308734  1.0000
  N   N1        1.0  0.9925709651683474  0.7095523122435806  0.3057809523779299  1.0000
  N   N2        1.0  0.007467286308802511  0.29044520169887283  0.6942128423905489  1.0000
  N   N3        1.0  0.9384640503543338  0.6986558790149432  0.38078472747317  1.0000
  N   N4        1.0  0.06157696135345242  0.30134110722374174  0.6192160831953759  1.0000
  O   O1        1.0  0.2554423595568521  0.8754909087434513  0.4481162542794055  1.0000
  O   O2        1.0  0.7446063383360196  0.12449036684258641  0.5518783652099517  1.0000
  O   O3        1.0  0.35608653816778707  0.9309512284074727  0.5933514585703323  1.0000
  O   O4        1.0  0.6439326418896058  0.06901771823647353  0.4066437270356432  1.0000
  O   O5        1.0  0.39427600959164266  0.9610084643565879  0.21544813188148032  1.0000
  O   O6        1.0  0.6057023177498522  0.039003371451002515  0.7845541156352384  1.0000
