data_image0
_chemical_formula_structural       Ag4H40C40S16N12O12
_chemical_formula_sum              "Ag4 H40 C40 S16 N12 O12"
_cell_length_a       10.88924781617354
_cell_length_b       10.889243727969907
_cell_length_c       12.835748796509495
_cell_angle_alpha    92.3807316418907
_cell_angle_beta     92.3807526502543
_cell_angle_gamma    100.5879584190262

_space_group_name_H-M_alt    "P 1"
_space_group_IT_number       1

loop_
  _space_group_symop_operation_xyz
  'x, y, z'

loop_
  _atom_site_type_symbol
  _atom_site_label
  _atom_site_symmetry_multiplicity
  _atom_site_fract_x
  _atom_site_fract_y
  _atom_site_fract_z
  _atom_site_occupancy
  Ag  Ag1       1.0  0.35285175337796204  0.0209699667195125  0.5265034241668545  1.0000
  Ag  Ag2       1.0  0.9790294486162312  0.6471464434482712  0.9734953944058017  1.0000
  Ag  Ag3       1.0  0.6471478009993349  0.9790305904015854  0.4734962056578594  1.0000
  Ag  Ag4       1.0  0.0209688442994533  0.35285223727262865  0.026502568679788393  1.0000
  H   H1        1.0  0.05386159518324259  0.9407056869949529  0.6052275512553108  1.0000
  H   H2        1.0  0.059293637030485534  0.9461376551584738  0.8947726631724179  1.0000
  H   H3        1.0  0.9461368702296226  0.059293931667866714  0.3947727874824522  1.0000
  H   H4        1.0  0.9407046584190367  0.053861028095809595  0.10522763731256647  1.0000
  H   H5        1.0  0.9385369573068587  0.7176637053137825  0.6688699351830605  1.0000
  H   H6        1.0  0.2823352232650009  0.061462168236175806  0.8311304390177481  1.0000
  H   H7        1.0  0.06146225798838149  0.2823349818347012  0.33113039726922716  1.0000
  H   H8        1.0  0.7176630721845286  0.9385365150181074  0.16886986146723604  1.0000
  H   H9        1.0  0.34574415407500686  0.5051433297131709  0.5828204698608203  1.0000
  H   H10       1.0  0.4948557759603106  0.6542547920307058  0.9171782850799061  1.0000
  H   H11       1.0  0.6542523008384862  0.4948553449082597  0.4171789875564257  1.0000
  H   H12       1.0  0.505144698262697  0.3457457689845853  0.08282137671211127  1.0000
  H   H13       1.0  0.5050011729790782  0.5755381150809172  0.5615510197186353  1.0000
  H   H14       1.0  0.42446146071031887  0.49499864718256964  0.938447796000396  1.0000
  H   H15       1.0  0.4949991321252086  0.4244615113702965  0.43844938295373465  1.0000
  H   H16       1.0  0.5755401041663503  0.5050028539799172  0.06155271514483469  1.0000
  H   H17       1.0  0.5219695632668576  0.6965274430479556  0.7356687864370668  1.0000
  H   H18       1.0  0.30347168735579544  0.47802978447134603  0.7643307599003392  1.0000
  H   H19       1.0  0.4780289021460007  0.30347217561486417  0.2643315523006962  1.0000
  H   H20       1.0  0.6965278695553394  0.521970775183142  0.23567120732376876  1.0000
  H   H21       1.0  0.6432283499030618  0.7437506624999414  0.30565067801752827  1.0000
  H   H22       1.0  0.2562496080153949  0.3567713250271538  0.1943497079510053  1.0000
  H   H23       1.0  0.3567708645475633  0.2562480238040692  0.694348875301628  1.0000
  H   H24       1.0  0.7437517868979383  0.6432292407267965  0.8056507649414468  1.0000
  H   H25       1.0  0.5014112013935518  0.6742479838548479  0.1305016148307558  1.0000
  H   H26       1.0  0.3257532512028831  0.49858945757850404  0.3694980478907013  1.0000
  H   H27       1.0  0.4985892728294559  0.32575257716044353  0.8694980469612614  1.0000
  H   H28       1.0  0.6742472221755094  0.5014111025923285  0.6305008347681846  1.0000
  H   H29       1.0  0.24866263363247035  0.0586256436049197  0.18626093327864615  1.0000
  H   H30       1.0  0.9413755744858251  0.7513352290561456  0.31373946939888236  1.0000
  H   H31       1.0  0.7513369215894417  0.941374914360637  0.813739475679199  1.0000
  H   H32       1.0  0.05862639950193941  0.24866346893045232  0.6862601798221845  1.0000
  H   H33       1.0  0.2082782779914396  0.13277813388128834  0.3024139255527132  1.0000
  H   H34       1.0  0.8672209781741316  0.7917206623927344  0.19758642315557035  1.0000
  H   H35       1.0  0.791722197076183  0.8672224279784616  0.6975865153724355  1.0000
  H   H36       1.0  0.1327793260855401  0.2082789632140206  0.8024132003836683  1.0000
  H   H37       1.0  0.1150571320714562  0.9174938665029444  0.3702050559199818  1.0000
  H   H38       1.0  0.0825070435070785  0.8849429023162686  0.1297913565954119  1.0000
  H   H39       1.0  0.8849444285821448  0.08250763043722742  0.6297915595595922  1.0000
  H   H40       1.0  0.9174943480278018  0.1150576600598257  0.8702059997645079  1.0000
  C   C1        1.0  0.09041723008295575  0.8543236317560099  0.6056348009349647  1.0000
  C   C2        1.0  0.1456764479917325  0.909581777274795  0.8943646718923404  1.0000
  C   C3        1.0  0.9095814061378533  0.14567692315981873  0.3943663551887083  1.0000
  C   C4        1.0  0.8543229364222286  0.09041784443775921  0.10563491967959489  1.0000
  C   C5        1.0  0.030650601490549413  0.7416771400564601  0.6378452199297014  1.0000
  C   C6        1.0  0.2583215731341255  0.9693487136469585  0.8621565619677867  1.0000
  C   C7        1.0  0.9693475248402593  0.2583206086337455  0.36215582143563546  1.0000
  C   C8        1.0  0.7416778129690584  0.030650909754527306  0.1378445878704113  1.0000
  C   C9        1.0  0.2399376462466806  0.7421981747106019  0.5779995433898647  1.0000
  C   C10       1.0  0.2578023592410759  0.7600626300265105  0.9220008101342428  1.0000
  C   C11       1.0  0.7600619089752242  0.25780238325495475  0.4220008655679805  1.0000
  C   C12       1.0  0.7421990356722576  0.2399379357274399  0.0779996627582094  1.0000
  C   C13       1.0  0.4192816671524113  0.5882094941205196  0.5997585635071728  1.0000
  C   C14       1.0  0.4117902375263044  0.5807176363711123  0.9002402239358602  1.0000
  C   C15       1.0  0.580717377334878  0.4117882567749548  0.4002409515591977  1.0000
  C   C16       1.0  0.588211157387029  0.4192829293828383  0.09976024895659209  1.0000
  C   C17       1.0  0.4456842538795556  0.6184480045416266  0.7132806384117598  1.0000
  C   C18       1.0  0.38155138980314274  0.5543147375307456  0.7867173468671067  1.0000
  C   C19       1.0  0.554313290842977  0.38155160938254085  0.28671888922557537  1.0000
  C   C20       1.0  0.618448335382098  0.44568675584335443  0.21328310034351713  1.0000
  C   C21       1.0  0.564991256290533  0.7844868048648836  0.27744365954247735  1.0000
  C   C22       1.0  0.21551249474944711  0.43500718786169296  0.22255663114015076  1.0000
  C   C23       1.0  0.43500812896804314  0.21551281769213662  0.7225567111625891  1.0000
  C   C24       1.0  0.7844876403915109  0.564991503180984  0.7774437332794405  1.0000
  C   C25       1.0  0.49278381923101494  0.7471424392966742  0.18814980623997704  1.0000
  C   C26       1.0  0.25285910268779327  0.5072164832799615  0.3118498416839443  1.0000
  C   C27       1.0  0.5072164850286569  0.25285718631007376  0.8118498172992616  1.0000
  C   C28       1.0  0.7471432129158656  0.49278408721264105  0.6881514423089425  1.0000
  C   C29       1.0  0.4358051269427179  0.9212862067228258  0.28752033011834743  1.0000
  C   C30       1.0  0.07871318729220182  0.5641934108603764  0.21247992438419055  1.0000
  C   C31       1.0  0.5641933393147553  0.0787134127844595  0.7124807877525468  1.0000
  C   C32       1.0  0.9212872860861977  0.43580714931045617  0.7875189582746882  1.0000
  C   C33       1.0  0.23207333966090718  0.0456203788407237  0.26935502578931647  1.0000
  C   C34       1.0  0.9543801682973978  0.7679266745817092  0.23064542755093945  1.0000
  C   C35       1.0  0.7679262155609976  0.9543801791248328  0.7306453831685289  1.0000
  C   C36       1.0  0.04562139573465632  0.23207482573631927  0.7693543044611598  1.0000
  C   C37       1.0  0.13345942405553762  0.936211644498613  0.28863661054401035  1.0000
  C   C38       1.0  0.06379150215263252  0.8665397238911298  0.21136062772112038  1.0000
  C   C39       1.0  0.8665413875603036  0.0637907848003678  0.7113607903541704  1.0000
  C   C40       1.0  0.9362112191836686  0.13345804004773504  0.7886366778150631  1.0000
  S   S1        1.0  0.12351277485209522  0.6309399245488906  0.6246375792934697  1.0000
  S   S2        1.0  0.3690592413485945  0.8764874591198789  0.8753619455194651  1.0000
  S   S3        1.0  0.876486610406481  0.36905969800812954  0.37536279141159656  1.0000
  S   S4        1.0  0.6309403130287023  0.12351309800121872  0.12463768430524168  1.0000
  S   S5        1.0  0.3802070545461759  0.7192035198808997  0.5286049100627891  1.0000
  S   S6        1.0  0.28079478755074666  0.6197918580914674  0.9713953454213636  1.0000
  S   S7        1.0  0.6197925006757359  0.280797038084657  0.47139549889505605  1.0000
  S   S8        1.0  0.7192066098964318  0.3802087101958733  0.028607464870482588  1.0000
  S   S9        1.0  0.38040493912914297  0.8374314697887257  0.17261330682200077  1.0000
  S   S10       1.0  0.162567970045906  0.619593297544462  0.3273853852625307  1.0000
  S   S11       1.0  0.6195944452848182  0.16256815192383567  0.8273862847499343  1.0000
  S   S12       1.0  0.8374314135234472  0.3804063233236264  0.6726134271762729  1.0000
  S   S13       1.0  0.38347091496316926  0.051974903380809706  0.33873421648684837  1.0000
  S   S14       1.0  0.9480247567653562  0.6165298664157391  0.16126703505806003  1.0000
  S   S15       1.0  0.6165295601044534  0.9480256584789473  0.6612662244383003  1.0000
  S   S16       1.0  0.05197479930117052  0.38347069239428333  0.8387341530329167  1.0000
  N   N1        1.0  0.2089879532337591  0.8542156533939006  0.57286855501696  1.0000
  N   N2        1.0  0.14578392879911917  0.7910109243335484  0.9271309151468824  1.0000
  N   N3        1.0  0.7910105121790991  0.14578396526891885  0.427131783720803  1.0000
  N   N4        1.0  0.8542163754605524  0.20898870127319927  0.07286870839234887  1.0000
  N   N5        1.0  0.5323203918150127  0.8829351800626598  0.3337503530360663  1.0000
  N   N6        1.0  0.11706395302807242  0.4676780268690807  0.166249909959177  1.0000
  N   N7        1.0  0.4676789934435632  0.11706444249436032  0.666250017669  1.0000
  N   N8        1.0  0.8829361829574935  0.5323206650180552  0.8337512335935457  1.0000
  N   N9        1.0  0.22121671616887542  0.2634470903343455  0.5202354101453748  1.0000
  N   N10       1.0  0.7365527684793493  0.7787828142733986  0.979764188959528  1.0000
  N   N11       1.0  0.7787817492439828  0.7365525283284814  0.4797649285923881  1.0000
  N   N12       1.0  0.2634475349357146  0.22121681048889036  0.020234655446579094  1.0000
  O   O1        1.0  0.1817928826709192  0.1525304766231628  0.5485445852045032  1.0000
  O   O2        1.0  0.8474689969702566  0.818206762113647  0.9514550160001034  1.0000
  O   O3        1.0  0.818206502587657  0.8474691459338575  0.4514557855005633  1.0000
  O   O4        1.0  0.15253038744370434  0.18179285959890734  0.04854457557183169  1.0000
  O   O5        1.0  0.3010054694429983  0.2815114997162667  0.45023992880346936  1.0000
  O   O6        1.0  0.7184885897470606  0.698994172450334  0.04976046901756348  1.0000
  O   O7        1.0  0.698993165933203  0.7184890543550965  0.5497604481870723  1.0000
  O   O8        1.0  0.28151188447594677  0.30100638856495726  0.9502391927744538  1.0000
  O   O9        1.0  0.18119795405011271  0.3542964576774565  0.5624253188285165  1.0000
  O   O10       1.0  0.6457033444659644  0.8188013586545326  0.9375742497772065  1.0000
  O   O11       1.0  0.8188016011717989  0.6457041002880999  0.4375750901293357  1.0000
  O   O12       1.0  0.35429603994799663  0.1811982630580289  0.062425341794721596  1.0000
