data_image0
_chemical_formula_structural       Cu4H40C56N8O12
_chemical_formula_sum              "Cu4 H40 C56 N8 O12"
_cell_length_a       6.392996021
_cell_length_b       9.907819758324546
_cell_length_c       18.567
_cell_angle_alpha    90.0
_cell_angle_beta     90.0
_cell_angle_gamma    95.86666318007654

_space_group_name_H-M_alt    "P 1"
_space_group_IT_number       1

loop_
  _space_group_symop_operation_xyz
  'x, y, z'

loop_
  _atom_site_type_symbol
  _atom_site_label
  _atom_site_symmetry_multiplicity
  _atom_site_fract_x
  _atom_site_fract_y
  _atom_site_fract_z
  _atom_site_occupancy
  Cu  Cu1       1.0  0.8034319999381766  0.5144954841518299  0.546912263693649  1.0000
  Cu  Cu2       1.0  0.6965646645920742  0.985484153126592  0.04691764959336811  1.0000
  Cu  Cu3       1.0  0.1965619945592962  0.4854966902018347  0.4530823504066319  1.0000
  Cu  Cu4       1.0  0.3034375470498176  0.0144907727229224  0.9530877363063511  1.0000
  H   H1        1.0  0.2516370990610923  0.7513215046214867  0.3912791511822036  1.0000
  H   H2        1.0  0.248353811302465  0.7486652349821767  0.8912743038724643  1.0000
  H   H3        1.0  0.7483208008845708  0.24867980129319991  0.6087230031776798  1.0000
  H   H4        1.0  0.7516685743674215  0.2513086762494439  0.10871761727796782  1.0000
  H   H5        1.0  0.2202401471799362  0.978156582715947  0.341000161576993  1.0000
  H   H6        1.0  0.2797690515482146  0.5218271130340426  0.8410007001669655  1.0000
  H   H7        1.0  0.7797308663174647  0.0218386354913989  0.6589992998330345  1.0000
  H   H8        1.0  0.7202833755980009  0.4781488274333583  0.1589966068831785  1.0000
  H   H9        1.0  0.9078066646184979  0.1002990370222321  0.3684052350945208  1.0000
  H   H10       1.0  0.592206655988292  0.3996924843740928  0.8684068508644388  1.0000
  H   H11       1.0  0.09219162642919088  0.8997103858355828  0.6315974578553353  1.0000
  H   H12       1.0  0.40783109339435697  0.6002895438006632  0.1316006893951638  1.0000
  H   H13       1.0  0.6228485293952417  0.9868498288082251  0.44618247428233104  1.0000
  H   H14       1.0  0.8771432501860801  0.5131582177711566  0.9461840900522418  1.0000
  H   H15       1.0  0.377135169980967  0.0131859741147622  0.5538239887973262  1.0000
  H   H16       1.0  0.1228613723426264  0.486831927346728  0.0538282975171001  1.0000
  H   H17       1.0  0.4713223092953598  0.8142085361394323  0.5144713739430173  1.0000
  H   H18       1.0  0.028683964780959997  0.6857863204073597  0.0144670652232435  1.0000
  H   H19       1.0  0.5286645500921594  0.1857978428647158  0.4855350891366399  1.0000
  H   H20       1.0  0.9713452029596465  0.3142007808568508  0.9855345505466673  1.0000
  H   H21       1.0  0.46686373354195604  0.2805012622166672  0.713834760596761  1.0000
  H   H22       1.0  0.033125501487504  0.21949025917965773  0.21383314482684315  1.0000
  H   H23       1.0  0.5331483139606163  0.7195061314053675  0.2861620078634104  1.0000
  H   H24       1.0  0.9668616363055518  0.7805080028813621  0.786162546453383  1.0000
  H   H25       1.0  0.20584665390028786  0.1969129818634201  0.8070517584962573  1.0000
  H   H26       1.0  0.2941382529913099  0.3030907149475937  0.3070496041363739  1.0000
  H   H27       1.0  0.7941699685580303  0.8031035433196365  0.1929482415037427  1.0000
  H   H28       1.0  0.7058476850875337  0.696919722528115  0.6929444713739416  1.0000
  H   H29       1.0  0.8800737397071926  0.3117636686820546  0.8230134108902902  1.0000
  H   H30       1.0  0.6199200928207986  0.1882430719826402  0.3230236440997487  1.0000
  H   H31       1.0  0.1199447253684909  0.6882447395578738  0.1769822803899359  1.0000
  H   H32       1.0  0.3800752735750592  0.8117775116719842  0.6769817417999704  1.0000
  H   H33       1.0  0.8200022077473006  0.5126620696223299  0.7487870953842872  1.0000
  H   H34       1.0  0.679985318329848  0.9873388746318099  0.2488005601335672  1.0000
  H   H35       1.0  0.1799990079522118  0.4873361924386828  0.2512032099962269  1.0000
  H   H36       1.0  0.3199995377145228  0.0126746066975727  0.7512112888458021  1.0000
  H   H37       1.0  0.19400265234457945  0.637956218395658  0.6152022405342805  1.0000
  H   H38       1.0  0.3060102000306273  0.8620406673869212  0.1152087036139378  1.0000
  H   H39       1.0  0.8059957563828489  0.362044072901142  0.3847891420261789  1.0000
  H   H40       1.0  0.6940044506721961  0.1379535362025308  0.8848004524155755  1.0000
  C   C1        1.0  0.9599917931324311  0.7391450753085209  0.44962029407012244  1.0000
  C   C2        1.0  0.5400068431533072  0.7608568835635127  0.9496197554801499  1.0000
  C   C3        1.0  0.0399866883848787  0.2608775375818837  0.5503780901599598  1.0000
  C   C4        1.0  0.4600010254787961  0.2391241299933498  0.050381860289761  1.0000
  C   C5        1.0  0.1162516311213295  0.8043484794722034  0.4047622125276007  1.0000
  C   C6        1.0  0.3837529180173718  0.6956453624566947  0.9047638282975186  1.0000
  C   C7        1.0  0.883728371561773  0.1956639872392856  0.5952329401626529  1.0000
  C   C8        1.0  0.6162808993126774  0.3043315926285999  0.0952334787526254  1.0000
  C   C9        1.0  0.09640541157052951  0.93170230256478  0.3760182043410367  1.0000
  C   C10       1.0  0.40360226599182875  0.5682915393641181  0.8760203587009201  1.0000
  C   C11       1.0  0.9035697377512973  0.06830914952881531  0.6239796412990799  1.0000
  C   C12       1.0  0.5964503218801696  0.4316854157211766  0.12398179565896332  1.0000
  C   C13       1.0  0.9200523773542244  0.999975940467408  0.3909888511875934  1.0000
  C   C14       1.0  0.5799606152435075  0.5000179014614972  0.8909926213173948  1.0000
  C   C15       1.0  0.07994968502027432  3.75408619746e-05  0.6090106102224411  1.0000
  C   C16       1.0  0.4200832302606656  0.49996311209536515  0.10901868907200911  1.0000
  C   C17       1.0  0.763778271073555  0.9372339993079138  0.43452038563042095  1.0000
  C   C18       1.0  0.7362169153369535  0.5627659303283394  0.9345182312705305  1.0000
  C   C19       1.0  0.23619391055039776  0.0627784674035823  0.5654806915495244  1.0000
  C   C20       1.0  0.2638053956992366  0.4372272586432189  0.0654855388592637  1.0000
  C   C21       1.0  0.7783818220757368  0.807691645423894  0.4653169601982015  1.0000
  C   C22       1.0  0.7216038183380036  0.6923072695944654  0.9653169601982016  1.0000
  C   C23       1.0  0.22158145645460076  0.19232386514126892  0.534687887111545  1.0000
  C   C24       1.0  0.2783925009541903  0.30767983166974494  0.0346889642914832  1.0000
  C   C25       1.0  0.6071003287373529  0.7554144731948114  0.5103312328324421  1.0000
  C   C26       1.0  0.8928815833956277  0.7445905295308961  0.0103350029622433  1.0000
  C   C27       1.0  0.3928475114465257  0.2446121981671538  0.48966553562772935  1.0000
  C   C28       1.0  0.10712131419546007  0.2553986009691016  0.9896736144772973  1.0000
  C   C29       1.0  0.4524894910492989  0.4909705537251626  0.6257139010071597  1.0000
  C   C30       1.0  0.04749304800152739  0.0090280699963969  0.1257209026767896  1.0000
  C   C31       1.0  0.5474917543940521  0.5090398837505461  0.37427371142349136  1.0000
  C   C32       1.0  0.9524912828194444  0.9909722213004031  0.8742823288630391  1.0000
  C   C33       1.0  0.2927168000634026  0.4430339168348781  0.6789034308181172  1.0000
  C   C34       1.0  0.2072992303389896  0.0569687653582491  0.17891635697743172  1.0000
  C   C35       1.0  0.7073024686412097  0.5569795644945046  0.3210814886626778  1.0000
  C   C36       1.0  0.7927143813754185  0.9430386282637856  0.8210927990520815  1.0000
  C   C37       1.0  0.32392485235074986  0.32980661864225885  0.7218608283513746  1.0000
  C   C38       1.0  0.17607220373785987  0.1701849027540661  0.221865675661121  1.0000
  C   C39       1.0  0.6760915663357423  0.6701987457439955  0.2781305542090777  1.0000
  C   C40       1.0  0.823931176030591  0.8298072715996057  0.7781359401087969  1.0000
  C   C41       1.0  0.1770786524621499  0.2827182023090629  0.7733306403834774  1.0000
  C   C42       1.0  0.3228985940960811  0.21728650911984457  0.2733333333333334  1.0000
  C   C43       1.0  0.8229281025478272  0.7172952790203198  0.226666128076694  1.0000
  C   C44       1.0  0.6770732660762987  0.782723928355864  0.7266650508967558  1.0000
  C   C45       1.0  0.9955531354577118  0.3487921486234455  0.7826595572790467  1.0000
  C   C46       1.0  0.5044304651243152  0.1511993727728793  0.2826644045887861  1.0000
  C   C47       1.0  0.004456822609626005  0.6512020549660065  0.2173377497710973  1.0000
  C   C48       1.0  0.4955577977492425  0.848805991613375  0.7173350568212415  1.0000
  C   C49       1.0  0.9610385291977437  0.461289936552248  0.741273765282493  1.0000
  C   C50       1.0  0.5389754343121993  0.0387056433156374  0.2412753810524038  1.0000
  C   C51       1.0  0.038988795925512  0.5387052816550907  0.2587256961275415  1.0000
  C   C52       1.0  0.4610309562001689  0.9612956625990492  0.7587278504874249  1.0000
  C   C53       1.0  0.10809488167728179  0.5090967023524584  0.6889136640275737  1.0000
  C   C54       1.0  0.3919243452249859  0.9908910518690988  0.1889206656972036  1.0000
  C   C55       1.0  0.8919333647546424  0.4908944573833196  0.3110798728927691  1.0000
  C   C56       1.0  0.608088580540226  0.0091021371024596  0.8110841816125358  1.0000
  N   N1        1.0  0.5998399226646215  0.6433042693004651  0.547261269995154  1.0000
  N   N2        1.0  0.9001168443993495  0.8567098649862572  0.0472574998653528  1.0000
  N   N3        1.0  0.40009340048147374  0.3567295043867418  0.4527392685948186  1.0000
  N   N4        1.0  0.0998617117516645  0.1432934701642097  0.952741422954702  1.0000
  N   N5        1.0  0.427460738211316  0.6046858831234802  0.5891861905531286  1.0000
  N   N6        1.0  0.0725819088223432  0.8952917249191615  0.0891872677330738  1.0000
  N   N7        1.0  0.5725754900055406  0.3953062912301917  0.4108062691872689  1.0000
  N   N8        1.0  0.9274662648196993  0.1046771132230049  0.910814348036837  1.0000
  O   O1        1.0  0.9837464113290579  0.6141279172195055  0.4754850002692947  1.0000
  O   O2        1.0  0.5162379432783908  0.8858628808557185  0.9754866160392126  1.0000
  O   O3        1.0  0.016238444715320103  0.3858855641098771  0.524503150751336  1.0000
  O   O4        1.0  0.4837456155012987  0.1141029134327738  0.0245090752410206  1.0000
  O   O5        1.0  0.6146331063388359  0.4237389283968582  0.6167937738999285  1.0000
  O   O6        1.0  0.8853495729345155  0.0762566514710272  0.11680292992944172  1.0000
  O   O7        1.0  0.3853375110732884  0.5762735383146307  0.3832029945602429  1.0000
  O   O8        1.0  0.1146494356500227  0.9237375521184249  0.8832073032800096  1.0000
  O   O9        1.0  0.0662055588870842  0.6168186838671161  0.6477233801906621  1.0000
  O   O10       1.0  0.43378728018591767  0.8831802311512433  0.1477298432703193  1.0000
  O   O11       1.0  0.9337793717909901  0.3831755197223288  0.3522706953196533  1.0000
  O   O12       1.0  0.5662039503855141  0.1168241186171244  0.8522793127591939  1.0000
