data_image0
_chemical_formula_structural       Ho4P4H24C8O28
_chemical_formula_sum              "Ho4 P4 H24 C8 O28"
_cell_length_a       6.832625489437854
_cell_length_b       7.618453863297571
_cell_length_c       12.85763339741445
_cell_angle_alpha    90.00025664068697
_cell_angle_beta     89.99913743497754
_cell_angle_gamma    89.9990164608679

_space_group_name_H-M_alt    "P 1"
_space_group_IT_number       1

loop_
  _space_group_symop_operation_xyz
  'x, y, z'

loop_
  _atom_site_type_symbol
  _atom_site_label
  _atom_site_symmetry_multiplicity
  _atom_site_fract_x
  _atom_site_fract_y
  _atom_site_fract_z
  _atom_site_occupancy
  Ho  Ho1       1.0  0.7499727233869535  0.6370643639395724  0.6639241182759007  1.0000
  Ho  Ho2       1.0  0.24998711443841157  0.1370645463998414  0.8360784122998622  1.0000
  Ho  Ho3       1.0  0.24998780803363016  0.36293915413097727  0.33607378204089844  1.0000
  Ho  Ho4       1.0  0.7500085423803141  0.8629507848413668  0.1639249321316285  1.0000
  P   P1        1.0  0.7500223356037238  0.1873026557639079  0.36436685255321066  1.0000
  P   P2        1.0  0.2500417658632514  0.6873073447272376  0.13562051719844698  1.0000
  P   P3        1.0  0.24999527496544968  0.8126916736562109  0.6356326030246676  1.0000
  P   P4        1.0  0.7500124340032811  0.31269223476864033  0.864365716525384  1.0000
  H   H1        1.0  0.8799522941148367  0.060605948430229324  0.5212068628064088  1.0000
  H   H2        1.0  0.12053442570741879  0.5604722179171733  0.9787674682388284  1.0000
  H   H3        1.0  0.37989369437685366  0.9393995023382119  0.47880790941246676  1.0000
  H   H4        1.0  0.6204831851824365  0.43951229642858186  0.021233000170489895  1.0000
  H   H5        1.0  0.12048974979272489  0.9395091370508127  0.4787731475657182  1.0000
  H   H6        1.0  0.8798798129114402  0.4394065993087821  0.0211977647215704  1.0000
  H   H7        1.0  0.6205337152381958  0.06047537728283459  0.5212358760498502  1.0000
  H   H8        1.0  0.3799339775573003  0.5605922885974337  0.9787913419272626  1.0000
  H   H9        1.0  0.8704429995337222  0.6824300778699952  0.4492761177072139  1.0000
  H   H10       1.0  0.1296372940606787  0.18237347097004183  0.05076179288690949  1.0000
  H   H11       1.0  0.3704527335032424  0.3175702686542081  0.5507262846421455  1.0000
  H   H12       1.0  0.6296500140706344  0.8176292788366908  0.9492362708563531  1.0000
  H   H13       1.0  0.1296419337850239  0.3176364443190494  0.5507653360986708  1.0000
  H   H14       1.0  0.8704637398286436  0.8175749168314043  0.9492648834887872  1.0000
  H   H15       1.0  0.629635129312483  0.6823689307833407  0.4492358386804795  1.0000
  H   H16       1.0  0.3704510196419405  0.18243199252138  0.05072818581743379  1.0000
  H   H17       1.0  0.8617419637798844  0.9826852051896324  0.7659164604317181  1.0000
  H   H18       1.0  0.1374370525961837  0.4820024646625214  0.7341927427367166  1.0000
  H   H19       1.0  0.3617490397387683  0.017312650367216503  0.23407278825949615  1.0000
  H   H20       1.0  0.6374182093343707  0.5180461060718926  0.2657959272087638  1.0000
  H   H21       1.0  0.1374692138109239  0.0179785580452361  0.23419266165089428  1.0000
  H   H22       1.0  0.8616892511832218  0.5172646904699434  0.26593737706492243  1.0000
  H   H23       1.0  0.6374636172549302  0.9820227584953543  0.7658185626249788  1.0000
  H   H24       1.0  0.36170808404146015  0.48269641305365235  0.7340798708766698  1.0000
  C   C1        1.0  0.7501104576721146  0.30102600481011166  0.5713032155841944  1.0000
  C   C2        1.0  0.2501316449123366  0.8010001440248261  0.928695072749413  1.0000
  C   C3        1.0  0.25009302547522333  0.6989880122493375  0.4287063500177054  1.0000
  C   C4        1.0  0.7500952557042949  0.19899812155730254  0.0712966045340835  1.0000
  C   C5        1.0  0.750187604124328  0.14014533325510578  0.5044252248484824  1.0000
  C   C6        1.0  0.25018197355187516  0.6401488668421039  0.9955656459010455  1.0000
  C   C7        1.0  0.2501446732456145  0.8598345551329986  0.495579673716854  1.0000
  C   C8        1.0  0.7501385953855502  0.3598467727977095  0.0044221422722188  1.0000
  O   O1        1.0  0.9114251094665418  0.3723096727659724  0.5990760620212041  1.0000
  O   O2        1.0  0.0887614796986185  0.8722677106924906  0.9009504103795648  1.0000
  O   O3        1.0  0.4114332601378834  0.627691353976765  0.40092835305065916  1.0000
  O   O4        1.0  0.5887476008758837  0.1277553591456169  0.0990549729245416  1.0000
  O   O5        1.0  0.0887373933299926  0.6277397849136221  0.40094439226038486  1.0000
  O   O6        1.0  0.9114332223934624  0.1277069283749768  0.09906148844990528  1.0000
  O   O7        1.0  0.5887570520781723  0.3722478447334439  0.5990501025815219  1.0000
  O   O8        1.0  0.41145588210059  0.8723072241204762  0.9009343712896508  1.0000
  O   O9        1.0  0.7502150852598177  0.0068695143460573  0.3116594064617573  1.0000
  O   O10       1.0  0.2502285980495245  0.5068706730166994  0.18834304864508059  1.0000
  O   O11       1.0  0.2501698804132531  0.9931248122457036  0.6883416031757432  1.0000
  O   O12       1.0  0.7501753939670622  0.49313021642769433  0.8116548499341149  1.0000
  O   O13       1.0  0.9344661406698264  0.2948413297693548  0.3395125523476992  1.0000
  O   O14       1.0  0.0653310068506983  0.7944723418400841  0.16037087871683298  1.0000
  O   O15       1.0  0.43444480432940946  0.7051632794289163  0.6604846829028901  1.0000
  O   O16       1.0  0.565308829016594  0.2055156492954211  0.83961757737012  1.0000
  O   O17       1.0  0.0652894893907288  0.7055375937377945  0.6603819087594971  1.0000
  O   O18       1.0  0.9344685370274988  0.20517939968868154  0.8395313587563678  1.0000
  O   O19       1.0  0.565293267060362  0.2944451475311425  0.3396329909794105  1.0000
  O   O20       1.0  0.43448777843256176  0.7948278343821402  0.1604705428088238  1.0000
  O   O21       1.0  0.750006761838321  0.7059595661616884  0.4914445659248584  1.0000
  O   O22       1.0  0.2500145398390927  0.2059559044411685  0.0085552963567253  1.0000
  O   O23       1.0  0.2500152393531038  0.29404395143758694  0.508554111899663  1.0000
  O   O24       1.0  0.7500381963485693  0.7940436750960629  0.9914387148538706  1.0000
  O   O25       1.0  0.7498299401176284  0.9163509801214573  0.7383549747058282  1.0000
  O   O26       1.0  0.24986404976652207  0.41634664930086257  0.7616482814882914  1.0000
  O   O27       1.0  0.24986861288335396  0.08364728959131182  0.261650704109698  1.0000
  O   O28       1.0  0.7498710924092081  0.5836555579214391  0.23835350844873907  1.0000
