data_image0
_chemical_formula_structural       In2H14C20O16
_chemical_formula_sum              "In2 H14 C20 O16"
_cell_length_a       7.446321360932297
_cell_length_b       8.525984627084574
_cell_length_c       9.858007332080769
_cell_angle_alpha    113.85856813522308
_cell_angle_beta     92.25782337887307
_cell_angle_gamma    109.72597520142426

_space_group_name_H-M_alt    "P 1"
_space_group_IT_number       1

loop_
  _space_group_symop_operation_xyz
  'x, y, z'

loop_
  _atom_site_type_symbol
  _atom_site_label
  _atom_site_symmetry_multiplicity
  _atom_site_fract_x
  _atom_site_fract_y
  _atom_site_fract_z
  _atom_site_occupancy
  In  In1       1.0  0.4589815672035869  0.7158000487518593  0.3857213078275025  1.0000
  In  In2       1.0  0.5410115396819466  0.28415301375185453  0.6142495629876237  1.0000
  H   H1        1.0  0.5361385336852892  0.7488606911018535  0.07718861170601332  1.0000
  H   H2        1.0  0.4638546862029784  0.2511562052936114  0.9228249519313043  1.0000
  H   H3        1.0  0.8447441875344952  0.9485526741402168  0.7826110695492475  1.0000
  H   H4        1.0  0.15527874935862945  0.05144775919673349  0.21739849581107515  1.0000
  H   H5        1.0  0.8614518201394717  0.3385221545856183  0.23510271039102557  1.0000
  H   H6        1.0  0.13855194271421573  0.661504507211518  0.7649033929874918  1.0000
  H   H7        1.0  0.09640064346300649  0.17428691701193338  0.8093868765812433  1.0000
  H   H8        1.0  0.9036100995173515  0.8257134326168512  0.1906132158263105  1.0000
  H   H9        1.0  0.19496209558006686  0.4204124834230853  0.8951222950226454  1.0000
  H   H10       1.0  0.80504908152696  0.5795823150732388  0.10487078837834926  1.0000
  H   H11       1.0  0.8384102208814996  0.7197291366011739  0.4359066864394805  1.0000
  H   H12       1.0  0.1615884341331864  0.2802711432638816  0.5640981424939042  1.0000
  H   H13       1.0  0.7263680480777526  0.6924679475166328  0.5684401049898257  1.0000
  H   H14       1.0  0.2736292827838299  0.3075392529181329  0.4315590031886886  1.0000
  C   C1        1.0  0.6930218441705309  0.04798278952348771  0.17213558112757002  1.0000
  C   C2        1.0  0.3069907937439424  0.9520356138307589  0.8278790110774141  1.0000
  C   C3        1.0  0.6279531350429864  0.864997390697049  0.05852879195143862  1.0000
  C   C4        1.0  0.3720506505324792  0.1350056924755805  0.9414741095402666  1.0000
  C   C5        1.0  0.6823767944179908  0.831701717886304  0.9187081215727988  1.0000
  C   C6        1.0  0.31761536758905623  0.1682957483742413  0.08129656728920762  1.0000
  C   C7        1.0  0.80221101458195  0.978699601884138  0.8916734340048651  1.0000
  C   C8        1.0  0.19777185384729284  0.021295020217713994  0.10831683013206123  1.0000
  C   C9        1.0  0.866645882410815  0.1606079670573877  0.006477033202053009  1.0000
  C   C10       1.0  0.13335683769695816  0.8393992665968923  0.9935222253266718  1.0000
  C   C11       1.0  0.8090642422223979  0.19598182397760414  0.1461256077072619  1.0000
  C   C12       1.0  0.19094837346345633  0.804019920662455  0.8538709647787855  1.0000
  C   C13       1.0  0.6443450266973727  0.08418279789428601  0.3240999190744845  1.0000
  C   C14       1.0  0.35565717558409216  0.9158230500496246  0.6759039119260495  1.0000
  C   C15       1.0  0.6227890629928083  0.6363112271646896  0.8040986791648237  1.0000
  C   C16       1.0  0.3772001835628275  0.363665415941732  0.19590268476889613  1.0000
  C   C17       1.0  0.059548086505927224  0.2976812055728145  0.8615370711059429  1.0000
  C   C18       1.0  0.9404623826537348  0.7023219121519801  0.1384589135842091  1.0000
  C   C19       1.0  0.9209264234927659  0.29595928765309765  0.7428844087514863  1.0000
  C   C20       1.0  0.07908138888204513  0.7040438184420948  0.2571165755773492  1.0000
  O   O1        1.0  0.6415222300170172  0.9726523874339177  0.37980237669965783  1.0000
  O   O2        1.0  0.35844576408183587  0.027351866181689395  0.6202040721211761  1.0000
  O   O3        1.0  0.7386485683167765  0.7516371699805688  0.49781219258190407  1.0000
  O   O4        1.0  0.2613454209898763  0.2483616853150679  0.5021828865820553  1.0000
  O   O5        1.0  0.6139282053020807  0.2331199294628163  0.39542032808716243  1.0000
  O   O6        1.0  0.3860744159519172  0.7669039469691584  0.6045807107563876  1.0000
  O   O7        1.0  0.5062280423936657  0.5039780742369473  0.8266093215841724  1.0000
  O   O8        1.0  0.4937601386942704  0.49600271935111806  0.17338839938656744  1.0000
  O   O9        1.0  0.6941961853396638  0.5951356329775237  0.6826768190075045  1.0000
  O   O10       1.0  0.30578895071699475  0.40483405036349046  0.317324025554342  1.0000
  O   O11       1.0  0.9923334162266503  0.3139047446608244  0.9979221095584593  1.0000
  O   O12       1.0  0.007676010168260922  0.6861025265337091  0.0020732770569794052  1.0000
  O   O13       1.0  0.7463039699738945  0.27242355468325746  0.7647287421325686  1.0000
  O   O14       1.0  0.2536975172668933  0.7275739557669993  0.2352620003636972  1.0000
  O   O15       1.0  0.9829869441549024  0.3183542376206887  0.6329872751549248  1.0000
  O   O16       1.0  0.017016019502968015  0.6816502239534543  0.36701203124016507  1.0000
