data_image0
_chemical_formula_structural       Zn8H140C204N28O32
_chemical_formula_sum              "Zn8 H140 C204 N28 O32"
_cell_length_a       15.313297808872502
_cell_length_b       15.313303557427712
_cell_length_c       37.434454566232624
_cell_angle_alpha    86.10351969600691
_cell_angle_beta     86.10356921902618
_cell_angle_gamma    74.59887671583859

_space_group_name_H-M_alt    "P 1"
_space_group_IT_number       1

loop_
  _space_group_symop_operation_xyz
  'x, y, z'

loop_
  _atom_site_type_symbol
  _atom_site_label
  _atom_site_symmetry_multiplicity
  _atom_site_fract_x
  _atom_site_fract_y
  _atom_site_fract_z
  _atom_site_occupancy
  Zn  Zn1       1.0  0.9982557935962079  0.26209463349303513  0.324617035221479  1.0000
  Zn  Zn2       1.0  0.9875188210615633  0.25046528541980706  0.4016386614249328  1.0000
  Zn  Zn3       1.0  0.26209549459964887  0.9982572249694853  0.8246189686996245  1.0000
  Zn  Zn4       1.0  0.25046830451940144  0.987521539573485  0.901641040150217  1.0000
  Zn  Zn5       1.0  0.7378982186621175  0.001743584340900331  0.17538193690438666  1.0000
  Zn  Zn6       1.0  0.7495281099847162  0.012481179674359924  0.0983602807825221  1.0000
  Zn  Zn7       1.0  0.0017420338789975018  0.7378966268359616  0.6753816063294236  1.0000
  Zn  Zn8       1.0  0.012481712743266399  0.7495278899347111  0.5983598609148615  1.0000
  H   H1        1.0  0.9075553220456456  0.9970964291196723  0.41168662253479477  1.0000
  H   H2        1.0  0.2872434056101768  0.16408593923053155  0.4214978992429223  1.0000
  H   H3        1.0  0.27362411874648973  0.269539991169914  0.3122884339262555  1.0000
  H   H4        1.0  0.0470731798612292  0.13274670683792775  0.5349059354082255  1.0000
  H   H5        1.0  0.4352086137511365  0.2721361862249409  0.3113949270604905  1.0000
  H   H6        1.0  0.1136971946862744  0.208697945161667  0.4720047945681358  1.0000
  H   H7        1.0  0.965738466465382  0.007195670867716177  0.5465395151339223  1.0000
  H   H8        1.0  0.8593087393762815  0.9551972561077092  0.5896404494151779  1.0000
  H   H9        1.0  0.44970230596887734  0.16270734244771745  0.42060957068152766  1.0000
  H   H10       1.0  0.8901786277224916  0.8388683790699004  0.4120037088561189  1.0000
  H   H11       1.0  0.9878115160493126  0.5235580004469895  0.41998787909587065  1.0000
  H   H12       1.0  0.6942958210615231  0.2872404792344552  0.419103724513036  1.0000
  H   H13       1.0  0.8431739334925015  0.20751430089325132  0.45906968931675596  1.0000
  H   H14       1.0  0.2803961127035919  0.028357842799628857  0.5902054713811253  1.0000
  H   H15       1.0  0.7372861739069593  0.21477767909366444  0.3094355474574896  1.0000
  H   H16       1.0  0.5392249281033727  0.2644433619124626  0.4208757698210092  1.0000
  H   H17       1.0  0.3901305331507885  0.9689613274681717  0.7474812073680254  1.0000
  H   H18       1.0  0.46608452177671483  0.0278245421937767  0.6944365517127479  1.0000
  H   H19       1.0  0.06364490488595462  0.9571587944871921  0.3119404521683506  1.0000
  H   H20       1.0  0.9852962347645688  0.6870695508455208  0.4200209127578276  1.0000
  H   H21       1.0  0.7536372320149809  0.2445264257531789  0.5170155114959128  1.0000
  H   H22       1.0  0.6453695419945262  0.1905027038257997  0.5602688245390084  1.0000
  H   H23       1.0  0.21021633246925123  0.029720251026560573  0.6514361109050099  1.0000
  H   H24       1.0  0.0512936598403542  0.7984850241453572  0.31280698113456396  1.0000
  H   H25       1.0  0.5830654304519172  0.1900431416764334  0.3108838183056547  1.0000
  H   H26       1.0  0.9433475794023211  0.714942832522503  0.3066109642170644  1.0000
  H   H27       1.0  0.4445135834443122  0.027834324003613544  0.580647230478121  1.0000
  H   H28       1.0  0.9455602249683325  0.5515767085305254  0.3072880333639815  1.0000
  H   H29       1.0  0.14620487210285665  0.14523909054231854  0.7701186738952045  1.0000
  H   H30       1.0  0.17088992731978445  0.14045051727618574  0.6981800302811221  1.0000
  H   H31       1.0  0.8097666032350406  0.9368718596971276  0.6649483072334659  1.0000
  H   H32       1.0  0.7550466795367541  0.04102702312715673  0.6855654536759346  1.0000
  H   H33       1.0  0.8213451062592372  0.04211485399523689  0.6444015210334084  1.0000
  H   H34       1.0  0.07841147989895353  0.9854169968741784  0.7737407829490974  1.0000
  H   H35       1.0  0.11663336052200182  0.9710344962401292  0.6974181985442343  1.0000
  H   H36       1.0  0.9970962491087506  0.9075556348232608  0.9116879589551202  1.0000
  H   H37       1.0  0.16408139413052686  0.2872455196633864  0.9215000649231296  1.0000
  H   H38       1.0  0.2695366756413478  0.2736293912110951  0.8122910421286134  1.0000
  H   H39       1.0  0.13274400147233223  0.04707307349186606  0.03490817243930169  1.0000
  H   H40       1.0  0.2721328477921362  0.4352124211414219  0.8113978121633068  1.0000
  H   H41       1.0  0.20869824299558104  0.11370010731173602  0.9720073882732334  1.0000
  H   H42       1.0  0.0071977478433993035  0.9657388191432685  0.046540093281826976  1.0000
  H   H43       1.0  0.9551965328271947  0.8593080775559228  0.08964051437496319  1.0000
  H   H44       1.0  0.1627034016184368  0.44970549778484764  0.9206129991710056  1.0000
  H   H45       1.0  0.8388696546552552  0.8901762312311164  0.9120037165660974  1.0000
  H   H46       1.0  0.5235588230870861  0.9878117620100821  0.9199888245403613  1.0000
  H   H47       1.0  0.2872451388829305  0.6942964321707024  0.9191061746893323  1.0000
  H   H48       1.0  0.20751761807239433  0.8431759672579769  0.9590710277151826  1.0000
  H   H49       1.0  0.028357014594156706  0.28039518449485695  0.09020441472907949  1.0000
  H   H50       1.0  0.21478152343529905  0.737286775799191  0.8094379981184757  1.0000
  H   H51       1.0  0.2644455975196038  0.5392257770104791  0.920878033066664  1.0000
  H   H52       1.0  0.9689646585808165  0.3901291041305083  0.2474796716422389  1.0000
  H   H53       1.0  0.027823666391363102  0.46608105697180946  0.1944360624748782  1.0000
  H   H54       1.0  0.957158589422832  0.06364815297983725  0.8119423925284507  1.0000
  H   H55       1.0  0.6870705975392823  0.9852964043514443  0.9200210828657518  1.0000
  H   H56       1.0  0.24452702415594277  0.7536356072283962  0.0170159925650353  1.0000
  H   H57       1.0  0.19050196427176763  0.64536713654396  0.060268835747336894  1.0000
  H   H58       1.0  0.029721066568022505  0.21021329783602735  0.15143481192909283  1.0000
  H   H59       1.0  0.7984857539729405  0.05129419256941489  0.8128073382498258  1.0000
  H   H60       1.0  0.19004259472198023  0.5830684773476449  0.8108866096214412  1.0000
  H   H61       1.0  0.7149431436724926  0.9433401061953859  0.8066116301592031  1.0000
  H   H62       1.0  0.027832342352788  0.44451442755659076  0.08064666249936889  1.0000
  H   H63       1.0  0.5515765510855533  0.9455540064956836  0.807289450634691  1.0000
  H   H64       1.0  0.14523582145199754  0.14620074975936595  0.27011780780186706  1.0000
  H   H65       1.0  0.1404476660190355  0.1708830395537078  0.1981794865785247  1.0000
  H   H66       1.0  0.936871329357885  0.8097660966316835  0.16494756741601438  1.0000
  H   H67       1.0  0.041024531891459014  0.7550453823088714  0.18556490055121339  1.0000
  H   H68       1.0  0.042113841948854314  0.8213439642895679  0.1444009140075408  1.0000
  H   H69       1.0  0.9854120200531399  0.07841501080687141  0.2737409954979597  1.0000
  H   H70       1.0  0.9710249247621622  0.11663540797234603  0.1974182912733795  1.0000
  H   H71       1.0  0.0028981152990681003  0.09244562780320108  0.08831558954528157  1.0000
  H   H72       1.0  0.8359123098873342  0.7127579069800161  0.07850104054179496  1.0000
  H   H73       1.0  0.7304597279437958  0.7263766003390226  0.18771046181278445  1.0000
  H   H74       1.0  0.8672524178707947  0.9529217708606694  0.9650949543399675  1.0000
  H   H75       1.0  0.7278635456184617  0.5647935602325728  0.18860476085775696  1.0000
  H   H76       1.0  0.7912995169183006  0.8862996218250885  0.027995845056892697  1.0000
  H   H77       1.0  0.992800045944243  0.03425963058341335  0.9534599665137974  1.0000
  H   H78       1.0  0.0447998968146024  0.14069071696442137  0.9103603731314603  1.0000
  H   H79       1.0  0.8372923168227615  0.5502973798676577  0.07939020560167619  1.0000
  H   H80       1.0  0.16112676474993043  0.109820583117262  0.08799882511658548  1.0000
  H   H81       1.0  0.4764348919738738  0.012192332322733394  0.08001092772272497  1.0000
  H   H82       1.0  0.7127580565208405  0.3057051799176022  0.08089499988592048  1.0000
  H   H83       1.0  0.7924828777641013  0.1568230799236118  0.040929748383589995  1.0000
  H   H84       1.0  0.9716462059977006  0.7195985730503833  0.9097964275333649  1.0000
  H   H85       1.0  0.7852182848377469  0.26271309493243655  0.19056357588831924  1.0000
  H   H86       1.0  0.7355548797670082  0.4607765348412867  0.07912372785051497  1.0000
  H   H87       1.0  0.031002686703260507  0.6098556789983927  0.7525196561618799  1.0000
  H   H88       1.0  0.9721666616009444  0.5339232660001796  0.8055635041231708  1.0000
  H   H89       1.0  0.04284058854941721  0.9363401223262  0.18805762687999558  1.0000
  H   H90       1.0  0.3129231258349563  0.014702445139228363  0.07997933875518728  1.0000
  H   H91       1.0  0.7554700862248893  0.2463610436272531  0.9829851998175342  1.0000
  H   H92       1.0  0.8094944661765241  0.3546303454938308  0.9397323527335075  1.0000
  H   H93       1.0  0.9702923034422782  0.7897823885806756  0.8485670544593091  1.0000
  H   H94       1.0  0.20151614962324518  0.9486894506135638  0.18719246320011954  1.0000
  H   H95       1.0  0.8099551745599458  0.4169325744478623  0.18911525365459164  1.0000
  H   H96       1.0  0.28505332871457517  0.05664297160673463  0.19338939453135848  1.0000
  H   H97       1.0  0.9721620736101003  0.5554816334762475  0.9193530117703048  1.0000
  H   H98       1.0  0.4484178579908758  0.05443876442666344  0.1927119115157439  1.0000
  H   H99       1.0  0.8548140302197639  0.8538358385306988  0.7298836652542988  1.0000
  H   H100      1.0  0.8596042270633434  0.829148430224819  0.801822600131672  1.0000
  H   H101      1.0  0.0631257768663147  0.19023317664504447  0.8350532902876322  1.0000
  H   H102      1.0  0.958973940153655  0.24495289120492447  0.8144351462938884  1.0000
  H   H103      1.0  0.9578812481148733  0.17865454295147007  0.8555984126326873  1.0000
  H   H104      1.0  0.0146923551404328  0.9215296027114942  0.7262547651863897  1.0000
  H   H105      1.0  0.0290678807213069  0.8833285779405384  0.8025770009936578  1.0000
  H   H106      1.0  0.09244381876477092  0.002896405530876188  0.5883159516070506  1.0000
  H   H107      1.0  0.7127584763342512  0.8359101585445284  0.5785005129345677  1.0000
  H   H108      1.0  0.7263730044766561  0.7304606123975785  0.6877102519135575  1.0000
  H   H109      1.0  0.9529205418379478  0.8672527976220004  0.4650944693604585  1.0000
  H   H110      1.0  0.5647891827042744  0.7278662060374539  0.6886036952720431  1.0000
  H   H111      1.0  0.8862978809842093  0.7913012043284692  0.5279958515694219  1.0000
  H   H112      1.0  0.03425731277479831  0.9927993878581628  0.45345961554712483  1.0000
  H   H113      1.0  0.140687707140323  0.044798928711721  0.41035943642059175  1.0000
  H   H114      1.0  0.550298212760332  0.8372917276301519  0.5793887999880027  1.0000
  H   H115      1.0  0.10981984246135572  0.1611246394256297  0.5879980764265014  1.0000
  H   H116      1.0  0.0121951491221211  0.4764309894668129  0.5800084559388877  1.0000
  H   H117      1.0  0.30570403789803186  0.7127535323902592  0.5808942593852037  1.0000
  H   H118      1.0  0.15682320821846224  0.7924810680082215  0.540928596801244  1.0000
  H   H119      1.0  0.7195962297120533  0.9716459311814698  0.40979619452468086  1.0000
  H   H120      1.0  0.2627123192937404  0.7852193022898315  0.6905626622027015  1.0000
  H   H121      1.0  0.4607742433547984  0.7355534432581475  0.5791224268886593  1.0000
  H   H122      1.0  0.6098551635495542  0.031001663624117257  0.2525187434703326  1.0000
  H   H123      1.0  0.533920073942035  0.9721675682513642  0.30556269473365916  1.0000
  H   H124      1.0  0.9363373168977418  0.042841766124226355  0.6880575506168397  1.0000
  H   H125      1.0  0.0147036350518945  0.3129192184810775  0.5799774732283395  1.0000
  H   H126      1.0  0.24635989952143691  0.7554689329721709  0.4829838437017527  1.0000
  H   H127      1.0  0.3546289300505877  0.8094955696879964  0.43973122230609346  1.0000
  H   H128      1.0  0.7897793625830475  0.9702937661914455  0.34856627283954816  1.0000
  H   H129      1.0  0.9486878718983293  0.2015183274679301  0.6871915017319735  1.0000
  H   H130      1.0  0.4169317062959053  0.8099561621286636  0.6891138321589947  1.0000
  H   H131      1.0  0.056642099739299616  0.2850531596940725  0.6933880326010351  1.0000
  H   H132      1.0  0.5554808400874194  0.9721597746654708  0.41935222707839154  1.0000
  H   H133      1.0  0.0544389650397221  0.4484168319699079  0.6927091785272806  1.0000
  H   H134      1.0  0.8538347517942956  0.8548112499780701  0.22988537962970668  1.0000
  H   H135      1.0  0.8291449379181515  0.8596062990324851  0.3018237118095186  1.0000
  H   H136      1.0  0.1902305189954063  0.06312414636538216  0.33505183292169954  1.0000
  H   H137      1.0  0.24495112188179757  0.9589714342316138  0.3144338043099423  1.0000
  H   H138      1.0  0.17865270607828881  0.9578803310612611  0.35559755394380926  1.0000
  H   H139      1.0  0.9215325250808423  0.014689067346757933  0.22625441555694437  1.0000
  H   H140      1.0  0.8833282715211793  0.029066978813830104  0.30257746505792926  1.0000
  C   C1        1.0  0.9394094072818789  0.952241620511131  0.3903963151613254  1.0000
  C   C2        1.0  0.2693601906365047  0.2182577352918428  0.36706380995563137  1.0000
  C   C3        1.0  0.9969865530340488  0.08173561941416091  0.36204146318969777  1.0000
  C   C4        1.0  0.9879392955066137  0.9864196036588876  0.36217858568574707  1.0000
  C   C5        1.0  0.31996806707415004  0.18811282938835902  0.3974636733296179  1.0000
  C   C6        1.0  0.1698912095278544  0.22370595186511358  0.3674775794626369  1.0000
  C   C7        1.0  0.3129549716939124  0.24622628015730189  0.33589744422585  1.0000
  C   C8        1.0  0.4544063876797822  0.2190877523582912  0.3661446639416539  1.0000
  C   C9        1.0  0.9753666954876579  0.42799878008324294  0.3630590843701498  1.0000
  C   C10       1.0  0.866125171437233  0.12947163581090837  0.529394968747944  1.0000
  C   C11       1.0  0.8195430015877109  0.2667674045184609  0.3633077365988483  1.0000
  C   C12       1.0  0.6801845651764256  0.04606256669916315  0.6049012307535832  1.0000
  C   C13       1.0  0.016469574936458307  0.15892690611133278  0.5098240495328097  1.0000
  C   C14       1.0  0.4036526171467898  0.24681148575299244  0.335482973805476  1.0000
  C   C15       1.0  0.04754076356488211  0.19760437649377846  0.4790760822478717  1.0000
  C   C16       1.0  0.333268917834559  0.028402692967681283  0.6771057172985947  1.0000
  C   C17       1.0  0.9679398304869551  0.5275600663793651  0.3635608203737419  1.0000
  C   C18       1.0  0.8961626613320207  0.048618643999056126  0.5499023864121424  1.0000
  C   C19       1.0  0.7457384702353737  0.07147134449297701  0.5787257495127776  1.0000
  C   C20       1.0  0.5489892609794538  0.22628312231449133  0.36588554328101  1.0000
  C   C21       1.0  0.8360419593461189  0.019830232315363978  0.574597306066124  1.0000
  C   C22       1.0  0.4109973236713956  0.18823483327176393  0.3969465433994657  1.0000
  C   C23       1.0  0.930639737780112  0.8640815341832918  0.3906206734893941  1.0000
  C   C24       1.0  0.7257728565465131  0.25287439500293357  0.36415997654506066  1.0000
  C   C25       1.0  0.9772554728201542  0.5665071901388287  0.39542073832186725  1.0000
  C   C26       1.0  0.558802558222304  0.027481930727780875  0.6310653754945719  1.0000
  C   C27       1.0  0.9708748280776691  0.8070298184497413  0.36276395906365616  1.0000
  C   C28       1.0  0.6695251844584222  0.2651371636152147  0.395580638605189  1.0000
  C   C29       1.0  0.9651567108687972  0.7123023106120668  0.36326948250688657  1.0000
  C   C30       1.0  0.9072686518448522  0.199609705221782  0.4712456394002017  1.0000
  C   C31       1.0  0.3212997018074688  0.02802856328202097  0.6129640933615902  1.0000
  C   C32       1.0  0.69330726666783  0.2255318229347905  0.3337631361582041  1.0000
  C   C33       1.0  0.5828578831576436  0.2519113599948921  0.39646859570677145  1.0000
  C   C34       1.0  0.32039837260091997  0.008931518194216887  0.7443268954409132  1.0000
  C   C35       1.0  0.4251433922774623  0.025532174507226526  0.6719792034071617  1.0000
  C   C36       1.0  0.46437162012131245  0.025109912716729375  0.6370641227959409  1.0000
  C   C37       1.0  0.026933356115286206  0.9303747892610372  0.3341210618037493  1.0000
  C   C38       1.0  0.9752805982483751  0.6578773364629737  0.3953065874856988  1.0000
  C   C39       1.0  0.7757744381734496  0.1807639108699418  0.5327538516260191  1.0000
  C   C40       1.0  0.7158089455402961  0.15124057499622978  0.5570934713152906  1.0000
  C   C41       1.0  0.28138667032771997  0.028891172802182966  0.6475064100053273  1.0000
  C   C42       1.0  0.018906668346950505  0.841990781516699  0.3344519759507349  1.0000
  C   C43       1.0  0.6066083532696142  0.21241549270052917  0.33466511307978647  1.0000
  C   C44       1.0  0.9535148676458507  0.6732088158290422  0.3315802016024633  1.0000
  C   C45       1.0  0.412343834208194  0.02675449803997048  0.6074641252556886  1.0000
  C   C46       1.0  0.9544473429710367  0.5821448520803398  0.3317662370132765  1.0000
  C   C47       1.0  0.17406896122247423  0.08069457902906409  0.7571728674726543  1.0000
  C   C48       1.0  0.19059956623407007  0.07814534415929583  0.7153637740679882  1.0000
  C   C49       1.0  0.7752113939447014  0.008719321078132164  0.6599595654023602  1.0000
  C   C50       1.0  0.1148710796966554  0.017343423766341494  0.7532642832408596  1.0000
  C   C51       1.0  0.13240487855110672  0.011622316958494073  0.7176109773614598  1.0000
  C   C52       1.0  0.9522433321786823  0.9394090197691792  0.8903965384849639  1.0000
  C   C53       1.0  0.21825573376646903  0.26936253651904696  0.8670661841528684  1.0000
  C   C54       1.0  0.0817370085323077  0.9969868516948278  0.8620423114713913  1.0000
  C   C55       1.0  0.9864205587709591  0.987937633784646  0.8621791259494527  1.0000
  C   C56       1.0  0.1881085596862491  0.3199700335829758  0.8974661012846495  1.0000
  C   C57       1.0  0.22370911132570376  0.16989512498722079  0.8674808674828964  1.0000
  C   C58       1.0  0.24622370169358737  0.31295985701144946  0.8358994978470091  1.0000
  C   C59       1.0  0.21908550288382145  0.454410184534268  0.8661472410811014  1.0000
  C   C60       1.0  0.4280015950965179  0.9753656423594557  0.8630607983845519  1.0000
  C   C61       1.0  0.12947212493136823  0.8661249604805402  0.02939537520186521  1.0000
  C   C62       1.0  0.2667727779912781  0.8195449207148112  0.8633103755256427  1.0000
  C   C63       1.0  0.04605853757481531  0.6801839613883229  0.10490017951803306  1.0000
  C   C64       1.0  0.1589258685053565  0.01646936854309191  0.0098262563456615  1.0000
  C   C65       1.0  0.24680895808823777  0.4036567640195513  0.8354852960812308  1.0000
  C   C66       1.0  0.19760600808326254  0.04754159200959405  0.9790781709463586  1.0000
  C   C67       1.0  0.028401334417750904  0.333266861296245  0.1771049610616231  1.0000
  C   C68       1.0  0.5275609117306744  0.9679356695954052  0.8635621503472493  1.0000
  C   C69       1.0  0.0486187904896198  0.8961615465909316  0.049902805055232584  1.0000
  C   C70       1.0  0.07146968489356452  0.7457371045064887  0.07872545099763069  1.0000
  C   C71       1.0  0.22628367350602474  0.5489919771083221  0.8658883274604746  1.0000
  C   C72       1.0  0.019829186996453505  0.8360404881431972  0.07459723601114379  1.0000
  C   C73       1.0  0.18823103419666157  0.41100117152254956  0.8969488943180792  1.0000
  C   C74       1.0  0.8640824671680106  0.9306370672204163  0.8906201600844238  1.0000
  C   C75       1.0  0.25288040821570956  0.7257721488704474  0.8641621468323774  1.0000
  C   C76       1.0  0.5665080943234173  0.9772542856208014  0.8954219954033319  1.0000
  C   C77       1.0  0.0274760221868036  0.5588016056079111  0.13106466738347677  1.0000
  C   C78       1.0  0.8070312102204513  0.9708717503160357  0.8627639610914312  1.0000
  C   C79       1.0  0.2651423964736921  0.6695246075538106  0.8955831051211334  1.0000
  C   C80       1.0  0.7123036004229631  0.9651538561428549  0.8632699996648512  1.0000
  C   C81       1.0  0.19961253246727753  0.9072705595150834  0.9712472478665289  1.0000
  C   C82       1.0  0.0280265134286779  0.3212982330411832  0.11296307474390227  1.0000
  C   C83       1.0  0.22553654690420194  0.693307878363981  0.8337653065903652  1.0000
  C   C84       1.0  0.2519148545326857  0.5828586184721586  0.8964710864353264  1.0000
  C   C85       1.0  0.0089330864092148  0.32039654296803377  0.24432552238737051  1.0000
  C   C86       1.0  0.025529608957036504  0.4251410263811976  0.17197846922922366  1.0000
  C   C87       1.0  0.025105721599906896  0.46437109396921256  0.137063375954753  1.0000
  C   C88       1.0  0.9303751984322802  0.026934377859937686  0.8341225112595793  1.0000
  C   C89       1.0  0.6578782087443786  0.9752799233309303  0.89530704756379  1.0000
  C   C90       1.0  0.1807629820332508  0.7757738414616853  0.03275433010715288  1.0000
  C   C91       1.0  0.1512383880285384  0.715807599317685  0.05709320564925239  1.0000
  C   C92       1.0  0.028889558996326108  0.2813865560559136  0.14750535253986635  1.0000
  C   C93       1.0  0.8419916787616444  0.01890543876908159  0.8344526550087464  1.0000
  C   C94       1.0  0.21241737682878187  0.6066102626452332  0.83466787081678  1.0000
  C   C95       1.0  0.6732101908689219  0.9535090738575602  0.8315813217127611  1.0000
  C   C96       1.0  0.026751085416961515  0.4123449717418452  0.10746385935635772  1.0000
  C   C97       1.0  0.5821452280984546  0.9544407156651356  0.8317671206949199  1.0000
  C   C98       1.0  0.0806940533213449  0.17406624080939534  0.25717134353492094  1.0000
  C   C99       1.0  0.07814304213921731  0.19059667530494545  0.2153628311924578  1.0000
  C   C100      1.0  0.008715485638781202  0.7752098836400589  0.1599590430023667  1.0000
  C   C101      1.0  0.017338027043884107  0.11487035994101548  0.2532647025684867  1.0000
  C   C102      1.0  0.011615777964181001  0.13240483330589106  0.21761033601399754  1.0000
  C   C103      1.0  0.047754450503788314  0.060586792272232494  0.10960545960908516  1.0000
  C   C104      1.0  0.7817413581265528  0.7306393490026292  0.13293540795152126  1.0000
  C   C105      1.0  0.9182634964239612  0.0030056381620580937  0.13795943495965443  1.0000
  C   C106      1.0  0.013577251767365801  0.012054266249428694  0.13782110236869724  1.0000
  C   C107      1.0  0.8118878556243629  0.6800313731823233  0.1025355206225171  1.0000
  C   C108      1.0  0.7762906842912332  0.8301067030200991  0.13252145777689608  1.0000
  C   C109      1.0  0.7537733809555223  0.6870446458432365  0.1641022941182868  1.0000
  C   C110      1.0  0.7809122546105627  0.5455934820502151  0.1338550893257562  1.0000
  C   C111      1.0  0.5719914348825768  0.024637308071596864  0.13694006961323169  1.0000
  C   C112      1.0  0.870527701891561  0.13387164558091755  0.9706052139865305  1.0000
  C   C113      1.0  0.733229059160415  0.18045572877267088  0.13669139319499377  1.0000
  C   C114      1.0  0.9539345126292247  0.31981506940329013  0.8950997205135992  1.0000
  C   C115      1.0  0.8410719098963427  0.9835251259277056  0.9901765772626445  1.0000
  C   C116      1.0  0.753188801949783  0.5963469051089587  0.16451676705570858  1.0000
  C   C117      1.0  0.8023924461564108  0.9524566636959829  0.020923746788163593  1.0000
  C   C118      1.0  0.9716032284820104  0.6667330960598715  0.8228954195073328  1.0000
  C   C119      1.0  0.47243348816390107  0.03206168865579424  0.1364388265675061  1.0000
  C   C120      1.0  0.9513783233034162  0.10383576432204197  0.9500978359352529  1.0000
  C   C121      1.0  0.9285274288994714  0.2542602064064851  0.9212751899928546  1.0000
  C   C122      1.0  0.7737154379596662  0.4510113345063684  0.13411424431524915  1.0000
  C   C123      1.0  0.9801672468640421  0.1639576539519182  0.9254034010776095  1.0000
  C   C124      1.0  0.8117653710014779  0.5890021950624699  0.10305321157215988  1.0000
  C   C125      1.0  0.13591464147568638  0.06935826860865286  0.10938160054248405  1.0000
  C   C126      1.0  0.7471221198495713  0.2742263671284632  0.13583885768473888  1.0000
  C   C127      1.0  0.4334856214819853  0.022746526233618104  0.10457864293076109  1.0000
  C   C128      1.0  0.9725116053696542  0.4411994949440652  0.8689347848602581  1.0000
  C   C129      1.0  0.192967956832824  0.029119797292274485  0.1372362413256667  1.0000
  C   C130      1.0  0.7348614838878261  0.33047420844457054  0.10441812391260187  1.0000
  C   C131      1.0  0.28769216523047453  0.03484053234957671  0.1367307514879457  1.0000
  C   C132      1.0  0.8003865966797293  0.09272882991614034  0.0287546232129614  1.0000
  C   C133      1.0  0.9719753456230293  0.6786978418375964  0.887037742862837  1.0000
  C   C134      1.0  0.7744646119900198  0.30669294733637975  0.16623647508080094  1.0000
  C   C135      1.0  0.7480883365903211  0.4171416760455387  0.10353092365417638  1.0000
  C   C136      1.0  0.9910633651325969  0.6795976769436081  0.7556744140051562  1.0000
  C   C137      1.0  0.9744620789003521  0.5748616342265149  0.8280211051722827  1.0000
  C   C138      1.0  0.9748832616649993  0.5356309666395587  0.8629357494135161  1.0000
  C   C139      1.0  0.06962601679395423  0.9730514013556469  0.16587778712396778  1.0000
  C   C140      1.0  0.3421161895372009  0.024720059885382242  0.10469332740212418  1.0000
  C   C141      1.0  0.819234125803952  0.22422280684993712  0.9672471295453346  1.0000
  C   C142      1.0  0.8487580466384586  0.28418923029487775  0.9429077324139284  1.0000
  C   C143      1.0  0.9711170343950783  0.7186115550909519  0.8524958246917719  1.0000
  C   C144      1.0  0.15800818249328333  0.9810806954162954  0.1655474020059273  1.0000
  C   C145      1.0  0.7875824246819293  0.39339025796760296  0.16533422087759664  1.0000
  C   C146      1.0  0.3267862622858929  0.04648252108897564  0.1684192166286067  1.0000
  C   C147      1.0  0.9732433170833161  0.5876543590492318  0.8925362651918929  1.0000
  C   C148      1.0  0.4178498626476427  0.04555253910165643  0.16823367711290868  1.0000
  C   C149      1.0  0.9193558957526307  0.8259402392469182  0.7428287665655231  1.0000
  C   C150      1.0  0.9219082559429382  0.8094133846852001  0.7846368846235023  1.0000
  C   C151      1.0  0.991280277595145  0.22478844230003137  0.8400408052271685  1.0000
  C   C152      1.0  0.9827472855328239  0.8851001287461314  0.7467327523478814  1.0000
  C   C153      1.0  0.9884661384861532  0.8675744113409747  0.7823853778084668  1.0000
  C   C154      1.0  0.060585676701876416  0.04775228413685538  0.6096050003340848  1.0000
  C   C155      1.0  0.7306382974769222  0.7817392410035847  0.632934934244389  1.0000
  C   C156      1.0  0.0030058070008464983  0.9182622623876209  0.6379600871164612  1.0000
  C   C157      1.0  0.012051724950211506  0.0135779908635811  0.6378214037542163  1.0000
  C   C158      1.0  0.6800310951401161  0.8118865931152681  0.6025347232409571  1.0000
  C   C159      1.0  0.8301066137286456  0.7762859608891116  0.6325213125059292  1.0000
  C   C160      1.0  0.6870414715346272  0.7537731845964897  0.6641018228088242  1.0000
  C   C161      1.0  0.5455920979520741  0.7809111913889522  0.6338537624316982  1.0000
  C   C162      1.0  0.02463589759530291  0.571991264563806  0.6369375956376684  1.0000
  C   C163      1.0  0.1338699287389744  0.8705249116104027  0.47060387390920505  1.0000
  C   C164      1.0  0.180454142666882  0.733227966927039  0.6366902822492263  1.0000
  C   C165      1.0  0.3198118906461573  0.9539329707830929  0.3950978701246868  1.0000
  C   C166      1.0  0.9835241518499847  0.841072603436657  0.4901758206960451  1.0000
  C   C167      1.0  0.5963445052077816  0.75318846030121  0.6645159961565028  1.0000
  C   C168      1.0  0.952454320605071  0.8023954381417437  0.5209234779577655  1.0000
  C   C169      1.0  0.6667322360965218  0.9716020676363111  0.32289542871922083  1.0000
  C   C170      1.0  0.0320620700073562  0.472432766725518  0.6364366069853418  1.0000
  C   C171      1.0  0.10383311623309051  0.9513770696960787  0.4500967274166569  1.0000
  C   C172      1.0  0.2542566282657646  0.9285258578975898  0.42127307629211685  1.0000
  C   C173      1.0  0.45100990793508094  0.7737136803120918  0.6341129206985697  1.0000
  C   C174      1.0  0.16395382076262172  0.9801654839238052  0.425401540492757  1.0000
  C   C175      1.0  0.589001160285399  0.8117647654447423  0.6030518661216319  1.0000
  C   C176      1.0  0.06935669936845562  0.13591332797746244  0.6093805824004618  1.0000
  C   C177      1.0  0.2742263240935046  0.7471178228388238  0.6358386054002948  1.0000
  C   C178      1.0  0.0227471092817666  0.43348415681465  0.6045767097911963  1.0000
  C   C179      1.0  0.4411972981315487  0.972510108357063  0.36893346077016526  1.0000
  C   C180      1.0  0.029116878267530004  0.19296760749194408  0.6372352156160304  1.0000
  C   C181      1.0  0.3304753476713317  0.7348566667085662  0.6044178668823575  1.0000
  C   C182      1.0  0.034837722837480094  0.2876917982331405  0.6367289059699671  1.0000
  C   C183      1.0  0.09272847634143491  0.8003869634420863  0.5287536820929545  1.0000
  C   C184      1.0  0.6786953629440406  0.9719738585103879  0.3870367357846191  1.0000
  C   C185      1.0  0.30669258974808866  0.7744621861459036  0.6662351150099468  1.0000
  C   C186      1.0  0.41714196990814406  0.7480839590243207  0.6035296217568769  1.0000
  C   C187      1.0  0.6795967206888138  0.9910617391166022  0.25567363509699687  1.0000
  C   C188      1.0  0.5748591627751055  0.974461771971043  0.3280203154562216  1.0000
  C   C189      1.0  0.5356282336889038  0.9748821238240872  0.36293498073872127  1.0000
  C   C190      1.0  0.9730481797800293  0.06962593993117139  0.665877755741718  1.0000
  C   C191      1.0  0.024719264867812302  0.34211405274066914  0.6046917310914635  1.0000
  C   C192      1.0  0.2242213385230869  0.8192311453119031  0.46724554632493903  1.0000
  C   C193      1.0  0.28418682780611  0.8487557911241408  0.4429058929311722  1.0000
  C   C194      1.0  0.7186104039460448  0.9711166048988099  0.35249529769870946  1.0000
  C   C195      1.0  0.9810769014522194  0.15800876152357543  0.6655470868653237  1.0000
  C   C196      1.0  0.3933908240823314  0.7875800050755897  0.665332850064466  1.0000
  C   C197      1.0  0.046480921768868214  0.3267862530729602  0.668417859998918  1.0000
  C   C198      1.0  0.5876526139834866  0.9732410318101967  0.3925357774323287  1.0000
  C   C199      1.0  0.045552515988518415  0.4178491595443814  0.668231746884963  1.0000
  C   C200      1.0  0.8259415498407991  0.9193528845773213  0.24282933986166452  1.0000
  C   C201      1.0  0.8094116189921082  0.9219065356511247  0.2846375005402919  1.0000
  C   C202      1.0  0.22478573424158552  0.9912773475857358  0.3400397560908033  1.0000
  C   C203      1.0  0.8850986893266752  0.9827428017313975  0.24673530377889108  1.0000
  C   C204      1.0  0.8675750873511563  0.988465228233998  0.2823848397780039  1.0000
  N   N1        1.0  0.26226972673264737  0.03158583304021786  0.7714012617893642  1.0000
  N   N2        1.0  0.9271260206483589  0.16071630044528  0.5045578849899286  1.0000
  N   N3        1.0  0.9788258896190101  0.22239637923640004  0.45541310019151365  1.0000
  N   N4        1.0  0.6949216197092698  0.01953934415627142  0.6400545760471558  1.0000
  N   N5        1.0  0.6179501580679202  0.007755309345377206  0.6571163165246288  1.0000
  N   N6        1.0  0.5940699047297215  0.05184315137015717  0.5986067143465235  1.0000
  N   N7        1.0  0.288412270846834  0.03630992614762357  0.7112364042989865  1.0000
  N   N8        1.0  0.0315859991839886  0.26226865607612365  0.2714001870063284  1.0000
  N   N9        1.0  0.1607163797734756  0.9271261713549347  0.0045593558831597955  1.0000
  N   N10       1.0  0.22240019526938687  0.9788271915409007  0.955415491413326  1.0000
  N   N11       1.0  0.0195356711020196  0.6949220319536876  0.14005348198930526  1.0000
  N   N12       1.0  0.00774886611147  0.6179493064121074  0.15711560540265168  1.0000
  N   N13       1.0  0.05183871495644611  0.5940682527799551  0.0986057171988577  1.0000
  N   N14       1.0  0.03630998430000432  0.28840885360779106  0.2112348547004501  1.0000
  N   N15       1.0  0.9684246781454962  0.7377277555443481  0.7285995930248389  1.0000
  N   N16       1.0  0.8392827628361488  0.0728699483180434  0.9954420649177536  1.0000
  N   N17       1.0  0.7775996121350914  0.021172021677436714  0.0445863667156345  1.0000
  N   N18       1.0  0.9804587288546218  0.30507729629336194  0.8599469098288637  1.0000
  N   N19       1.0  0.9922401162228028  0.3820501266875308  0.8428843891843768  1.0000
  N   N20       1.0  0.9481495925325591  0.4059320165898796  0.9013937389466092  1.0000
  N   N21       1.0  0.9637074512226249  0.7115923379443954  0.7887654291127004  1.0000
  N   N22       1.0  0.7377287116869766  0.9684215998671062  0.22859961820387295  1.0000
  N   N23       1.0  0.07286907109043743  0.839281551826488  0.49544145850254756  1.0000
  N   N24       1.0  0.0211712343485644  0.7776009418527038  0.544586471719313  1.0000
  N   N25       1.0  0.3050741544436377  0.9804557094815461  0.35994508917372053  1.0000
  N   N26       1.0  0.3820490158097557  0.9922375583775743  0.34288278310830117  1.0000
  N   N27       1.0  0.4059285900219153  0.9481492350523901  0.40139268235909487  1.0000
  N   N28       1.0  0.7115901959232859  0.9637075712396944  0.2887654478523984  1.0000
  O   O1        1.0  0.12976317823408584  0.20659697656855502  0.3971644256238988  1.0000
  O   O2        1.0  0.9917288207144781  0.3813320016565312  0.3925456725575812  1.0000
  O   O3        1.0  0.8478473911225068  0.28430883319733596  0.3925874693022493  1.0000
  O   O4        1.0  0.9786543646679889  0.11993545641931275  0.3917904271032029  1.0000
  O   O5        1.0  0.13168880814556166  0.24591651945532783  0.3377832988871816  1.0000
  O   O6        1.0  0.864824745244583  0.25801651772830764  0.33323633333232994  1.0000
  O   O7        1.0  0.022494850824983804  0.11661128164188025  0.3327047817233221  1.0000
  O   O8        1.0  0.9663561063653888  0.3975705066143218  0.33308728506896296  1.0000
  O   O9        1.0  0.2066006564283357  0.12976612105580182  0.8971679965927777  1.0000
  O   O10       1.0  0.3813352583878  0.9917296461401648  0.892547582510687  1.0000
  O   O11       1.0  0.2843138669223819  0.8478483661987467  0.8925896051306521  1.0000
  O   O12       1.0  0.1199375012746771  0.9786556568779117  0.8917912430175077  1.0000
  O   O13       1.0  0.24592366934071216  0.13169014796816464  0.8377865612883821  1.0000
  O   O14       1.0  0.2580198546460792  0.8648250566727638  0.8332387893993455  1.0000
  O   O15       1.0  0.11661457052966993  0.022489784481137982  0.8327045654116245  1.0000
  O   O16       1.0  0.3975697128526647  0.9663574402924552  0.8330898281582789  1.0000
  O   O17       1.0  0.7933964329831156  0.8702377319176903  0.1028332776849368  1.0000
  O   O18       1.0  0.6186604754393346  0.008277186768225355  0.10745284844931999  1.0000
  O   O19       1.0  0.7156893478998398  0.15215063873267087  0.10741030050402857  1.0000
  O   O20       1.0  0.8800616540531152  0.021340475515223896  0.10820884143382867  1.0000
  O   O21       1.0  0.7540774929657135  0.8683113377895209  0.1622146689906927  1.0000
  O   O22       1.0  0.741977247359415  0.1351748690291927  0.1667623187219647  1.0000
  O   O23       1.0  0.8833832442894265  0.9775034331235444  0.16729482739226847  1.0000
  O   O24       1.0  0.6024239953218286  0.03364336392986896  0.16691161198556864  1.0000
  O   O25       1.0  0.8702373707084234  0.793392274058462  0.6028336632895801  1.0000
  O   O26       1.0  0.0082764803731692  0.618659303046783  0.6074509050913831  1.0000
  O   O27       1.0  0.15215111479636798  0.7156881609063105  0.607409404008358  1.0000
  O   O28       1.0  0.021342069130440705  0.88006071567996  0.6082107950821509  1.0000
  O   O29       1.0  0.86831038843863  0.7540704611763754  0.6622151506062719  1.0000
  O   O30       1.0  0.135173085766958  0.7419793426496992  0.6667605866333091  1.0000
  O   O31       1.0  0.9775022679932592  0.883384064363312  0.6672959098239203  1.0000
  O   O32       1.0  0.0336403799187508  0.6024230914004673  0.6669091936669034  1.0000
