data_image0
_chemical_formula_structural       Cd4H52C48N4O20
_chemical_formula_sum              "Cd4 H52 C48 N4 O20"
_cell_length_a       7.298995299012681
_cell_length_b       10.91938262301627
_cell_length_c       16.174633646004004
_cell_angle_alpha    89.9999933816232
_cell_angle_beta     90.00008194971635
_cell_angle_gamma    90.00019705788947

_space_group_name_H-M_alt    "P 1"
_space_group_IT_number       1

loop_
  _space_group_symop_operation_xyz
  'x, y, z'

loop_
  _atom_site_type_symbol
  _atom_site_label
  _atom_site_symmetry_multiplicity
  _atom_site_fract_x
  _atom_site_fract_y
  _atom_site_fract_z
  _atom_site_occupancy
  Cd  Cd1       1.0  0.4554505922598225  0.49016098204788955  0.22158105573745965  1.0000
  Cd  Cd2       1.0  0.544549935708176  0.9901645385508859  0.7784171876066281  1.0000
  Cd  Cd3       1.0  0.9554455216794225  0.4901606297534259  0.27841342063619834  1.0000
  Cd  Cd4       1.0  0.044550896117762306  0.9901593960246873  0.721583586202506  1.0000
  H   H1        1.0  0.319219817827566  0.44913373893367503  0.4874621487579702  1.0000
  H   H2        1.0  0.6807791281773916  0.9491303656526425  0.5125391862921802  1.0000
  H   H3        1.0  0.8192248880619459  0.4491334712883842  0.012539656750092804  1.0000
  H   H4        1.0  0.18077405794770843  0.9491342965091935  0.9874585870399175  1.0000
  H   H5        1.0  0.45926901705708917  0.23795525902951917  0.7032228791736871  1.0000
  H   H6        1.0  0.5407247281063121  0.7379580442993472  0.2967759851644943  1.0000
  H   H7        1.0  0.9592722233949902  0.2379603957163141  0.7967738500725476  1.0000
  H   H8        1.0  0.040725631941562306  0.7379611498417801  0.20322315951086983  1.0000
  H   H9        1.0  0.8189593004091621  0.24088993624603466  0.4927310593431146  1.0000
  H   H10       1.0  0.18103582994545056  0.740886335918049  0.5072671867115944  1.0000
  H   H11       1.0  0.31895823012153096  0.24088669354640047  0.0072676569959924  1.0000
  H   H12       1.0  0.6810410103735763  0.7408859154121078  0.9927274977999828  1.0000
  H   H13       1.0  0.17647419643716236  0.3414708611157452  0.7016715905147137  1.0000
  H   H14       1.0  0.823526933612037  0.8414687987517837  0.29832789095158324  1.0000
  H   H15       1.0  0.6764678171896676  0.34147141828371735  0.7983286595823885  1.0000
  H   H16       1.0  0.32352646260353174  0.8414700731816469  0.2016689671255563  1.0000
  H   H17       1.0  0.07434910979462471  0.37176184954594765  0.6040477070363439  1.0000
  H   H18       1.0  0.9256508066482143  0.8717581583889997  0.3959530106040036  1.0000
  H   H19       1.0  0.5743498817337171  0.3717596282372356  0.8959518567585862  1.0000
  H   H20       1.0  0.4256500347005813  0.8717585480927285  0.1040463878736801  1.0000
  H   H21       1.0  0.19912282679383966  0.4886165762257804  0.6548229318020306  1.0000
  H   H22       1.0  0.8008859135027608  0.9886181102971394  0.345175929813621  1.0000
  H   H23       1.0  0.6991111117569135  0.48861803427705314  0.845176095207279  1.0000
  H   H24       1.0  0.3008866681171368  0.9886139048255347  0.1548209116486845  1.0000
  H   H25       1.0  0.6272264433284748  0.14935073639369995  0.0041023093397214005  1.0000
  H   H26       1.0  0.3727873949701533  0.64934741965412  0.9958990289773766  1.0000
  H   H27       1.0  0.12721180874479643  0.1493528329477485  0.49589813560182  1.0000
  H   H28       1.0  0.8727828488544848  0.6493544811051211  0.5041025844568452  1.0000
  H   H29       1.0  0.7034202099044791  0.011661712892490104  0.05204468860564051  1.0000
  H   H30       1.0  0.2965860669977403  0.511658236903827  0.9479572694592024  1.0000
  H   H31       1.0  0.20341364784669477  0.011664740519911702  0.4479570448677634  1.0000
  H   H32       1.0  0.7965857788174874  0.5116643672958718  0.5520424401866608  1.0000
  H   H33       1.0  0.8656824587277754  0.11292678867867074  0.0060554467483556  1.0000
  H   H34       1.0  0.13432845135167784  0.6129247580411175  0.993948364972205  1.0000
  H   H35       1.0  0.3656719282892098  0.11293163326682533  0.49394762972800527  1.0000
  H   H36       1.0  0.6343266513430592  0.6129290714664535  0.5060518542242392  1.0000
  H   H37       1.0  0.8929566078441056  0.184082821459377  0.23227448948471627  1.0000
  H   H38       1.0  0.10703685909246023  0.684087210969061  0.7677311762118322  1.0000
  H   H39       1.0  0.39296593083908965  0.1840886538855528  0.2677310773185511  1.0000
  H   H40       1.0  0.6070357564097082  0.6840850417637585  0.732270260616531  1.0000
  H   H41       1.0  0.03284209021661871  0.13836406391133238  0.1470289971324448  1.0000
  H   H42       1.0  0.9671607309492886  0.638364901346563  0.8529809968288691  1.0000
  H   H43       1.0  0.5328399895918068  0.1383682668987376  0.3529818956274369  1.0000
  H   H44       1.0  0.46716009146756937  0.6383634457651867  0.647021297560684  1.0000
  H   H45       1.0  0.8749906631592951  0.0315476269854713  0.19043798809999404  1.0000
  H   H46       1.0  0.12500064589610102  0.5315474653076964  0.8095670610036054  1.0000
  H   H47       1.0  0.37499737501126873  0.031551614485429993  0.3095669501962847  1.0000
  H   H48       1.0  0.6250035244088964  0.5315471410300746  0.690434389398334  1.0000
  H   H49       1.0  0.5542730695187787  0.29366832245651864  0.08830450061395113  1.0000
  H   H50       1.0  0.44574151413767993  0.7936615363928327  0.9116918901168631  1.0000
  H   H51       1.0  0.05425680529723561  0.2936658668007652  0.4116884753543317  1.0000
  H   H52       1.0  0.9457358575430349  0.7936667394313591  0.5883091518732472  1.0000
  C   C1        1.0  0.6230463070807704  0.40243549017691277  0.3983053617771546  1.0000
  C   C2        1.0  0.376956507887094  0.9024295610776961  0.6016978285384981  1.0000
  C   C3        1.0  0.12303867762170032  0.40243404901596586  0.10169569589287163  1.0000
  C   C4        1.0  0.8769613972604944  0.9024392444601262  0.8983050214137336  1.0000
  C   C5        1.0  0.5736477221101526  0.35052863955169045  0.4817644229953402  1.0000
  C   C6        1.0  0.42634797452574713  0.8505301765686113  0.5182362948746262  1.0000
  C   C7        1.0  0.07364668563719332  0.350528140768958  0.018235365979599308  1.0000
  C   C8        1.0  0.9263531211529427  0.8505315911590332  0.9817634971356527  1.0000
  C   C9        1.0  0.4110816671126187  0.38726220899447833  0.5205559739298381  1.0000
  C   C10       1.0  0.5889155892915454  0.8872604674659287  0.47944659829703085  1.0000
  C   C11       1.0  0.9110936568569487  0.38726637173894574  0.9794456677560461  1.0000
  C   C12       1.0  0.08891181987695525  0.8872663785610727  0.0205531949613516  1.0000
  C   C13       1.0  0.3684826752651632  0.34785607342892183  0.6006919327019205  1.0000
  C   C14       1.0  0.631514377620306  0.8478581181830196  0.3993087851975758  1.0000
  C   C15       1.0  0.8684779773683788  0.34786300907238404  0.8993090629062055  1.0000
  C   C16       1.0  0.13152181564244364  0.8478612563726954  0.10068918198604848  1.0000
  C   C17       1.0  0.4920529700734592  0.27055147162319326  0.6414044881713394  1.0000
  C   C18       1.0  0.5079464236538486  0.7705550779400453  0.3585956123180694  1.0000
  C   C19       1.0  0.9920481466718485  0.27055842022704013  0.8585941172138689  1.0000
  C   C20       1.0  0.0079471369238959  0.7705582031613931  0.1414041285180474  1.0000
  C   C21       1.0  0.6536887531545547  0.2309605966667192  0.6029251542163934  1.0000
  C   C22       1.0  0.34631317618996593  0.7309610731443216  0.3970761832087178  1.0000
  C   C23       1.0  0.15367929414546216  0.23096364048809195  0.8970744637202657  1.0000
  C   C24       1.0  0.8463157849577101  0.7309662715398204  0.102923782442403  1.0000
  C   C25       1.0  0.6934024180463467  0.2710334332943205  0.5227490081024015  1.0000
  C   C26       1.0  0.3065969781609041  0.7710319616869371  0.4772535653898871  1.0000
  C   C27       1.0  0.1934041665888628  0.27103095678956635  0.9772512539896  1.0000
  C   C28       1.0  0.8065911194546304  0.7710335223849824  0.022746991737165004  1.0000
  C   C29       1.0  0.1953686106910126  0.389423236883296  0.6427348675104982  1.0000
  C   C30       1.0  0.8046327670281672  0.8894229440907679  0.3572646134340972  1.0000
  C   C31       1.0  0.6953651532282876  0.3894246910957976  0.8572653945953803  1.0000
  C   C32       1.0  0.30463348438488674  0.8894214898754241  0.1427322315922268  1.0000
  C   C33       1.0  0.7855136019115748  0.14897350460184813  0.6470801397216237  1.0000
  C   C34       1.0  0.21448790398024192  0.648974609027782  0.35291748908331755  1.0000
  C   C35       1.0  0.28551359715409313  0.14897930989849337  0.8529170935201336  1.0000
  C   C36       1.0  0.7144879087604253  0.6489779617581491  0.1470799170327339  1.0000
  C   C37       1.0  0.7368771019841206  0.10830000040938613  0.0410645432149082  1.0000
  C   C38       1.0  0.26312967404533794  0.6082991917096338  0.9589380320505685  1.0000
  C   C39       1.0  0.23687194383496296  0.1083066877538315  0.4589372113939021  1.0000
  C   C40       1.0  0.763125241860408  0.6083044097895893  0.541062890860232  1.0000
  C   C41       1.0  0.8972227187339075  0.12873996283356356  0.1759622420369453  1.0000
  C   C42       1.0  0.10277457251191893  0.6287406614403964  0.8240434242630883  1.0000
  C   C43       1.0  0.3972253650586027  0.12874486152325912  0.324043946447361  1.0000
  C   C44       1.0  0.6027746662941171  0.6287394259652005  0.675958010341418  1.0000
  C   C45       1.0  0.6523769928157608  0.2685049164609411  0.1371278956675397  1.0000
  C   C46       1.0  0.34762924057096717  0.7684997528537068  0.8628684953343041  1.0000
  C   C47       1.0  0.15236605830446592  0.26850430795846597  0.36286700038873937  1.0000
  C   C48       1.0  0.8476264745764724  0.7685031087482702  0.6371312453646212  1.0000
  N   N1        1.0  0.7566855923444252  0.1717678845744288  0.1194391221013547  1.0000
  N   N2        1.0  0.24332014142794386  0.6717652238512315  0.8805628342211522  1.0000
  N   N3        1.0  0.25667745248305357  0.1717709336540096  0.3805620266996002  1.0000
  N   N4        1.0  0.7433159508364754  0.6717676695739742  0.619438074862714  1.0000
  O   O1        1.0  0.4949506665004861  0.45399046240160595  0.35828957497918174  1.0000
  O   O2        1.0  0.5050510447028672  0.9539921403544867  0.6417105235149663  1.0000
  O   O3        1.0  0.9949575049981619  0.454000227468434  0.1417098740021174  1.0000
  O   O4        1.0  0.005048316392525  0.9539961123330373  0.8582883697372382  1.0000
  O   O5        1.0  0.7898650971561595  0.3924021503971745  0.37640878518573123  1.0000
  O   O6        1.0  0.21014725635468073  0.8923949164802283  0.6235981147544153  1.0000
  O   O7        1.0  0.28986164533647246  0.3923970390603131  0.12358929195848842  1.0000
  O   O8        1.0  0.7101342675724213  0.8924110174317476  0.8764101889518587  1.0000
  O   O9        1.0  0.7579619165453905  0.12306082362582774  0.724098876701099  1.0000
  O   O10       1.0  0.2420421956102743  0.6230592682640362  0.2758999888907354  1.0000
  O   O11       1.0  0.257957564201739  0.12306115861876069  0.7758995750547089  1.0000
  O   O12       1.0  0.7420396977016993  0.6230625964744264  0.2240968175267284  1.0000
  O   O13       1.0  0.9262985727374513  0.1098707284596117  0.6095046833106252  1.0000
  O   O14       1.0  0.07369040075268882  0.6098834039142815  0.39048738164736113  1.0000
  O   O15       1.0  0.42630416403455484  0.1098847640257645  0.8904901707100664  1.0000
  O   O16       1.0  0.5736985100068709  0.6098794421924438  0.10950807677265571  1.0000
  O   O17       1.0  0.6586740036600605  0.32682048102507383  0.2040932472387027  1.0000
  O   O18       1.0  0.34132842077610104  0.8268180717163887  0.7959080891435166  1.0000
  O   O19       1.0  0.15866560281503445  0.3268143990260414  0.29590536187183153  1.0000
  O   O20       1.0  0.8413313413864502  0.8268131640768391  0.7040959745086257  1.0000
