data_image0
_chemical_formula_structural       Cd2H20C28N24O8
_chemical_formula_sum              "Cd2 H20 C28 N24 O8"
_cell_length_a       8.337394956820603
_cell_length_b       8.337427207797354
_cell_length_c       15.456890503728012
_cell_angle_alpha    88.66820496643223
_cell_angle_beta     88.66863758027826
_cell_angle_gamma    69.49618291922835

_space_group_name_H-M_alt    "P 1"
_space_group_IT_number       1

loop_
  _space_group_symop_operation_xyz
  'x, y, z'

loop_
  _atom_site_type_symbol
  _atom_site_label
  _atom_site_symmetry_multiplicity
  _atom_site_fract_x
  _atom_site_fract_y
  _atom_site_fract_z
  _atom_site_occupancy
  Cd  Cd1       1.0  0.6881834408068033  0.31181626849998173  0.7500026508018395  1.0000
  Cd  Cd2       1.0  0.3118132064114861  0.6881868411352199  0.24999873372134826  1.0000
  H   H1        1.0  0.6938959213062718  0.9764190816912404  0.5097646927452004  1.0000
  H   H2        1.0  0.023602930489452893  0.30608918103632726  0.9902391574851919  1.0000
  H   H3        1.0  0.3061103489898188  0.023591347790485898  0.49023780380334603  1.0000
  H   H4        1.0  0.9764100099975933  0.6938969630825652  0.009762881256165201  1.0000
  H   H5        1.0  0.8994172449607306  0.8462747172637108  0.5500316211875146  1.0000
  H   H6        1.0  0.15374854964782972  0.1005681190805134  0.9499690282812593  1.0000
  H   H7        1.0  0.10058466969218931  0.15372697592437126  0.4499684280642313  1.0000
  H   H8        1.0  0.8462676085488992  0.8994230333465579  0.050026452479130505  1.0000
  H   H9        1.0  0.24647623896086654  0.7385401584012854  0.5048014159669094  1.0000
  H   H10       1.0  0.26146476075853536  0.7535151999501648  0.9951975856631349  1.0000
  H   H11       1.0  0.753515908475535  0.2614694203750361  0.4952005943666933  1.0000
  H   H12       1.0  0.7385331746775421  0.24648027587382865  0.004801279135342904  1.0000
  H   H13       1.0  0.05164472921119055  0.37209940830781824  0.5973853158324188  1.0000
  H   H14       1.0  0.6279111602517989  0.9483432338165583  0.9026133720073658  1.0000
  H   H15       1.0  0.9483539003282501  0.627908721444058  0.40261469957344076  1.0000
  H   H16       1.0  0.3720851487948593  0.0516535577556283  0.0973854961232732  1.0000
  H   H17       1.0  0.30939346701297415  0.24472207258276057  0.6933886430141953  1.0000
  H   H18       1.0  0.7552849696755004  0.6905926017793149  0.8066121970177703  1.0000
  H   H19       1.0  0.6906048332348859  0.7552797480070195  0.30660691491025455  1.0000
  H   H20       1.0  0.24471776545940574  0.3094065221000477  0.1933898119118567  1.0000
  C   C1        1.0  0.7401319226177208  0.037474445290556  0.6399370465435581  1.0000
  C   C2        1.0  0.9625203629683907  0.2598508010476833  0.8600717557627391  1.0000
  C   C3        1.0  0.2598647127605034  0.9625286524767559  0.3600669260981064  1.0000
  C   C4        1.0  0.0374800163790567  0.7401407867524199  0.1399297124110745  1.0000
  C   C5        1.0  0.7633582795455707  0.9085163768414545  0.5668227821855538  1.0000
  C   C6        1.0  0.09149298621795048  0.23662462024207542  0.9331802189214288  1.0000
  C   C7        1.0  0.2366456026284069  0.09149032162842731  0.4331791330969494  1.0000
  C   C8        1.0  0.9085158810082915  0.7633667246819229  0.0668198668063766  1.0000
  C   C9        1.0  0.5375709195325981  0.6320700098455062  0.6068827779764377  1.0000
  C   C10       1.0  0.3679365164901753  0.4624180870686843  0.893116411455196  1.0000
  C   C11       1.0  0.4624281217278393  0.3679368367354953  0.3931178937535478  1.0000
  C   C12       1.0  0.6320658893531501  0.5375747276485824  0.10688113999302119  1.0000
  C   C13       1.0  0.40025916021921404  0.5621329415258528  0.6029765543085759  1.0000
  C   C14       1.0  0.43787559236606893  0.5997268109040803  0.8970218592339734  1.0000
  C   C15       1.0  0.5997358401150732  0.43787530079285375  0.39702220491808754  1.0000
  C   C16       1.0  0.562125181167815  0.40026731362742407  0.1029769896056507  1.0000
  C   C17       1.0  0.25913189194438496  0.6304978639428285  0.5489226593553411  1.0000
  C   C18       1.0  0.3695068288967747  0.7408551657773685  0.9510740546228218  1.0000
  C   C19       1.0  0.740860264372067  0.369511723734412  0.4510774098894075  1.0000
  C   C20       1.0  0.6304894860699263  0.2591416317287738  0.0489235194485858  1.0000
  C   C21       1.0  0.15291854999149018  0.4263937134944768  0.5985843896458718  1.0000
  C   C22       1.0  0.5736122817101758  0.8470722558748635  0.9014150613276186  1.0000
  C   C23       1.0  0.8470821176583667  0.573611817338339  0.4014162787519453  1.0000
  C   C24       1.0  0.4263840273364893  0.15292453569732337  0.0985838068030205  1.0000
  C   C25       1.0  0.2948690094989956  0.3560637033332484  0.6517538527017095  1.0000
  C   C26       1.0  0.6439431566806987  0.7051200199674881  0.8482473429869586  1.0000
  C   C27       1.0  0.705134134622426  0.6439379721123901  0.3482423017456355  1.0000
  C   C28       1.0  0.3560583990804744  0.294875334388756  0.15175471907956964  1.0000
  N   N1        1.0  0.695700803687892  0.7751154973065012  0.5906335395025337  1.0000
  N   N2        1.0  0.22488679638024683  0.3042894580852575  0.909364419295791  1.0000
  N   N3        1.0  0.30429949345566587  0.22488752053070016  0.4093645719925192  1.0000
  N   N4        1.0  0.7751159947694575  0.6957058844624909  0.0906324539071051  1.0000
  N   N5        1.0  0.7774137845422758  0.6491383073703645  0.6452924024251274  1.0000
  N   N6        1.0  0.35086200971591813  0.22258265205804412  0.8547040018493703  1.0000
  N   N7        1.0  0.2225852596781834  0.3508685421776079  0.35470762227524216  1.0000
  N   N8        1.0  0.6491375375350115  0.777415330887017  0.1452909369290012  1.0000
  N   N9        1.0  0.6784744506230707  0.557086242225836  0.6556163900788122  1.0000
  N   N10       1.0  0.4429169576815112  0.32151922065695965  0.8443825864962662  1.0000
  N   N11       1.0  0.32152458471733064  0.44292059842122455  0.3443855757104188  1.0000
  N   N12       1.0  0.557085833468193  0.6784761218907889  0.1556142867066299  1.0000
  N   N13       1.0  0.5454823203426995  0.7716972721649217  0.5648108027729607  1.0000
  N   N14       1.0  0.22830935971190766  0.45450594309800607  0.9351881198778499  1.0000
  N   N15       1.0  0.4545171415187923  0.2283083001461321  0.43518858419230366  1.0000
  N   N16       1.0  0.7716954636281699  0.5454867945967193  0.06481070037624188  1.0000
  N   N17       1.0  0.13530481005339107  0.56313373506093  0.5472578732704105  1.0000
  N   N18       1.0  0.4368738263072983  0.8646776182218615  0.9527419771551067  1.0000
  N   N19       1.0  0.8646853316072625  0.436874637567051  0.4527435245814502  1.0000
  N   N20       1.0  0.563121273990987  0.13531921186159215  0.0472562565725951  1.0000
  N   N21       1.0  0.4174858827517269  0.424607546855654  0.6543997641363217  1.0000
  N   N22       1.0  0.5754046592952731  0.5825018750623769  0.84560150014493  1.0000
  N   N23       1.0  0.5825164231276077  0.5753966800968654  0.34559831281085  1.0000
  N   N24       1.0  0.42459812001435887  0.4174934556174676  0.1543979611764428  1.0000
  O   O1        1.0  0.8525866433615263  0.1874523539134714  0.8749026692125454  1.0000
  O   O2        1.0  0.8125135452796641  0.1474267883074347  0.6251047418344626  1.0000
  O   O3        1.0  0.14741777395205694  0.8125378351819563  0.1251013584942129  1.0000
  O   O4        1.0  0.18749118083091082  0.8525735268853863  0.3749011147249988  1.0000
  O   O5        1.0  0.9686048024814654  0.34853923740470805  0.7940081737284572  1.0000
  O   O6        1.0  0.6514618569493749  0.031372754585760304  0.706004973754972  1.0000
  O   O7        1.0  0.031380104079211324  0.651466746602985  0.20599459990506827  1.0000
  O   O8        1.0  0.3485396810516903  0.9686225819686384  0.2940009704892717  1.0000
