data_image0
_chemical_formula_structural       Ag4H8C14S2O12
_chemical_formula_sum              "Ag4 H8 C14 S2 O12"
_cell_length_a       6.933951143850898
_cell_length_b       7.550156925565443
_cell_length_c       9.561620043341456
_cell_angle_alpha    72.3623141911911
_cell_angle_beta     83.83437456561258
_cell_angle_gamma    70.85680979556346

_space_group_name_H-M_alt    "P 1"
_space_group_IT_number       1

loop_
  _space_group_symop_operation_xyz
  'x, y, z'

loop_
  _atom_site_type_symbol
  _atom_site_label
  _atom_site_symmetry_multiplicity
  _atom_site_fract_x
  _atom_site_fract_y
  _atom_site_fract_z
  _atom_site_occupancy
  Ag  Ag1       1.0  0.9159506370877748  0.9162089818025051  0.9237145759955612  1.0000
  Ag  Ag2       1.0  0.0840489832930871  0.08379138750742499  0.07628488347853593  1.0000
  Ag  Ag3       1.0  0.45479453521909347  0.7561274652913992  0.05858919773174164  1.0000
  Ag  Ag4       1.0  0.5452027359640823  0.24387140849040628  0.941405559429825  1.0000
  H   H1        1.0  0.2490727057351377  0.5990790527151121  0.7736428171953807  1.0000
  H   H2        1.0  0.7509274069775242  0.4009198097538373  0.2263548888347132  1.0000
  H   H3        1.0  0.20296732740398943  0.7475103215788649  0.5266279798694387  1.0000
  H   H4        1.0  0.797034656497459  0.2524870620159446  0.4733710107991132  1.0000
  H   H5        1.0  0.35838059228029107  0.8793881849728818  0.2895827433799313  1.0000
  H   H6        1.0  0.6416220093226387  0.12061206094661259  0.7104144528020415  1.0000
  H   H7        1.0  0.926544100009309  0.7283924864707811  0.5064536143445438  1.0000
  H   H8        1.0  0.0734560263189721  0.271610834825907  0.4935482203714941  1.0000
  C   C1        1.0  0.6819701539600018  0.6556291672107047  0.643800063816862  1.0000
  C   C2        1.0  0.318029002027565  0.3443726865247  0.3562001066691067  1.0000
  C   C3        1.0  0.4755668155878752  0.6623242329664192  0.6513034532328849  1.0000
  C   C4        1.0  0.5244333945559561  0.3376790210837227  0.34869525418676534  1.0000
  C   C5        1.0  0.3624682100757398  0.7409991995635535  0.5214349510014389  1.0000
  C   C6        1.0  0.6375339271338945  0.25900253078141583  0.4785629561924056  1.0000
  C   C7        1.0  0.45138437910443246  0.8140259157796303  0.38869053470475745  1.0000
  C   C8        1.0  0.5486181945599783  0.18597435255538391  0.61130770390934  1.0000
  C   C9        1.0  0.6551465462627634  0.8118663706774285  0.3812555043911985  1.0000
  C   C10       1.0  0.3448540723973252  0.18813544377827895  0.6187445768808433  1.0000
  C   C11       1.0  0.7685775254045666  0.7311869020512134  0.5104070042066058  1.0000
  C   C12       1.0  0.23142262886222645  0.2688163968299548  0.48959378807730064  1.0000
  C   C13       1.0  0.7538921297183376  0.8977216698463977  0.24289680654646878  1.0000
  C   C14       1.0  0.24610749066251714  0.10227869946353958  0.7571026529276284  1.0000
  S   S1        1.0  0.8307577286635704  0.5693318436164887  0.8044449548207313  1.0000
  S   S2        1.0  0.16923791221599058  0.430667203938114  0.19555614614755265  1.0000
  O   O1        1.0  0.7397914736637431  0.7135290040810248  0.8886549044709184  1.0000
  O   O2        1.0  0.2602081187786069  0.28647138764442553  0.11134559743531014  1.0000
  O   O3        1.0  0.818591601089409  0.3739026221114725  0.8871834425494785  1.0000
  O   O4        1.0  0.18140506600789758  0.6260978481733801  0.11281723778461128  1.0000
  O   O5        1.0  0.037948063709485794  0.5659976389454683  0.7525606160624037  1.0000
  O   O6        1.0  0.962050911031376  0.4339998904552899  0.2474416803303968  1.0000
  O   O7        1.0  0.39306614935173917  0.5952019936697394  0.7838394951764731  1.0000
  O   O8        1.0  0.6069330625128585  0.40479981523463227  0.2161585904452324  1.0000
  O   O9        1.0  0.6803578929189341  0.9132541233072969  0.11954965077410412  1.0000
  O   O10       1.0  0.31964172746192787  0.08674624600263309  0.8804498086999931  1.0000
  O   O11       1.0  0.9051063734433522  0.9507969702342437  0.25579692505313306  1.0000
  O   O12       1.0  0.09489473754854325  0.04920333738046879  0.7442014027748984  1.0000
