data_image0
_chemical_formula_structural       Cd3H42C36N4O14
_chemical_formula_sum              "Cd3 H42 C36 N4 O14"
_cell_length_a       9.126015200109814
_cell_length_b       9.450327969660565
_cell_length_c       18.627055077881135
_cell_angle_alpha    93.49385623575003
_cell_angle_beta     93.04368052439384
_cell_angle_gamma    118.03785364765191

_space_group_name_H-M_alt    "P 1"
_space_group_IT_number       1

loop_
  _space_group_symop_operation_xyz
  'x, y, z'

loop_
  _atom_site_type_symbol
  _atom_site_label
  _atom_site_symmetry_multiplicity
  _atom_site_fract_x
  _atom_site_fract_y
  _atom_site_fract_z
  _atom_site_occupancy
  Cd  Cd1       1.0  0.9992373765574312  0.9105175151699856  0.8189220507469275  1.0000
  Cd  Cd2       1.0  0.0007583893635754088  0.08948622955486481  0.18107651278352685  1.0000
  Cd  Cd3       1.0  0.999986644758145  0.9999964923352492  5.591441904840173e-07  1.0000
  H   H1        1.0  0.7856252473663757  0.1741246918945833  0.9656699808413907  1.0000
  H   H2        1.0  0.9760412634196031  0.4298321818019204  0.9197396288343712  1.0000
  H   H3        1.0  0.8345586421992266  0.3899292545305144  0.842675217678462  1.0000
  H   H4        1.0  0.7724074293507286  0.44255709433711843  0.9999185703310762  1.0000
  H   H5        1.0  0.5520204528989935  0.38310455683158307  0.8597139774233827  1.0000
  H   H6        1.0  0.5061369109772329  0.4242549318265176  0.9475517333100143  1.0000
  H   H7        1.0  0.4916864544021848  0.1705580381493377  0.9845053582119621  1.0000
  H   H8        1.0  0.5540025335052475  0.10863189009859299  0.8286618600473405  1.0000
  H   H9        1.0  0.5219078387135812  0.9801957792415695  0.8987711417844368  1.0000
  H   H10       1.0  0.8106630936551159  0.5787289727685307  0.7329832369858239  1.0000
  H   H11       1.0  0.6305618588047466  0.4333927587901912  0.6198483026714927  1.0000
  H   H12       1.0  0.5123770754989607  0.6620773580562229  0.48208092127578084  1.0000
  H   H13       1.0  0.672998518969031  0.8895153782913497  0.5653831644436879  1.0000
  H   H14       1.0  0.8464110742798281  0.013642647271936396  0.6841686840069201  1.0000
  H   H15       1.0  0.12983456185359202  0.6543635790761828  0.8590397873790467  1.0000
  H   H16       1.0  0.5600423988461216  0.8196568734805397  0.7671617807433437  1.0000
  H   H17       1.0  0.4288040192384486  0.6406973402467742  0.7093012987546461  1.0000
  H   H18       1.0  0.38456862410006215  0.8072684589199426  0.7135430385603173  1.0000
  H   H19       1.0  0.34895861811732237  0.4677339098898089  0.8196307740651677  1.0000
  H   H20       1.0  0.4954639315755713  0.6478175950173011  0.8735723361039123  1.0000
  H   H21       1.0  0.2818170276789473  0.5440312253517022  0.8930880802255957  1.0000
  H   H22       1.0  0.21437165970642272  0.8258813522226092  0.034331920487034005  1.0000
  H   H23       1.0  0.023959381186692493  0.5701703283120878  0.08025954930725733  1.0000
  H   H24       1.0  0.16544311428179986  0.6100732897139238  0.15732291630197184  1.0000
  H   H25       1.0  0.2275915642656444  0.55744430496938  7.783898243471127e-05  1.0000
  H   H26       1.0  0.44797885042821406  0.6168907947803464  0.14028274740841346  1.0000
  H   H27       1.0  0.4938603844581593  0.5757452471438357  0.052445123310874905  1.0000
  H   H28       1.0  0.5083207513400296  0.8294444211804333  0.015495059278634902  1.0000
  H   H29       1.0  0.44599562648652863  0.8913633543638186  0.17133805303598149  1.0000
  H   H30       1.0  0.47809491384818165  0.0198043330688833  0.10122746232404012  1.0000
  H   H31       1.0  0.18935109304631942  0.4212676436492586  0.26701123105587504  1.0000
  H   H32       1.0  0.3694454098588764  0.5666098465777624  0.3801478266384564  1.0000
  H   H33       1.0  0.48760349112652784  0.3379177966886289  0.5179222978221392  1.0000
  H   H34       1.0  0.3269821319897517  0.11048216949882318  0.4346206844553252  1.0000
  H   H35       1.0  0.1535825460145548  0.9863500493686603  0.31583531194267084  1.0000
  H   H36       1.0  0.8701715005531908  0.3456387731040635  0.14096381836308322  1.0000
  H   H37       1.0  0.4399564632459061  0.18034202325200252  0.23283721490456352  1.0000
  H   H38       1.0  0.5711942329517967  0.3593003155157319  0.2906987081071933  1.0000
  H   H39       1.0  0.6154296516857086  0.19272925160688462  0.2864553602337736  1.0000
  H   H40       1.0  0.6510547311211639  0.5322720985406519  0.18037154552276755  1.0000
  H   H41       1.0  0.5045449706929119  0.35219943926256303  0.12642545580624195  1.0000
  H   H42       1.0  0.718194815640679  0.4559784035975697  0.10691433820416313  1.0000
  C   C1        1.0  0.8412531652013299  0.11040878861170708  0.8626061903158873  1.0000
  C   C2        1.0  0.7650083005037089  0.192477016103048  0.9090243441582332  1.0000
  C   C3        1.0  0.842852246750283  0.37232253528727455  0.9002679210111215  1.0000
  C   C4        1.0  0.7560506899693706  0.451944872104825  0.9417365199728852  1.0000
  C   C5        1.0  0.5689169087170785  0.3682066844700672  0.9171650422209155  1.0000
  C   C6        1.0  0.48709438298133984  0.18844911946533932  0.9267166920790686  1.0000
  C   C7        1.0  0.5761721681435359  0.10693700636538492  0.8872613877003421  1.0000
  C   C8        1.0  0.8322208238449847  0.6312994548659605  0.9315431888184023  1.0000
  C   C9        1.0  0.30536052677087605  0.10001015244169759  0.896574561914875  1.0000
  C   C10       1.0  0.777527712600154  0.6421412298404049  0.6935876107362517  1.0000
  C   C11       1.0  0.6771521996694716  0.5627305497780171  0.6302864713105694  1.0000
  C   C12       1.0  0.6371702363021113  0.6499652036641593  0.5813089666918075  1.0000
  C   C13       1.0  0.5339843049579542  0.5781363966284588  0.5132265021305715  1.0000
  C   C14       1.0  0.7011065143110216  0.815946910960541  0.6008001595116071  1.0000
  C   C15       1.0  0.7993720788941232  0.886721225072705  0.6656491373311866  1.0000
  C   C16       1.0  0.19714476428251979  0.7045156823692481  0.8116645008023513  1.0000
  C   C17       1.0  0.43100718140317434  0.7395094369807892  0.7445774774363587  1.0000
  C   C18       1.0  0.36540248907373046  0.5787205363254986  0.8498259160753678  1.0000
  C   C19       1.0  0.15873992384302948  0.8895828496065832  0.13739345662180824  1.0000
  C   C20       1.0  0.2349921518404727  0.8075206531560041  0.09097518244895753  1.0000
  C   C21       1.0  0.15714772721646858  0.6276763955756907  0.09973003047559102  1.0000
  C   C22       1.0  0.2439430404374718  0.5480480801025891  0.05825997166056142  1.0000
  C   C23       1.0  0.4310784962752193  0.6317874333091781  0.08283261017290043  1.0000
  C   C24       1.0  0.5129065634706222  0.8115473246993261  0.07328333760342791  1.0000
  C   C25       1.0  0.4238305686878689  0.8930630694355272  0.1127382884532935  1.0000
  C   C26       1.0  0.16776808074915558  0.3686970519785292  0.06845546209528662  1.0000
  C   C27       1.0  0.6946360193732133  0.8999862647298899  0.1034264282769115  1.0000
  C   C28       1.0  0.22248884292179832  0.35786018616456516  0.30640763665299187  1.0000
  C   C29       1.0  0.32285611008230564  0.43727192542741017  0.3697134380414156  1.0000
  C   C30       1.0  0.3628341908450992  0.3500360742181244  0.4186907981770319  1.0000
  C   C31       1.0  0.4660118078161233  0.42186358391851536  0.4867762228547506  1.0000
  C   C32       1.0  0.2988847197777744  0.184054304197268  0.3992019508625334  1.0000
  C   C33       1.0  0.20063285022604294  0.11327884596997248  0.3343505945903829  1.0000
  C   C34       1.0  0.8028636512144444  0.2954914328886388  0.18834095633248185  1.0000
  C   C35       1.0  0.5689944750142004  0.2604906777087806  0.2554210987881477  1.0000
  C   C36       1.0  0.6346042146955355  0.42128312984387145  0.1501745343625061  1.0000
  N   N1        1.0  0.8381306494124416  0.8014871381723196  0.7109160861436907  1.0000
  N   N2        1.0  0.3255897514453281  0.6753987432080778  0.8026491833484928  1.0000
  N   N3        1.0  0.16187631906024083  0.19850817853102853  0.28908136989845457  1.0000
  N   N4        1.0  0.6744064163849827  0.3246013651222981  0.19734978947875706  1.0000
  O   O1        1.0  0.8618011627519235  0.9980054901433772  0.8919117186793245  1.0000
  O   O2        1.0  0.8731555093650555  0.1425007986043454  0.7994008378981975  1.0000
  O   O3        1.0  0.2620736783766091  0.13454841486211683  0.8369117106522028  1.0000
  O   O4        1.0  0.2031079462435061  0.983415247800956  0.9301480724705797  1.0000
  O   O5        1.0  0.8539456607556273  0.6681217963145656  0.8669881857433526  1.0000
  O   O6        1.0  0.864935988965854  0.7272189177702089  0.988360961939485  1.0000
  O   O7        1.0  0.15446415037286704  0.7817768667256146  0.7706883410047569  1.0000
  O   O8        1.0  0.13817120126760324  0.0019752682190343996  0.10808913449199764  1.0000
  O   O9        1.0  0.126863181205799  0.8575026771017988  0.20060474346655616  1.0000
  O   O10       1.0  0.7379227677038358  0.8654455727546022  0.16308972178365624  1.0000
  O   O11       1.0  0.7968866291510109  0.016588280245734704  0.06985689544688971  1.0000
  O   O12       1.0  0.14605508391431957  0.3318831433543111  0.1330105501542107  1.0000
  O   O13       1.0  0.13504555232847082  0.2727715580335257  0.011637809304716  1.0000
  O   O14       1.0  0.8455368001059185  0.21823514255059004  0.22931550043158924  1.0000
