data_image0
_chemical_formula_structural       Zn2H28C36S2N8O10
_chemical_formula_sum              "Zn2 H28 C36 S2 N8 O10"
_cell_length_a       10.262842887367073
_cell_length_b       10.101804884869674
_cell_length_c       10.588422776610358
_cell_angle_alpha    109.19362002724014
_cell_angle_beta     108.89824580724435
_cell_angle_gamma    103.9431402861558

_space_group_name_H-M_alt    "P 1"
_space_group_IT_number       1

loop_
  _space_group_symop_operation_xyz
  'x, y, z'

loop_
  _atom_site_type_symbol
  _atom_site_label
  _atom_site_symmetry_multiplicity
  _atom_site_fract_x
  _atom_site_fract_y
  _atom_site_fract_z
  _atom_site_occupancy
  Zn  Zn1       1.0  0.09783653659243897  0.24600544402316868  0.23816031441395316  1.0000
  Zn  Zn2       1.0  0.9021633695837393  0.7539941792906432  0.7618404755438062  1.0000
  H   H1        1.0  0.29875376958670313  0.8721525642097415  0.11531692068453468  1.0000
  H   H2        1.0  0.7012439021891839  0.1278493356846369  0.8846810625836881  1.0000
  H   H3        1.0  0.5180533286299321  0.7980231036132039  0.0741567808395018  1.0000
  H   H4        1.0  0.4819430344811977  0.20197538823368424  0.9258406797521629  1.0000
  H   H5        1.0  0.9479665473503686  0.43418508517321175  0.09923297687336684  1.0000
  H   H6        1.0  0.052036002583690656  0.5658133840852881  0.9007682629643623  1.0000
  H   H7        1.0  0.09563678753801942  0.7431457383777058  0.19138304705889908  1.0000
  H   H8        1.0  0.9043637269857284  0.25685275190083695  0.8086194640652309  1.0000
  H   H9        1.0  0.38194664239589565  0.5843742071896184  0.43905353769555683  1.0000
  H   H10       1.0  0.6180557589181817  0.4156265429242437  0.5609483698570301  1.0000
  H   H11       1.0  0.5606242969446811  0.7740835541335469  0.4080809617564398  1.0000
  H   H12       1.0  0.4393776647898093  0.225916058278159  0.5919204551912357  1.0000
  H   H13       1.0  0.7626868859073924  0.03186262911193441  0.5490528761172015  1.0000
  H   H14       1.0  0.23731507582709804  0.9681369832997716  0.4509485408304739  1.0000
  H   H15       1.0  0.9708632065285628  0.08912423033907399  0.4184000086276  1.0000
  H   H16       1.0  0.02913598297606509  0.9108788271012287  0.5816035244312802  1.0000
  H   H17       1.0  0.12707276431991937  0.17493896187988864  0.7212747186816485  1.0000
  H   H18       1.0  0.8729263748147101  0.8250640702655827  0.27872406868644356  1.0000
  H   H19       1.0  0.3671983005685177  0.47608684325538747  0.5995382659834616  1.0000
  H   H20       1.0  0.6328021736592289  0.5239116267872886  0.40046044858802776  1.0000
  H   H21       1.0  0.5681382893941986  0.5088282750523161  0.7970376416672664  1.0000
  H   H22       1.0  0.4318620462875699  0.49117248090467996  0.20296268975724258  1.0000
  H   H23       1.0  0.7638459617832255  0.6310972166082466  0.05428112391646072  1.0000
  H   H24       1.0  0.2361543738985432  0.3689035393487571  0.9457192075080484  1.0000
  H   H25       1.0  0.07358102141527918  0.12867141735015508  0.9464548977618961  1.0000
  H   H26       1.0  0.9264199125400553  0.8713282005126075  0.05354620569082155  1.0000
  H   H27       1.0  0.9116301558563437  0.07140997763106327  0.9296603010946497  1.0000
  H   H28       1.0  0.08837076802498685  0.9285896351727343  0.07033985321990585  1.0000
  C   C1        1.0  0.36114236805676114  0.19655041356556066  0.2585081535134107  1.0000
  C   C2        1.0  0.6388569499198552  0.803450352901457  0.741492813554295  1.0000
  C   C3        1.0  0.45009380047346076  0.10958861318603398  0.21811045187546801  1.0000
  C   C4        1.0  0.5499059369347421  0.8904132808652035  0.7818891075208255  1.0000
  C   C5        1.0  0.4092836570360561  0.9534173047807427  0.14934960351693854  1.0000
  C   C6        1.0  0.5907160803721468  0.046584589270494796  0.8506499558793549  1.0000
  C   C7        1.0  0.5254753494964532  0.9136251464529862  0.12708473699954229  1.0000
  C   C8        1.0  0.4745195462559266  0.08637221314280909  0.8729119194922532  1.0000
  C   C9        1.0  0.652498566204237  0.040063306552404795  0.17658156170677586  1.0000
  C   C10       1.0  0.3474992541916321  0.9599363124866186  0.8234157538465893  1.0000
  C   C11       1.0  0.7934732356499625  0.04580235828728259  0.1651578450668296  1.0000
  C   C12       1.0  0.20652666045221216  0.9541972599675645  0.8348419957527681  1.0000
  C   C13       1.0  0.0593539279413946  0.512163262523309  0.1844637112620688  1.0000
  C   C14       1.0  0.940645677201175  0.48783293717403325  0.815534971237767  1.0000
  C   C15       1.0  0.1302236829052602  0.6648444213137238  0.23069529298712865  1.0000
  C   C16       1.0  0.8697772510500743  0.3351551965490387  0.769305810465589  1.0000
  C   C17       1.0  0.28318006837382376  0.5821757373401653  0.3575482242312021  1.0000
  C   C18       1.0  0.7168218732126661  0.41782386495361107  0.6424512944401499  1.0000
  C   C19       1.0  0.3873403421987617  0.8558355591847473  0.4213659481851975  1.0000
  C   C20       1.0  0.6126611900301385  0.1441629205837742  0.5786359272957355  1.0000
  C   C21       1.0  0.5347638344999622  0.8732655713339738  0.4496798252672746  1.0000
  C   C22       1.0  0.4652390164677058  0.1267363215409958  0.5503235220283783  1.0000
  C   C23       1.0  0.64806276736104  0.017697152399342993  0.5286879364869677  1.0000
  C   C24       1.0  0.35193625965596437  0.98230019551017  0.4713118722609764  1.0000
  C   C25       1.0  0.0751669436845717  0.18327870056111803  0.5009060776508177  1.0000
  C   C26       1.0  0.9248282128054228  0.8167220624152872  0.4990888897462681  1.0000
  C   C27       1.0  0.1477735034848777  0.22550266244531506  0.6501614806340257  1.0000
  C   C28       1.0  0.852226912788886  0.7744981339834069  0.3498464438957497  1.0000
  C   C29       1.0  0.27812615010915204  0.3820740644065097  0.5878266186013335  1.0000
  C   C30       1.0  0.7218737359190327  0.6179255487893726  0.4121722730801096  1.0000
  C   C31       1.0  0.38920905005468137  0.4296545869013497  0.8540933233374232  1.0000
  C   C32       1.0  0.6107908359734964  0.5703450262945321  0.14590556834401974  1.0000
  C   C33       1.0  0.5377651045543245  0.5039035116242799  0.8853497581950761  1.0000
  C   C34       1.0  0.4622352412014409  0.49609724939168837  0.11465152236759475  1.0000
  C   C35       1.0  0.6485620127545956  0.5737933345108528  0.031035373169714754  1.0000
  C   C36       1.0  0.351436845494426  0.4262062841360859  0.9689632050167701  1.0000
  S   S1        1.0  0.6302486828893664  0.20688760742532247  0.2533703461155099  1.0000
  S   S2        1.0  0.36975075348522773  0.7931108630094456  0.7466271058228671  1.0000
  N   N1        1.0  0.15546980902400517  0.46249649556618516  0.2639287154100245  1.0000
  N   N2        1.0  0.8445327308360504  0.5375019686333502  0.7360715752895431  1.0000
  N   N3        1.0  0.27232638018474375  0.7076824645770967  0.340371518149986  1.0000
  N   N4        1.0  0.7276755815497467  0.29231714783461626  0.6596298987976894  1.0000
  N   N5        1.0  0.15711668483314153  0.2809820992641291  0.46339051912566726  1.0000
  N   N6        1.0  0.8428830827970586  0.7190198099640026  0.5366118876851047  1.0000
  N   N7        1.0  0.2767183132021387  0.35228847484944475  0.7047641259284063  1.0000
  N   N8        1.0  0.7232815829000429  0.6477111434054094  0.2952357148911913  1.0000
  O   O1        1.0  0.004213885836193739  0.16484669824268383  0.9834722513890454  1.0000
  O   O2        1.0  0.9957864599195716  0.8351540627732773  0.01652902917361823  1.0000
  O   O3        1.0  0.2190431133513826  0.11863551279803626  0.20541634217132554  1.0000
  O   O4        1.0  0.7809586997631258  0.8813663804690248  0.7945857424912007  1.0000
  O   O5        1.0  0.4240603235734852  0.33813520013227816  0.33919078722531276  1.0000
  O   O6        1.0  0.5759421079625893  0.6618655651584784  0.6608139677417453  1.0000
  O   O7        1.0  0.8172541047556123  0.9247544972351065  0.1294283599732608  1.0000
  O   O8        1.0  0.18274581149456987  0.07524513113767027  0.8705733791226605  1.0000
  O   O9        1.0  0.8817661971651064  0.1781632259423773  0.19600699800368193  1.0000
  O   O10       1.0  0.118231802072735  0.8218341274181923  0.803992497249304  1.0000
