data_image0
_chemical_formula_structural       Zn4H40C44N12O24
_chemical_formula_sum              "Zn4 H40 C44 N12 O24"
_cell_length_a       9.272755598
_cell_length_b       9.279231858769615
_cell_length_c       15.0004
_cell_angle_alpha    90.0
_cell_angle_beta     90.0
_cell_angle_gamma    108.53760939963303

_space_group_name_H-M_alt    "P 1"
_space_group_IT_number       1

loop_
  _space_group_symop_operation_xyz
  'x, y, z'

loop_
  _atom_site_type_symbol
  _atom_site_label
  _atom_site_symmetry_multiplicity
  _atom_site_fract_x
  _atom_site_fract_y
  _atom_site_fract_z
  _atom_site_occupancy
  Zn  Zn1       1.0  0.5893853239275799  0.217552597795617  0.8718227513932961  1.0000
  Zn  Zn2       1.0  0.4106129335678048  0.28244737447011653  0.371822751393296  1.0000
  Zn  Zn3       1.0  0.4106139516233895  0.7824473467358429  0.1281772486067041  1.0000
  Zn  Zn4       1.0  0.5893867036074667  0.7175537067116692  0.6281772486067043  1.0000
  H   H1        1.0  0.043442513151347825  0.6827256042808401  0.8762453001253336  1.0000
  H   H2        1.0  0.956556702027129  0.8172743125163535  0.3762453001253335  1.0000
  H   H3        1.0  0.9565574792034043  0.3172732036003012  0.12375469987466663  1.0000
  H   H4        1.0  0.04344185672005811  0.1827267686654324  0.6237546998746668  1.0000
  H   H5        1.0  0.005871742338996533  0.903094821567457  0.8968054185221703  1.0000
  H   H6        1.0  0.9941267560357048  0.5969062318800624  0.39680408522439603  1.0000
  H   H7        1.0  0.9941282500157554  0.0969039863136913  0.1031952481267169  1.0000
  H   H8        1.0  0.005873959567644233  0.4030948493017235  0.6031959147756041  1.0000
  H   H9        1.0  0.4702270949311327  0.1931043860797885  0.7002246606757154  1.0000
  H   H10       1.0  0.5297726026166388  0.3068967228362638  0.2002246606757154  1.0000
  H   H11       1.0  0.5297721806198439  0.8068955584516715  0.2997753393242847  1.0000
  H   H12       1.0  0.47022667293433784  0.6931032216952033  0.7997753393242846  1.0000
  H   H13       1.0  0.6470816928691009  0.2033444688055255  0.693270846110771  1.0000
  H   H14       1.0  0.35291800467867074  0.2966566401105197  0.19327084611077086  1.0000
  H   H15       1.0  0.35291902273424824  0.7966566123762533  0.3067291538892292  1.0000
  H   H16       1.0  0.6470812708723059  0.7033433044209403  0.8067291538892294  1.0000
  H   H17       1.0  0.5753223408186231  0.9374955434782635  0.8134636409695732  1.0000
  H   H18       1.0  0.42467687435985374  0.5625043733189372  0.3134629743206859  1.0000
  H   H19       1.0  0.424678013160424  0.0625044010532037  0.1865370256793142  1.0000
  H   H20       1.0  0.5753234796191934  0.4374955712125299  0.6865370256793144  1.0000
  H   H21       1.0  0.5472336444370569  0.9179269715827871  0.9219300818644813  1.0000
  H   H22       1.0  0.4527655707414199  0.5820729452144064  0.42193008186448117  1.0000
  H   H23       1.0  0.45276563111391976  0.08207297294867288  0.07806991813551893  1.0000
  H   H24       1.0  0.5472340664338518  0.4179281359673794  0.5780699181355191  1.0000
  H   H25       1.0  0.787041711751364  0.8995689322772762  0.8908535772379411  1.0000
  H   H26       1.0  0.21295858185519737  0.6004309845199245  0.390853577237941  1.0000
  H   H27       1.0  0.21295720217531064  0.1004298756038722  0.1091464227620591  1.0000
  H   H28       1.0  0.7870414104995547  0.3995678233612239  0.6091457561131721  1.0000
  H   H29       1.0  0.38557972173897787  0.4034028815382271  0.84442081544492  1.0000
  H   H30       1.0  0.614421415861166  0.096599364028144  0.3444221487427016  1.0000
  H   H31       1.0  0.6144184753839143  0.5965970629932329  0.15557918455508  1.0000
  H   H32       1.0  0.3855792997421831  0.9034017171536419  0.6555785179061857  1.0000
  H   H33       1.0  0.11016904671229359  0.37967303282413667  0.8313518306178482  1.0000
  H   H34       1.0  0.8898295724073931  0.12032807609190849  0.331351830617848  1.0000
  H   H35       1.0  0.8898302288386761  0.6203269117073233  0.16864816938215202  1.0000
  H   H36       1.0  0.11017006476787834  0.8796730050898702  0.6686481693821522  1.0000
  H   H37       1.0  0.2837273071005981  0.9466546717504299  0.9053065251593326  1.0000
  H   H38       1.0  0.7162719080778785  0.5533452450467635  0.4053065251593324  1.0000
  H   H39       1.0  0.7162730468784559  0.05334527278103  0.0946941414895619  1.0000
  H   H40       1.0  0.283729885953548  0.4466558361350224  0.5946948081384493  1.0000
  C   C1        1.0  0.024221721695781222  0.6038102459189219  0.9320318124850007  1.0000
  C   C2        1.0  0.9757771318583935  0.896188534227953  0.4320318124850004  1.0000
  C   C3        1.0  0.9757761138028158  0.3961885619622193  0.0679681875149996  1.0000
  C   C4        1.0  0.024223222120653504  0.1038114103035142  0.5679681875149998  1.0000
  C   C5        1.0  0.0849054261625852  0.0165814548565919  0.8845384123090059  1.0000
  C   C6        1.0  0.915094633009481  0.48342079070977917  0.384536412362337  1.0000
  C   C7        1.0  0.9150949278164687  0.9834184896748681  0.11546158769099432  1.0000
  C   C8        1.0  0.08490752264624753  0.5165814271223255  0.6154622543398818  1.0000
  C   C9        1.0  0.034766282664620014  0.1401330712537785  0.8641322898056034  1.0000
  C   C10       1.0  0.9652323364550738  0.3598680376622738  0.3641302898589346  1.0000
  C   C11       1.0  0.9652337096901319  0.8598657366273699  0.1358677101943968  1.0000
  C   C12       1.0  0.03476837914827516  0.6401330435195121  0.635867710194397  1.0000
  C   C13       1.0  0.6988174650784701  0.3235406934604086  0.0628476573957997  1.0000
  C   C14       1.0  0.3011807924169219  0.1764592788053179  0.5628476573957997  1.0000
  C   C15       1.0  0.30118181047250664  0.6764592510710514  0.9371530092530876  1.0000
  C   C16       1.0  0.6988188447583498  0.8235418023764608  0.4371523426042003  1.0000
  C   C17       1.0  0.8745512773001209  0.5230603339418067  0.9552911922348741  1.0000
  C   C18       1.0  0.12544901630643332  0.9769395828553868  0.4552911922348742  1.0000
  C   C19       1.0  0.12544871505463115  0.4769384739393345  0.0447088077651259  1.0000
  C   C20       1.0  0.8745506208688383  0.023061498326391892  0.5447088077651259  1.0000
  C   C21       1.0  0.8711055469046798  0.1328823788675564  0.8609530412522306  1.0000
  C   C22       1.0  0.1288934273944875  0.3671164567478584  0.3609517079544561  1.0000
  C   C23       1.0  0.12889444545007225  0.867116429013592  0.1390476253966568  1.0000
  C   C24       1.0  0.8711072882088615  0.6328846244339275  0.639047625396657  1.0000
  C   C25       1.0  0.8501151515348867  0.4161560981197354  0.024714674275351508  1.0000
  C   C26       1.0  0.14988453956805609  0.08384160084536059  0.5247160075731332  1.0000
  C   C27       1.0  0.14988411757126133  0.5838404364607754  0.975283992426867  1.0000
  C   C28       1.0  0.8501143743586185  0.9161572070357877  0.4752846590757613  1.0000
  C   C29       1.0  0.7513140751184935  0.5577645414878418  0.9029865870243443  1.0000
  C   C30       1.0  0.24868765854044037  0.9422365119596775  0.4029865870243441  1.0000
  C   C31       1.0  0.24868627886055356  0.4422354030436253  0.0970134129756559  1.0000
  C   C32       1.0  0.7513130570629087  0.0577645692221083  0.5970134129756559  1.0000
  C   C33       1.0  0.2973949166418492  0.2946390857939321  0.8545692114876928  1.0000
  C   C34       1.0  0.7026054977096976  0.2053608864718015  0.3545705447854744  1.0000
  C   C35       1.0  0.7026039972848254  0.7053597220872163  0.14543078851230726  1.0000
  C   C36       1.0  0.29739557951795353  0.7946413313603031  0.6454287885656385  1.0000
  C   C37       1.0  0.14415167507947052  0.2809185797907787  0.8475920642116181  1.0000
  C   C38       1.0  0.8558491008963784  0.2190825291252736  0.3475907309138435  1.0000
  C   C39       1.0  0.8558483172752815  0.7190802280903625  0.1524072691394878  1.0000
  C   C40       1.0  0.14415053627889315  0.7809185520565123  0.6524079357883823  1.0000
  C   C41       1.0  0.240720372198254  0.04000895458577249  0.8892296205434536  1.0000
  C   C42       1.0  0.7592789637252082  0.45999101767996103  0.3892282872456719  1.0000
  C   C43       1.0  0.7592806985845755  0.9599898532953689  0.11077037945654673  1.0000
  C   C44       1.0  0.24071887177338167  0.5400077902011873  0.6107717127543284  1.0000
  N   N1        1.0  0.34587234359219815  0.17648769506330095  0.8755093197514727  1.0000
  N   N2        1.0  0.6541280707593486  0.3235122772024326  0.3755093197514725  1.0000
  N   N3        1.0  0.6541276487625538  0.8235111128178474  0.12449068024852752  1.0000
  N   N4        1.0  0.3458722832196984  0.6764876673290345  0.6244906802485275  1.0000
  N   N5        1.0  0.6105313288420788  0.9915694091139072  0.8735640382923151  1.0000
  N   N6        1.0  0.3894675247120958  0.5084293710329746  0.3735640382923152  1.0000
  N   N7        1.0  0.3894675850845957  0.008429398767241  0.12643662835657923  1.0000
  N   N8        1.0  0.6105328292669512  0.4915705734984925  0.6264359617076849  1.0000
  N   N9        1.0  0.7648150490976064  0.0007433693087648  0.8833037785659033  1.0000
  N   N10       1.0  0.23518464845015788  0.4992577396072874  0.383303778565903  1.0000
  N   N11       1.0  0.23518422645336312  0.9992565752227022  0.11669688808298423  1.0000
  N   N12       1.0  0.7648157055288892  0.5007422049241725  0.6166962214340972  1.0000
  O   O1        1.0  0.6029060050260426  0.2238655536684959  0.0143929495213442  1.0000
  O   O2        1.0  0.39709333089742677  0.2761344185972376  0.5143929495213442  1.0000
  O   O3        1.0  0.397092908900632  0.7761332542126524  0.9856077171275432  1.0000
  O   O4        1.0  0.6029052342945889  0.7238700725355044  0.48560705047865593  1.0000
  O   O5        1.0  0.6355868635432529  0.450484074410106  0.8768179515212895  1.0000
  O   O6        1.0  0.3644135508082869  0.0495158978556205  0.3768179515212893  1.0000
  O   O7        1.0  0.36441205038341457  0.5495147334710353  0.12318204847871073  1.0000
  O   O8        1.0  0.6355871647950623  0.9504851833261584  0.6231827151275979  1.0000
  O   O9        1.0  0.5691839256421076  0.2225379460956631  0.7341037572331433  1.0000
  O   O10       1.0  0.4308157719056638  0.2774631628203892  0.23410375723314306  1.0000
  O   O11       1.0  0.43081642833694644  0.777461998435804  0.2658969094157513  1.0000
  O   O12       1.0  0.5691835036453128  0.7225367817110707  0.76589557611797  1.0000
  O   O13       1.0  0.7723200136381577  0.6967768755268793  0.8840010933041782  1.0000
  O   O14       1.0  0.22768027996839635  0.8032230412703143  0.3840017599530655  1.0000
  O   O15       1.0  0.2276792619128116  0.3032230690045807  0.11599890669582183  1.0000
  O   O16       1.0  0.7723204356349526  0.1967780399114716  0.6159989066958218  1.0000
  O   O17       1.0  0.6827109578833019  0.34322406703812186  0.1450067998186739  1.0000
  O   O18       1.0  0.3172894564682451  0.1567759052276116  0.6450067998186739  1.0000
  O   O19       1.0  0.31728939609575246  0.6567758774933452  0.8549938668302204  1.0000
  O   O20       1.0  0.6827123375631814  0.8432251759541742  0.35499253353243904  1.0000
  O   O21       1.0  0.8364489992534773  0.24842629376592376  0.8405629183221777  1.0000
  O   O22       1.0  0.16355069829428712  0.2515748151501285  0.34056158502439626  1.0000
  O   O23       1.0  0.16355243315364734  0.7515736507655433  0.1594377483267095  1.0000
  O   O24       1.0  0.8364492940604649  0.7484239927310199  0.6594370816778223  1.0000
