data_image0
_chemical_formula_structural       Al4H12C29O22
_chemical_formula_sum              "Al4 H12 C29 O22"
_cell_length_a       6.69038669168757
_cell_length_b       16.795916146274696
_cell_length_c       18.673728303960633
_cell_angle_alpha    74.79444214853034
_cell_angle_beta     89.19887883058011
_cell_angle_gamma    90.0715694950424

_space_group_name_H-M_alt    "P 1"
_space_group_IT_number       1

loop_
  _space_group_symop_operation_xyz
  'x, y, z'

loop_
  _atom_site_type_symbol
  _atom_site_label
  _atom_site_symmetry_multiplicity
  _atom_site_fract_x
  _atom_site_fract_y
  _atom_site_fract_z
  _atom_site_occupancy
  Al  Al1       1.0  0.11094422058333459  0.4991157771608102  0.4981160715529001  1.0000
  Al  Al2       1.0  0.6115727971696572  0.5004654170986811  0.49727007649966737  1.0000
  Al  Al3       1.0  0.6254193329761506  0.9996604829113381  8.005835396573281e-05  1.0000
  Al  Al4       1.0  0.1255566556684187  0.00015362353687459936  0.9988110638349781  1.0000
  H   H1        1.0  0.5688795204093038  0.8058401641934267  0.1928556944405742  1.0000
  H   H2        1.0  0.5673961757776025  0.6935128142945146  0.3078001256144561  1.0000
  H   H3        1.0  0.07942723701668088  0.17983594655613896  0.8012897314484775  1.0000
  H   H4        1.0  0.5401642628373864  0.1918419632764383  0.791340675961159  1.0000
  H   H5        1.0  0.02883143541494349  0.8037053517558876  0.19976878006307422  1.0000
  H   H6        1.0  0.027465500424483494  0.6945261914716809  0.2960502310736786  1.0000
  H   H7        1.0  0.9477664794845635  0.23971588326958226  0.5739898589650495  1.0000
  H   H8        1.0  0.4970185551335005  0.3240315955289788  0.7159393443671149  1.0000
  H   H9        1.0  0.3597560686213724  0.5983832590633896  0.5104908566980696  1.0000
  H   H10       1.0  0.8535321371368878  0.4022504138988765  0.5539833774523117  1.0000
  H   H11       1.0  0.3749777210811159  0.8944187830711456  0.00218076260644999  1.0000
  H   H12       1.0  0.8757024067197674  0.10831464094035678  0.9728530939923559  1.0000
  C   C1        1.0  0.3634823254525442  0.4143930828130493  0.41246329809892757  1.0000
  C   C2        1.0  0.36035556508132055  0.38890097200684437  0.6117977621511201  1.0000
  C   C3        1.0  0.8591086164793535  0.5886036241423013  0.5828541324223907  1.0000
  C   C4        1.0  0.8654962013627949  0.60916948686814  0.3851623133372614  1.0000
  C   C5        1.0  0.7135476049288129  0.7834411013682469  0.2161400489252188  1.0000
  C   C6        1.0  0.878345950957353  0.8212681570996949  0.18022514644673043  1.0000
  C   C7        1.0  0.7126812359905228  0.7156765016442108  0.2829546235774174  1.0000
  C   C8        1.0  0.876259620550108  0.6771119901304062  0.3168407151606302  1.0000
  C   C9        1.0  0.876573907176329  0.8636953366790509  0.861005117979154  1.0000
  C   C10       1.0  0.8714332541986634  0.8200548633040866  0.8176971498474614  1.0000
  C   C11       1.0  0.8663092529259159  0.7722446951749261  0.7704419855067925  1.0000
  C   C12       1.0  0.8619326975426772  0.7281864916189775  0.7269862843268626  1.0000
  C   C13       1.0  0.859049037704423  0.6808040924469623  0.6793359845246627  1.0000
  C   C14       1.0  0.8577406554103886  0.6378397516951395  0.6354109544711903  1.0000
  C   C15       1.0  0.36505349592772507  0.36505681623722813  0.3599329914071916  1.0000
  C   C16       1.0  0.3642179618690306  0.32162997635659013  0.3163910793479303  1.0000
  C   C17       1.0  0.36404098334172363  0.27357734470317746  0.2692662775874197  1.0000
  C   C18       1.0  0.364564704801431  0.2287267991507846  0.22644943313008536  1.0000
  C   C19       1.0  0.36624481232738754  0.17998906767206793  0.1799207982382356  1.0000
  C   C20       1.0  0.36856336236703396  0.13550848291092882  0.13727876333416586  1.0000
  C   C21       1.0  0.22388595510737017  0.20424861823531873  0.7771469059170143  1.0000
  C   C22       1.0  0.3906313113064285  0.17343350931297866  0.8136924250568498  1.0000
  C   C23       1.0  0.21959325244513642  0.26664855338427174  0.7063055679174681  1.0000
  C   C24       1.0  0.3646286935508057  0.32398648549681036  0.6825156610777938  1.0000
  C   C25       1.0  0.3817073301840351  0.1106117194461831  0.8858598855337619  1.0000
  C   C26       1.0  0.371247642360963  0.08519817842525161  0.08552315774662839  1.0000
  C   C27       1.0  0.8712295230972698  0.8883146782822352  0.11120946488809827  1.0000
  C   C28       1.0  0.877923949493528  0.9134360400004697  0.9132369275171327  1.0000
  C   C29       1.0  0.03429977542666049  0.26436297058829433  0.6621950831363463  1.0000
  O   O1        1.0  0.5307602420641756  0.4164316232912101  0.5850119356395211  1.0000
  O   O2        1.0  0.19228739615662951  0.4338990835906387  0.43277932044166073  1.0000
  O   O3        1.0  0.03332029349222409  0.5825819833842729  0.4133003710604868  1.0000
  O   O4        1.0  0.19061516641340853  0.41253338059698297  0.5837300619334869  1.0000
  O   O5        1.0  0.03086968442892869  0.5680790146520421  0.5634461069228749  1.0000
  O   O6        1.0  0.5328074205724604  0.4328047792250871  0.433987561086255  1.0000
  O   O7        1.0  0.3609617924301033  0.5490833384546577  0.49266419115447485  1.0000
  O   O8        1.0  0.6890418109811947  0.5713080376029395  0.5608151055659789  1.0000
  O   O9        1.0  0.6943085307486708  0.5825456608592603  0.4117656052551268  1.0000
  O   O10       1.0  0.8601820706869386  0.44893322362241145  0.5102969588853695  1.0000
  O   O11       1.0  0.20189905213789663  0.06573465670579279  0.0648557277361519  1.0000
  O   O12       1.0  0.5504601883823739  0.0858977872327529  0.9144092721384779  1.0000
  O   O13       1.0  0.707058964784707  0.9317148770123468  0.9350926844060298  1.0000
  O   O14       1.0  0.5427708468425008  0.06614582038921667  0.0650200507831329  1.0000
  O   O15       1.0  0.701625169572587  0.9143633820988413  0.08476965049027282  1.0000
  O   O16       1.0  0.21028486375558228  0.086385584465198  0.9142946173432307  1.0000
  O   O17       1.0  0.37501825497673735  0.9510248910206585  0.005417380482725779  1.0000
  O   O18       1.0  0.0415119701969786  0.9142657060170336  0.08257116682998591  1.0000
  O   O19       1.0  0.04880810671879489  0.9330519631042475  0.9326801389268198  1.0000
  O   O20       1.0  0.8758440567850059  0.0488260638778897  0.9916566403597997  1.0000
  O   O21       1.0  0.8662618759419087  0.2775591267572537  0.6826622665884372  1.0000
  O   O22       1.0  0.07437711941400237  0.2402640554805231  0.599782031342322  1.0000
