data_image0
_chemical_formula_structural       Ca4P4H28C24O16
_chemical_formula_sum              "Ca4 P4 H28 C24 O16"
_cell_length_a       5.875195308420604
_cell_length_b       10.312153515597682
_cell_length_c       14.903708984041943
_cell_angle_alpha    89.99892446023503
_cell_angle_beta     95.8321628237278
_cell_angle_gamma    89.99949833877525

_space_group_name_H-M_alt    "P 1"
_space_group_IT_number       1

loop_
  _space_group_symop_operation_xyz
  'x, y, z'

loop_
  _atom_site_type_symbol
  _atom_site_label
  _atom_site_symmetry_multiplicity
  _atom_site_fract_x
  _atom_site_fract_y
  _atom_site_fract_z
  _atom_site_occupancy
  Ca  Ca1       1.0  0.1232953116437301  0.3543171070080006  0.46056847852021593  1.0000
  Ca  Ca2       1.0  0.3767358852752237  0.8543127964813731  0.5394356468580883  1.0000
  Ca  Ca3       1.0  0.8767356438277503  0.645677116015527  0.5394333330827267  1.0000
  Ca  Ca4       1.0  0.623298736074176  0.14567269891992393  0.46056962664970774  1.0000
  P   P1        1.0  0.5817298184219766  0.45767101595541965  0.36432987717604  1.0000
  P   P2        1.0  0.918299805779128  0.9576629153327259  0.6356829197953929  1.0000
  P   P3        1.0  0.41828814227994116  0.5423193280608202  0.6356809576340867  1.0000
  P   P4        1.0  0.0817448805939094  0.04232645899352858  0.3643199586132795  1.0000
  H   H1        1.0  0.3869465753499739  0.32577501061028596  0.19960750564740695  1.0000
  H   H2        1.0  0.1130351691892386  0.8257610957175741  0.8004136961483256  1.0000
  H   H3        1.0  0.613048121851449  0.6742289098791545  0.8003885627083636  1.0000
  H   H4        1.0  0.8869517692279346  0.17424476378995726  0.19961638245244026  1.0000
  H   H5        1.0  0.995534300478944  0.5445267545649982  0.28842005211467386  1.0000
  H   H6        1.0  0.5044765401130248  0.0445229303710306  0.7115634284470858  1.0000
  H   H7        1.0  0.004472319359500412  0.4554616502256152  0.7115756885294858  1.0000
  H   H8        1.0  0.4955617396243426  0.9554819598833787  0.2884218128123663  1.0000
  H   H9        1.0  0.5090375733459922  0.31741384517154353  0.0450658594074937  1.0000
  H   H10       1.0  0.9908730791220178  0.8173909035207463  0.9549433499576097  1.0000
  H   H11       1.0  0.4909349888856411  0.6826123791445441  0.9549309136951082  1.0000
  H   H12       1.0  0.0090324972809839  0.1826275628923639  0.045070959896257506  1.0000
  H   H13       1.0  0.12188289428273438  0.5298697061441401  0.1362524481080527  1.0000
  H   H14       1.0  0.37805453077914564  0.029865668805612693  0.8637217139650631  1.0000
  H   H15       1.0  0.8781029082576668  0.4701400328124592  0.8637386652449737  1.0000
  H   H16       1.0  0.6218958894423708  0.9701624953349041  0.136252270064432  1.0000
  H   H17       1.0  0.874176891923902  0.4193823567623056  0.012429834792229106  1.0000
  H   H18       1.0  0.6257185238944061  0.9193623352422904  0.9875587934524718  1.0000
  H   H19       1.0  0.1257847220048305  0.5806419282542449  0.9875572254526335  1.0000
  H   H20       1.0  0.37417722557017186  0.08065613143622838  0.012437780831582805  1.0000
  H   H21       1.0  0.9394294047526657  0.20794882510335097  0.6087329775314458  1.0000
  H   H22       1.0  0.5605952690768561  0.7079520836983165  0.3912688798328362  1.0000
  H   H23       1.0  0.060594856999799225  0.7920492768308021  0.39127065498098557  1.0000
  H   H24       1.0  0.4394253760386134  0.29203632098735  0.6087319635649069  1.0000
  H   H25       1.0  0.7735836517099912  0.337660404493178  0.5990547475437753  1.0000
  H   H26       1.0  0.7264369553321117  0.8376654630600912  0.4009459501709501  1.0000
  H   H27       1.0  0.22643557756661886  0.6623318790602892  0.4009500825448741  1.0000
  H   H28       1.0  0.273585252769479  0.16232585083691486  0.5990529244798213  1.0000
  C   C1        1.0  0.6806552793656165  0.43762600541137425  0.25426392452870067  1.0000
  C   C2        1.0  0.8193604949639166  0.937625124744727  0.7457413545274889  1.0000
  C   C3        1.0  0.3193309649582829  0.5623672480596936  0.7457332429093952  1.0000
  C   C4        1.0  0.180655313785131  0.06237588638477119  0.25426337697395246  1.0000
  C   C5        1.0  0.5457210708371462  0.3726214643233661  0.18527096868901796  1.0000
  C   C6        1.0  0.9542605342906257  0.8726044486786221  0.8147415688043795  1.0000
  C   C7        1.0  0.4542578417758847  0.627384395744407  0.8147192749726956  1.0000
  C   C8        1.0  0.04572576628756761  0.12739365311261253  0.18527976522382522  1.0000
  C   C9        1.0  0.8877343101076391  0.49446836850476933  0.23546142348382665  1.0000
  C   C10       1.0  0.6122771786377256  0.9944670664318379  0.7645221723776034  1.0000
  C   C11       1.0  0.1122601418063738  0.5055287639240119  0.7645312816009593  1.0000
  C   C12       1.0  0.38773911349294116  0.0055436422191306  0.23546579173257245  1.0000
  C   C13       1.0  0.6149653711161776  0.3675372015561393  0.09849211970134775  1.0000
  C   C14       1.0  0.8849902824569823  0.8675133394133641  0.9015143674658577  1.0000
  C   C15       1.0  0.38499507247691866  0.6324744768796434  0.901502290665377  1.0000
  C   C16       1.0  0.11499195972768209  0.13248864142626357  0.0984981233825906  1.0000
  C   C17       1.0  0.9581443368503672  0.48745142826329857  0.14894103520784094  1.0000
  C   C18       1.0  0.5418295099976262  0.9874403834496731  0.8510395553865779  1.0000
  C   C19       1.0  0.04183819251655761  0.5125515225687919  0.8510519976552118  1.0000
  C   C20       1.0  0.458157119477832  0.012572264856864  0.1489394992665467  1.0000
  C   C21       1.0  0.8204810660419993  0.4251621340599669  0.0801567448113829  1.0000
  C   C22       1.0  0.6794779134838579  0.9251339760996725  0.9198390081012636  1.0000
  C   C23       1.0  0.1794824054281676  0.5748505141692135  0.9198323827676591  1.0000
  C   C24       1.0  0.3205052047059311  0.0748709140806483  0.0801620967108079  1.0000
  O   O1        1.0  0.7981676065465919  0.48333830967204244  0.4303713142660044  1.0000
  O   O2        1.0  0.7018675974667588  0.9833234068947831  0.5696305643632372  1.0000
  O   O3        1.0  0.20184023279647081  0.516652034665043  0.5696177489931388  1.0000
  O   O4        1.0  0.2982002052235373  0.0166494817973373  0.4303850625292044  1.0000
  O   O5        1.0  0.45937424700710483  0.3317302697425148  0.38959814030137363  1.0000
  O   O6        1.0  0.04067315336833132  0.8317267219388353  0.6104121202348625  1.0000
  O   O7        1.0  0.5406806515548298  0.6682678321287341  0.6104043609654539  1.0000
  O   O8        1.0  0.959360640830198  0.16827913762175933  0.38960521181287794  1.0000
  O   O9        1.0  0.41567582630547406  0.5730625359084414  0.35935187746740394  1.0000
  O   O10       1.0  0.0843482716682757  0.07305925603958488  0.6406510605863005  1.0000
  O   O11       1.0  0.5843485829179754  0.42690744384100293  0.6406537732288983  1.0000
  O   O12       1.0  0.9156661215026887  0.9269175118007311  0.359357657799329  1.0000
  O   O13       1.0  0.8673376298990121  0.2755387641483082  0.5662983343930179  1.0000
  O   O14       1.0  0.6326892109201907  0.775535655989408  0.43370269243961  1.0000
  O   O15       1.0  0.13269181162944224  0.7244554588432948  0.43370611860043345  1.0000
  O   O16       1.0  0.36733309538448833  0.22444886978225748  0.5662975275848725  1.0000
