data_image0
_chemical_formula_structural       ZnSiH16C24N4O4F6
_chemical_formula_sum              "Zn1 Si1 H16 C24 N4 O4 F6"
_cell_length_a       7.653849715205395
_cell_length_b       14.009205169656026
_cell_length_c       14.009311492261013
_cell_angle_alpha    90.01662986288703
_cell_angle_beta     89.85661867408638
_cell_angle_gamma    89.85616159597448

_space_group_name_H-M_alt    "P 1"
_space_group_IT_number       1

loop_
  _space_group_symop_operation_xyz
  'x, y, z'

loop_
  _atom_site_type_symbol
  _atom_site_label
  _atom_site_symmetry_multiplicity
  _atom_site_fract_x
  _atom_site_fract_y
  _atom_site_fract_z
  _atom_site_occupancy
  Zn  Zn1       1.0  0.5000153084837962  0.4999965508796365  0.5000002707106219  1.0000
  Si  Si1       1.0  1.3842942330200015e-05  0.5000003549938158  0.5000029873168259  1.0000
  H   H1        1.0  0.22712231695787463  0.6598315965127026  0.4997560807051967  1.0000
  H   H2        1.0  0.20673687629024323  0.8362875063930274  0.499773577352684  1.0000
  H   H3        1.0  0.7725424109241599  0.6669842561851808  0.5001389304108201  1.0000
  H   H4        1.0  0.2274896373591346  0.3330131189578013  0.4998030781146383  1.0000
  H   H5        1.0  0.772909434156446  0.34015580570550696  0.5003251198147041  1.0000
  H   H6        1.0  0.793281750353479  0.16369562626150716  0.5003376115620313  1.0000
  H   H7        1.0  0.22712733146800448  0.4997843553147944  0.6598349377435042  1.0000
  H   H8        1.0  0.20673803567427027  0.499767633574443  0.8362887470132279  1.0000
  H   H9        1.0  0.7725448025772718  0.500190293344751  0.6669901623127501  1.0000
  H   H10       1.0  0.22747783679179878  0.49986063334935676  0.33301253441122475  1.0000
  H   H11       1.0  0.7728969175422404  0.5001387965231031  0.3401641701822058  1.0000
  H   H12       1.0  0.7932758170225183  0.5001341104384309  0.1637075096192717  1.0000
  H   H13       1.0  0.782208708576263  0.9210529319745362  0.5000473626399256  1.0000
  H   H14       1.0  0.21780495457612395  0.07894303423611149  0.4999367730746016  1.0000
  H   H15       1.0  0.7822000171354873  0.5000401760334016  0.9210619252960868  1.0000
  H   H16       1.0  0.21780311312766537  0.4999715041562212  0.0789414927923104  1.0000
  C   C1        1.0  0.344971327475946  0.7029570415544837  0.4998192060734894  1.0000
  C   C2        1.0  0.33437481902005567  0.8016851632312054  0.4998322597832114  1.0000
  C   C3        1.0  0.4888072116579209  0.8558933400138143  0.4999513332727687  1.0000
  C   C4        1.0  0.6500099004416169  0.8060159550993191  0.5000477547949842  1.0000
  C   C5        1.0  0.6493477781862607  0.706211239931683  0.5000771844557761  1.0000
  C   C6        1.0  0.4909382889247523  0.9565750582403894  0.49999955094088483  1.0000
  C   C7        1.0  0.509067329746905  0.043417357919459186  0.5000773852297442  1.0000
  C   C8        1.0  0.5112075889204063  0.14409764015803717  0.5001113202077292  1.0000
  C   C9        1.0  0.35000893138058586  0.1939807249393936  0.4999606470972751  1.0000
  C   C10       1.0  0.35068156179268317  0.2937832882506087  0.49990908181234056  1.0000
  C   C11       1.0  0.6550539204917244  0.29703250436890016  0.5002470091438553  1.0000
  C   C12       1.0  0.665639942186722  0.1983001097647303  0.5002532348601036  1.0000
  C   C13       1.0  0.34497926834538356  0.4998465087062343  0.702961737114329  1.0000
  C   C14       1.0  0.33438091815222026  0.499837457382533  0.8016897977942747  1.0000
  C   C15       1.0  0.4888150589541949  0.4999447717080797  0.8558893301845245  1.0000
  C   C16       1.0  0.6500042576301083  0.5000608408876063  0.8060183972637703  1.0000
  C   C17       1.0  0.649350483538832  0.5001145382452634  0.7062194331578554  1.0000
  C   C18       1.0  0.4909430661786159  0.499949442296355  0.9565645736676842  1.0000
  C   C19       1.0  0.5090746204762835  0.4999879901543948  0.0434331131857704  1.0000
  C   C20       1.0  0.5112025783088042  0.5000097930083953  0.14411264207165428  1.0000
  C   C21       1.0  0.35000936775640656  0.49993441403152866  0.1939828698492789  1.0000
  C   C22       1.0  0.350668320240345  0.49989927269061946  0.2937839745725697  1.0000
  C   C23       1.0  0.6550410116166245  0.500099487776886  0.2970359492235417  1.0000
  C   C24       1.0  0.6656315522449815  0.5000942683034069  0.1983093194001881  1.0000
  N   N1        1.0  0.4997436975813228  0.6562355568371954  0.4999654353230625  1.0000
  N   N2        1.0  0.5002895012761214  0.34375540399916815  0.5000508078818413  1.0000
  N   N3        1.0  0.4997421252374892  0.5000016893428025  0.6562423792993144  1.0000
  N   N4        1.0  0.5002702166749982  0.4999835730154557  0.3437588872292778  1.0000
  O   O1        1.0  0.8060625582295838  0.8522789490256172  0.5001145992056522  1.0000
  O   O2        1.0  0.19395503766471472  0.14771844109146307  0.4998623959244028  1.0000
  O   O3        1.0  0.8060585581890505  0.5001223488191114  0.8522870879004074  1.0000
  O   O4        1.0  0.19395108335879022  0.49989717911834214  0.1477177545239812  1.0000
  F   F1        1.0  0.2290597632280934  0.49829114337950386  0.4982914319963001  1.0000
  F   F2        1.0  0.770966912729065  0.5017083858406365  0.5017119682915663  1.0000
  F   F3        1.0  8.00768128780056e-06  0.5857608026741868  0.41423534688191666  1.0000
  F   F4        1.0  1.837495484120022e-05  0.414239194282416  0.5857699147232722  1.0000
  F   F5        1.0  0.002381924905215299  0.5857777864994914  0.5857740639372011  1.0000
  F   F6        1.0  0.9976434412345295  0.4142210301107168  0.4142314785728445  1.0000
