data_image0
_chemical_formula_structural       Ag2H6C10N4O8
_chemical_formula_sum              "Ag2 H6 C10 N4 O8"
_cell_length_a       6.100773964031812
_cell_length_b       4.920516994853256
_cell_length_c       12.252939102182301
_cell_angle_alpha    82.8695148097849
_cell_angle_beta     105.66507307221192
_cell_angle_gamma    106.7768911072636

_space_group_name_H-M_alt    "P 1"
_space_group_IT_number       1

loop_
  _space_group_symop_operation_xyz
  'x, y, z'

loop_
  _atom_site_type_symbol
  _atom_site_label
  _atom_site_symmetry_multiplicity
  _atom_site_fract_x
  _atom_site_fract_y
  _atom_site_fract_z
  _atom_site_occupancy
  Ag  Ag1       1.0  0.21354128905906583  0.9948844027541596  0.0779888407425915  1.0000
  Ag  Ag2       1.0  0.7864689629696572  0.005115752197241404  0.9220165017340918  1.0000
  H   H1        1.0  0.17598916585646407  0.5046692664600484  0.32366677719193854  1.0000
  H   H2        1.0  0.8240114903785881  0.49533669491878385  0.676332693854448  1.0000
  H   H3        1.0  0.808695335035246  0.9651217729999432  0.42539118333362325  1.0000
  H   H4        1.0  0.1912987346000179  0.034880740253271404  0.5746053131362174  1.0000
  H   H5        1.0  0.52822646316735  0.5654709814437593  0.1101196339354829  1.0000
  H   H6        1.0  0.4717766281431183  0.4345327990740488  0.8898784470470176  1.0000
  C   C1        1.0  0.01807221958955543  0.7360056151139245  0.3928478004750318  1.0000
  C   C2        1.0  0.9819326289672576  0.2640019393109441  0.6071536493044506  1.0000
  C   C3        1.0  0.63714094193665  0.7815844740164406  0.2694180585386832  1.0000
  C   C4        1.0  0.36285853117052375  0.21841063976329167  0.7305823306283655  1.0000
  C   C5        1.0  0.6624135471997548  0.6089392994811006  0.18929167189966017  1.0000
  C   C6        1.0  0.3375877868643756  0.39106070712963253  0.8107030402858656  1.0000
  C   C7        1.0  0.856253097133525  0.5071913474052607  0.21411028587964148  1.0000
  C   C8        1.0  0.1437453060179124  0.4928126438142114  0.7858890250456412  1.0000
  C   C9        1.0  0.9015745952551485  0.3261687444805474  0.1362879871098173  1.0000
  C   C10       1.0  0.09842635270951657  0.6738303733658383  0.8637140994095062  1.0000
  N   N1        1.0  0.02517979124047538  0.5654462512180913  0.313675566806765  1.0000
  N   N2        1.0  0.9748200867684603  0.43456174406802006  0.6863254414707995  1.0000
  N   N3        1.0  0.8184760978679153  0.8317682590361102  0.36749086585947316  1.0000
  N   N4        1.0  0.18152456770789632  0.16823108896985417  0.6325095492151647  1.0000
  O   O1        1.0  0.09449971854721886  0.2566375613717397  0.17165642799299258  1.0000
  O   O2        1.0  0.9055076969386776  0.743374310485187  0.8283435234166986  1.0000
  O   O3        1.0  0.7428861858204883  0.2615289507994162  0.04520245993332141  1.0000
  O   O4        1.0  0.25711041585289257  0.7384528849026992  0.9548020301226643  1.0000
  O   O5        1.0  0.180162726749657  0.7963301913353003  0.4798178699600654  1.0000
  O   O6        1.0  0.8198377789502088  0.2036824984961924  0.5201798213357236  1.0000
  O   O7        1.0  0.46900016409570355  0.8896972984569727  0.2566537790523782  1.0000
  O   O8        1.0  0.5309928414902388  0.11028506131221859  0.7433487452243028  1.0000
