data_image0
_chemical_formula_structural       Zn4H48C72S4N8O28
_chemical_formula_sum              "Zn4 H48 C72 S4 N8 O28"
_cell_length_a       9.722703395667743
_cell_length_b       16.305830957079003
_cell_length_c       19.85228108534315
_cell_angle_alpha    89.99969260265733
_cell_angle_beta     91.7219742332559
_cell_angle_gamma    89.99982578049725

_space_group_name_H-M_alt    "P 1"
_space_group_IT_number       1

loop_
  _space_group_symop_operation_xyz
  'x, y, z'

loop_
  _atom_site_type_symbol
  _atom_site_label
  _atom_site_symmetry_multiplicity
  _atom_site_fract_x
  _atom_site_fract_y
  _atom_site_fract_z
  _atom_site_occupancy
  Zn  Zn1       1.0  0.41945149461631115  0.07947896935957742  0.06032903616926428  1.0000
  Zn  Zn2       1.0  0.5805511435416264  0.5794766254726084  0.4396701934297837  1.0000
  Zn  Zn3       1.0  0.5805590076124717  0.9205198472471849  0.9396720234424972  1.0000
  Zn  Zn4       1.0  0.4194428870852037  0.4205203513184941  0.5603301857952799  1.0000
  H   H1        1.0  0.029861600433029902  0.11308276594635198  0.7645855579450681  1.0000
  H   H2        1.0  0.970142945293219  0.6130822982952965  0.7354150060751861  1.0000
  H   H3        1.0  0.9701468103293609  0.8869160506689937  0.2354134642874682  1.0000
  H   H4        1.0  0.029843765181233595  0.38692203785640805  0.2645782423062356  1.0000
  H   H5        1.0  0.2908140820324903  0.9099831505141439  0.2666304008345505  1.0000
  H   H6        1.0  0.7091847170969031  0.40998260862708247  0.2333683450916267  1.0000
  H   H7        1.0  0.7091830522178386  0.09001811921357471  0.7333710191410316  1.0000
  H   H8        1.0  0.2908092967427153  0.5900162079999944  0.766631026474961  1.0000
  H   H9        1.0  0.1594906414886168  0.1678012426943809  0.9111290605570299  1.0000
  H   H10       1.0  0.8405084282662899  0.6677970669249403  0.5888691897361651  1.0000
  H   H11       1.0  0.8405167151394795  0.8322012535922028  0.08886843915051658  1.0000
  H   H12       1.0  0.15948555199724987  0.33220604265162734  0.41112816651209977  1.0000
  H   H13       1.0  0.6357333207458993  0.9579110492327063  0.09462844527245547  1.0000
  H   H14       1.0  0.3642672755580777  0.457912443507368  0.4053701096568999  1.0000
  H   H15       1.0  0.36426899183712896  0.04208531426318272  0.90537504519893  1.0000
  H   H16       1.0  0.6357236262536006  0.542086986405124  0.5946277173210675  1.0000
  H   H17       1.0  0.2568618752310812  0.013008041277323898  0.17359520338795414  1.0000
  H   H18       1.0  0.7431390414443656  0.5130061532898369  0.32640278815384954  1.0000
  H   H19       1.0  0.7431393496532409  0.9869920018964751  0.8264047492496684  1.0000
  H   H20       1.0  0.25685084819685494  0.4869938898978249  0.6735960354419175  1.0000
  H   H21       1.0  0.6827002306248248  0.8499714189824418  0.18168149313175513  1.0000
  H   H22       1.0  0.31729787439271456  0.34997408450964684  0.3183180123607697  1.0000
  H   H23       1.0  0.31729798293310546  0.15002617106902963  0.8183229608503949  1.0000
  H   H24       1.0  0.6826971600117987  0.6500228922854988  0.6816808664179347  1.0000
  H   H25       1.0  0.7248157839387873  0.2133005398856938  0.8721638609836898  1.0000
  H   H26       1.0  0.27518405046201627  0.7133007982800665  0.6278331904138524  1.0000
  H   H27       1.0  0.27519056052551605  0.786700116565875  0.12783463534711356  1.0000
  H   H28       1.0  0.7248089344065962  0.2867053776785156  0.3721661701011526  1.0000
  H   H29       1.0  0.8616427260137698  0.08218193476201212  0.050157769531381284  1.0000
  H   H30       1.0  0.13835471911568223  0.5821815414851202  0.4498393775624263  1.0000
  H   H31       1.0  0.13836563440535343  0.917815655308246  0.9498382297407132  1.0000
  H   H32       1.0  0.8616423899563304  0.41782156808024246  0.5501605309274848  1.0000
  H   H33       1.0  0.29969855434632825  0.7698920855302802  0.2869943617627725  1.0000
  H   H34       1.0  0.7003010739903746  0.26989169378359895  0.2130090375539452  1.0000
  H   H35       1.0  0.7003006881559204  0.2301079576304161  0.7130101032491465  1.0000
  H   H36       1.0  0.29969819368685086  0.7301077360945527  0.7869969389409162  1.0000
  H   H37       1.0  0.7363817932804155  0.8235037824305067  0.2937579899304906  1.0000
  H   H38       1.0  0.2636205631385523  0.3235036032606544  0.20624117354365978  1.0000
  H   H39       1.0  0.2636173988818982  0.1764938076300169  0.7062434521237151  1.0000
  H   H40       1.0  0.7363795992420565  0.6764921469779495  0.7937567527595133  1.0000
  H   H41       1.0  0.3482669953772658  0.6591228037229014  0.3702633909013925  1.0000
  H   H42       1.0  0.6517404298004125  0.15912120802908453  0.1297400742610435  1.0000
  H   H43       1.0  0.6517342798536634  0.3408772394408858  0.6297395846993935  1.0000
  H   H44       1.0  0.3482711517276301  0.8408769952891646  0.8702640193504646  1.0000
  H   H45       1.0  0.7670516638338543  0.7069967023142142  0.3738710845736292  1.0000
  H   H46       1.0  0.23295134315721108  0.206994653092373  0.1261296044900391  1.0000
  H   H47       1.0  0.232948557277787  0.29300150102289996  0.6261303685144382  1.0000
  H   H48       1.0  0.7670550013271156  0.7929986440286357  0.873868891857121  1.0000
  C   C1        1.0  0.9449517760762876  0.19107819252682393  0.8838580523286907  1.0000
  C   C2        1.0  0.05504921656562801  0.6910740156337739  0.6161396127303361  1.0000
  C   C3        1.0  0.05505972153407161  0.8089224639182931  0.11614100300543126  1.0000
  C   C4        1.0  0.9449468215932203  0.30893154705106696  0.3838577655829311  1.0000
  C   C5        1.0  0.13808309107025  0.0941955224203568  0.032006164583322096  1.0000
  C   C6        1.0  0.8619163717925105  0.5941912618644948  0.46799246266483846  1.0000
  C   C7        1.0  0.8619263402453616  0.9058057473058839  0.9679923648517953  1.0000
  C   C8        1.0  0.13807866260700052  0.40580755476329244  0.5320064161097804  1.0000
  C   C9        1.0  0.022122933426480498  0.12254982289124429  0.985646195873471  1.0000
  C   C10       1.0  0.9778774198289145  0.622547119214289  0.5143527704435797  1.0000
  C   C11       1.0  0.9778885474000136  0.877451446834755  0.014351851804903495  1.0000
  C   C12       1.0  0.022116585612934607  0.3774541505246418  0.4856460972903632  1.0000
  C   C13       1.0  0.4919718054468803  0.8724774808051025  0.23269960912859483  1.0000
  C   C14       1.0  0.5080303265153817  0.372477688356362  0.26730185576861487  1.0000
  C   C15       1.0  0.5080284743974632  0.12752256235297207  0.7673053707457455  1.0000
  C   C16       1.0  0.49196474983963173  0.6275211282630765  0.7326995421419722  1.0000
  C   C17       1.0  0.37047354842513164  0.9190075793085699  0.22993815150127256  1.0000
  C   C18       1.0  0.6295252016076988  0.4190087778536267  0.2700605543030292  1.0000
  C   C19       1.0  0.6295256437321797  0.08099185058458862  0.7700632905488474  1.0000
  C   C20       1.0  0.37046675432659987  0.5809912653304539  0.729938795190378  1.0000
  C   C21       1.0  0.052590248563305415  0.16069892608997094  0.9247692997781909  1.0000
  C   C22       1.0  0.9474067851351153  0.6606977153943562  0.5752279523568544  1.0000
  C   C23       1.0  0.9474181370324575  0.8392974374201998  0.07522821097821719  1.0000
  C   C24       1.0  0.052587220303394105  0.33930478089965993  0.42477091537435985  1.0000
  C   C25       1.0  0.5635142466387892  0.9461581315265873  0.13449142827899857  1.0000
  C   C26       1.0  0.43648540143553305  0.44615781958292905  0.3655081755207873  1.0000
  C   C27       1.0  0.43648805754813247  0.0538400718036058  0.8655115583611062  1.0000
  C   C28       1.0  0.5635106703094054  0.5538397704871374  0.6344912181189739  1.0000
  C   C29       1.0  0.35091171993288134  0.9766840644486618  0.17912127913380252  1.0000
  C   C30       1.0  0.6490898199895058  0.4766824398404951  0.3208782110366356  1.0000
  C   C31       1.0  0.6490905422918659  0.0233165920000644  0.820879188364877  1.0000
  C   C32       1.0  0.35090416868014523  0.523315150236492  0.6791196490510882  1.0000
  C   C33       1.0  0.5897538822915253  0.8871759779998954  0.18364505028754505  1.0000
  C   C34       1.0  0.41024298299758044  0.38717787691286526  0.31635377495179273  1.0000
  C   C35       1.0  0.4102443228736379  0.1128222253307882  0.8163588998660455  1.0000
  C   C36       1.0  0.589747969157365  0.6128227795447075  0.6836470749866093  1.0000
  C   C37       1.0  0.8080226206562316  0.1863314845448016  0.9027445469478008  1.0000
  C   C38       1.0  0.19197321108540424  0.6863314801546352  0.5972505648912971  1.0000
  C   C39       1.0  0.1919837154236461  0.8136667187982454  0.09725344556125748  1.0000
  C   C40       1.0  0.8080218065168908  0.313672855974403  0.4027473062166677  1.0000
  C   C41       1.0  0.884948209443458  0.113781193253125  0.003513741750893496  1.0000
  C   C42       1.0  0.11504904700660035  0.6137811474236657  0.49648225721358585  1.0000
  C   C43       1.0  0.11506016775953751  0.8862157835362507  0.9964832651769553  1.0000
  C   C44       1.0  0.8849429005249193  0.38622318870490346  0.5035165884430837  1.0000
  C   C45       1.0  0.7780771635317978  0.1460303927671376  0.9627727062579008  1.0000
  C   C46       1.0  0.22192203303112734  0.6460313438369168  0.5372261446331733  1.0000
  C   C47       1.0  0.22193123883949545  0.853968423849878  0.037225812147440286  1.0000
  C   C48       1.0  0.7780730181389119  0.35397176573035694  0.462773741786286  1.0000
  C   C49       1.0  0.6301242137673955  0.1395830722518099  0.9827993128859089  1.0000
  C   C50       1.0  0.36986986473583283  0.6395789844492938  0.5171990076745414  1.0000
  C   C51       1.0  0.36987907740000037  0.8604206505836843  0.017201165641175492  1.0000
  C   C52       1.0  0.630124165879309  0.3604222852846278  0.48280137154097946  1.0000
  C   C53       1.0  0.4045090004809069  0.7605762419819727  0.306367333839006  1.0000
  C   C54       1.0  0.5954927280479155  0.2605743256416702  0.19363562513784413  1.0000
  C   C55       1.0  0.5954892214564469  0.23942564101064792  0.6936376239607964  1.0000
  C   C56       1.0  0.40450856397522733  0.7394220378535084  0.8063683581255103  1.0000
  C   C57       1.0  0.5146506877375998  0.807707824190814  0.2836939954646737  1.0000
  C   C58       1.0  0.4853507508280901  0.3077090218075541  0.21630673867353065  1.0000
  C   C59       1.0  0.485347492255926  0.19228976586732935  0.7163084432086959  1.0000
  C   C60       1.0  0.5146494702818815  0.6922897948071025  0.7836947144131725  1.0000
  C   C61       1.0  0.6469791820168356  0.7890425193599244  0.3092774977235634  1.0000
  C   C62       1.0  0.35302441599347395  0.2890416692815521  0.19072334146606099  1.0000
  C   C63       1.0  0.3530210726558779  0.2109569105256099  0.6907259706705559  1.0000
  C   C64       1.0  0.6469778210663152  0.7109559207844428  0.8092756145578545  1.0000
  C   C65       1.0  0.4309553921607118  0.6976415263020784  0.3519360693098931  1.0000
  C   C66       1.0  0.5690476824989686  0.1976411842729888  0.14806566899270723  1.0000
  C   C67       1.0  0.5690407215347265  0.302357903592288  0.6480658434617508  1.0000
  C   C68       1.0  0.4309577085426001  0.8023564057767913  0.8519373507544256  1.0000
  C   C69       1.0  0.6651570152943763  0.7247518555109667  0.3545157642312943  1.0000
  C   C70       1.0  0.334845886713815  0.22475194949478092  0.14548434207007688  1.0000
  C   C71       1.0  0.3348401021837546  0.2752457345548082  0.6454846480980763  1.0000
  C   C72       1.0  0.6651584502101288  0.7752431874507765  0.8545171551657088  1.0000
  S   S1        1.0  0.9849126433813641  0.2332602606324343  0.8047031039316648  1.0000
  S   S2        1.0  0.015099438252185796  0.7332574731778294  0.6952944949918061  1.0000
  S   S3        1.0  0.015100895350450103  0.7667397825365541  0.19529496581987615  1.0000
  S   S4        1.0  0.9848966418671738  0.2667462496660349  0.30470540246151495  1.0000
  N   N1        1.0  0.4459414333781525  0.9900364128464288  0.13220377858632296  1.0000
  N   N2        1.0  0.5540579592235562  0.4900352622026887  0.36779462250050426  1.0000
  N   N3        1.0  0.5540618578009245  0.009963017046239002  0.8677966999503112  1.0000
  N   N4        1.0  0.44593500887786774  0.5099653942613146  0.6322037303723745  1.0000
  N   N5        1.0  0.5587635935857166  0.6796440914602259  0.375487877808112  1.0000
  N   N6        1.0  0.44124163688550766  0.1796416802538303  0.12451396257694107  1.0000
  N   N7        1.0  0.44123560695936  0.32035656498635484  0.6245140680664745  1.0000
  N   N8        1.0  0.558765770105879  0.8203546832472811  0.8754865601074041  1.0000
  O   O1        1.0  0.256787162216277  0.09316029765774662  0.0035159237749197996  1.0000
  O   O2        1.0  0.7432113276685258  0.5931579014542978  0.49648571999911423  1.0000
  O   O3        1.0  0.7432233316130594  0.9068415853384124  0.9964846320028327  1.0000
  O   O4        1.0  0.25678478602858235  0.40684091516251913  0.5035161927738867  1.0000
  O   O5        1.0  0.12909665337474513  0.2538548861742314  0.8047072862411893  1.0000
  O   O6        1.0  0.8709081890835932  0.753854247304176  0.6952946783224903  1.0000
  O   O7        1.0  0.8709097162611956  0.7461463835498776  0.19529272156982805  1.0000
  O   O8        1.0  0.12908374165404982  0.24615438177055893  0.30470315967025385  1.0000
  O   O9        1.0  0.8810791464535869  0.2904007235623285  0.7821029854746369  1.0000
  O   O10       1.0  0.1189243507850506  0.7903957615236623  0.7178917520185804  1.0000
  O   O11       1.0  0.11892614388308692  0.7096011594502941  0.21789398833663404  1.0000
  O   O12       1.0  0.8810645266857124  0.2096048949391687  0.2821080681949795  1.0000
  O   O13       1.0  0.604604001195881  0.07748884330519701  0.022347738430077896  1.0000
  O   O14       1.0  0.39539655630314746  0.5774933263129327  0.4776494626216559  1.0000
  O   O15       1.0  0.39540650103290187  0.9225099733015584  0.9776533211816838  1.0000
  O   O16       1.0  0.6045974743019898  0.42251162308627255  0.5223509165856794  1.0000
  O   O17       1.0  0.9606261910717323  0.15509516038765275  0.7538328367907708  1.0000
  O   O18       1.0  0.03938114583854001  0.6550938339313533  0.7461635429538729  1.0000
  O   O19       1.0  0.039385264584794306  0.8449048827882565  0.24616369940874688  1.0000
  O   O20       1.0  0.9606045944276363  0.3449086623769945  0.2538332211867668  1.0000
  O   O21       1.0  0.1171266266067619  0.0769438457610363  0.09207728173537787  1.0000
  O   O22       1.0  0.8828708721884555  0.5769442367123147  0.4079214001241381  1.0000
  O   O23       1.0  0.8828786721243563  0.9230568106948241  0.9079201959058164  1.0000
  O   O24       1.0  0.11712725745346121  0.42305519318847473  0.5920780155819754  1.0000
  O   O25       1.0  0.5441029129764986  0.19049200058149302  0.961873241466165  1.0000
  O   O26       1.0  0.45589915374293355  0.6904943669542475  0.5381269563554197  1.0000
  O   O27       1.0  0.455910684486348  0.8095104956860057  0.038128355070284684  1.0000
  O   O28       1.0  0.5441000467938011  0.30950935588007406  0.4618749895123527  1.0000
