data_image0
_chemical_formula_structural       Al2H16C30N2O18
_chemical_formula_sum              "Al2 H16 C30 N2 O18"
_cell_length_a       6.593365504925668
_cell_length_b       10.971878221434448
_cell_length_c       16.989389537093892
_cell_angle_alpha    84.9216379564089
_cell_angle_beta     81.18459340772597
_cell_angle_gamma    74.23068664633537

_space_group_name_H-M_alt    "P 1"
_space_group_IT_number       1

loop_
  _space_group_symop_operation_xyz
  'x, y, z'

loop_
  _atom_site_type_symbol
  _atom_site_label
  _atom_site_symmetry_multiplicity
  _atom_site_fract_x
  _atom_site_fract_y
  _atom_site_fract_z
  _atom_site_occupancy
  Al  Al1       1.0  0.49221268494956405  0.49370623413906856  0.5016679970798492  1.0000
  Al  Al2       1.0  0.9981602358788496  0.4907421645807802  0.5001742793767792  1.0000
  H   H1        1.0  0.19353841643892628  0.6427171718734357  0.4482269498267825  1.0000
  H   H2        1.0  0.8113513731335118  0.3344117417516443  0.5072081203052791  1.0000
  H   H3        1.0  0.8100806752034942  0.5484213006693252  0.7401373835616953  1.0000
  H   H4        1.0  0.7528303460088138  0.5470098217531286  0.8897697067992851  1.0000
  H   H5        1.0  0.42548488938445667  0.39111366882898574  0.892569448886036  1.0000
  H   H6        1.0  0.48475541008534145  0.39957390119010944  0.7428474031345972  1.0000
  H   H7        1.0  0.5433467830390342  0.5860154656704494  0.11270812518142043  1.0000
  H   H8        1.0  0.21137596368027553  0.40858259936916835  0.11030253745428104  1.0000
  H   H9        1.0  0.16576445475677565  0.4117776705932953  0.2599118039744894  1.0000
  H   H10       1.0  0.49648090103607967  0.5859994559587632  0.2630284617846926  1.0000
  H   H11       1.0  0.8784461934266405  0.7697217720208587  0.6077180076594078  1.0000
  H   H12       1.0  0.5860741368567304  0.23781014513551213  0.601438938775452  1.0000
  H   H13       1.0  0.4493586522643155  0.18556773827498318  0.3396364446698571  1.0000
  H   H14       1.0  0.5658379298659996  0.8490250520922016  0.33038517925150057  1.0000
  H   H15       1.0  0.8984490340321687  0.8046392110944675  0.7666244453910809  1.0000
  H   H16       1.0  0.8172374805803668  0.31319485546197967  0.6334067551652397  1.0000
  C   C1        1.0  0.63044212623754  0.715573498537708  0.5152755412017954  1.0000
  C   C2        1.0  0.8045324665819252  0.5009773154809664  0.357886111472304  1.0000
  C   C3        1.0  0.3671897935346777  0.26559558990513915  0.48927523868164274  1.0000
  C   C4        1.0  0.18207368906906413  0.478203907494631  0.6445512415379542  1.0000
  C   C5        1.0  0.15069981082475434  0.4755406529917323  0.7328684967064449  1.0000
  C   C6        1.0  0.9437357230104338  0.516239353245588  0.7742322424698501  1.0000
  C   C7        1.0  0.9113457012772344  0.5147124423200039  0.8567050058493282  1.0000
  C   C8        1.0  0.087130007224502  0.4694012728039495  0.8991131091990924  1.0000
  C   C9        1.0  0.29317655408139137  0.42700342527565727  0.8580233611771108  1.0000
  C   C10       1.0  0.3252716901773027  0.4313033357667775  0.7751384979645837  1.0000
  C   C11       1.0  0.677295786475007  0.5477018971470284  0.1461720440164811  1.0000
  C   C12       1.0  0.8794622181293122  0.4982953957776246  0.10358798842045763  1.0000
  C   C13       1.0  0.05689648484727177  0.44809144060524614  0.14449179290402012  1.0000
  C   C14       1.0  0.03144396021553328  0.45002395885124696  0.22683748734232992  1.0000
  C   C15       1.0  0.8291973850713462  0.4997622305950457  0.2696274995791087  1.0000
  C   C16       1.0  0.6517354847058173  0.5476989299624079  0.2289741695174001  1.0000
  C   C17       1.0  0.5657069493665363  0.8578440340616281  0.5108327851644745  1.0000
  C   C18       1.0  0.6576015014095661  0.9290329958166335  0.5550272005513861  1.0000
  C   C19       1.0  0.4169390045566034  0.9190876446478597  0.4605869516089244  1.0000
  C   C20       1.0  0.8151925648314557  0.872344207676392  0.6053534107134979  1.0000
  C   C21       1.0  0.8953061458027562  0.9452172975912488  0.6485739904714978  1.0000
  C   C22       1.0  0.4377199800561371  0.12409657035801294  0.4962242811066845  1.0000
  C   C23       1.0  0.3582813154623707  0.05331301627206388  0.45089282177782763  1.0000
  C   C24       1.0  0.584220084359508  0.06431950544008909  0.5500438813794944  1.0000
  C   C25       1.0  0.658185342725986  0.1361920151221128  0.5993776643992562  1.0000
  C   C26       1.0  0.8127992139782094  0.07988725729109086  0.6468447680020619  1.0000
  C   C27       1.0  0.21522074742365052  0.11839393636770973  0.3900791133104776  1.0000
  C   C28       1.0  0.3246188113445713  0.8465878259813805  0.4103377336190946  1.0000
  C   C29       1.0  0.08282689789255225  0.8818056029664374  0.6917519444879832  1.0000
  C   C30       1.0  0.8767415863823516  0.15512629839440706  0.7037196992404378  1.0000
  N   N1        1.0  0.07433884774793134  0.46300589046455803  0.9829243707374931  1.0000
  N   N2        1.0  0.8886050427584422  0.5038928305892796  0.019697787680627226  1.0000
  O   O1        1.0  0.48348668376333853  0.6590954416004491  0.5309970630928832  1.0000
  O   O2        1.0  0.973389964374988  0.4755896147190553  0.39110859310366664  1.0000
  O   O3        1.0  0.16860021317108928  0.31607043278242486  0.5023447675659156  1.0000
  O   O4        1.0  0.37302966282028643  0.4538475413063806  0.6081761696540016  1.0000
  O   O5        1.0  0.5113476682716538  0.3239376069096096  0.47224478213395576  1.0000
  O   O6        1.0  0.01583354617001483  0.5028902460774985  0.609810288117508  1.0000
  O   O7        1.0  0.8270598421642961  0.6618478883118539  0.49995579190109407  1.0000
  O   O8        1.0  0.6156935142834923  0.5286097107890838  0.3952952670694785  1.0000
  O   O9        1.0  0.22978461203817344  0.5540935658676885  0.46847471578261235  1.0000
  O   O10       1.0  0.7670234040381915  0.4158904449697828  0.5323972254528755  1.0000
  O   O11       1.0  0.3034837414084848  0.18973450544493883  0.33186445023120836  1.0000
  O   O12       1.0  0.03625615773968602  0.10868994432450305  0.38963993384609114  1.0000
  O   O13       1.0  0.4347140370251666  0.8216271568815326  0.3365272029231719  1.0000
  O   O14       1.0  0.16152685293550917  0.8139275678999738  0.4304895853951082  1.0000
  O   O15       1.0  0.05022818518378373  0.7991458952506674  0.7535061353439902  1.0000
  O   O16       1.0  0.259619916766624  0.8959796432170608  0.6692867395448874  1.0000
  O   O17       1.0  0.8555064239836343  0.28036932058605396  0.6868906379654122  1.0000
  O   O18       1.0  0.9397222609623694  0.10582949889169407  0.7658923010821683  1.0000
