data_image0
_chemical_formula_structural       Sm4H22C22N2O32
_chemical_formula_sum              "Sm4 H22 C22 N2 O32"
_cell_length_a       9.72529364447052
_cell_length_b       9.837921749194482
_cell_length_c       12.181853718078054
_cell_angle_alpha    70.78466758149379
_cell_angle_beta     82.89540738841534
_cell_angle_gamma    63.56971774239668

_space_group_name_H-M_alt    "P 1"
_space_group_IT_number       1

loop_
  _space_group_symop_operation_xyz
  'x, y, z'

loop_
  _atom_site_type_symbol
  _atom_site_label
  _atom_site_symmetry_multiplicity
  _atom_site_fract_x
  _atom_site_fract_y
  _atom_site_fract_z
  _atom_site_occupancy
  Sm  Sm1       1.0  0.2699499029033135  0.7188244585274148  0.24261472998281156  1.0000
  Sm  Sm2       1.0  0.7300593627600023  0.2811722928895506  0.757382033770284  1.0000
  Sm  Sm3       1.0  0.7356946239386771  0.7849053857034107  0.26374423880199765  1.0000
  Sm  Sm4       1.0  0.2643033084940498  0.2150941139604114  0.7362579712028675  1.0000
  H   H1        1.0  0.7787299592033678  0.8299094359297996  0.4840837732770495  1.0000
  H   H2        1.0  0.22127521699446362  0.1700897627795825  0.5159127585434362  1.0000
  H   H3        1.0  0.9419199045381746  0.7840459428596843  0.42523752885189475  1.0000
  H   H4        1.0  0.058076939044553896  0.21595347257526498  0.5747615461363225  1.0000
  H   H5        1.0  0.48295343166679316  0.1287257529421737  0.2064863830942016  1.0000
  H   H6        1.0  0.5170505464892371  0.8712687884504432  0.7935132705426965  1.0000
  H   H7        1.0  0.4135393691142825  0.015299958849347206  0.191155279869875  1.0000
  H   H8        1.0  0.5864617954796644  0.9847018705023199  0.8088467071681791  1.0000
  H   H9        1.0  0.24457197552740004  0.8083068396128821  0.4524350775114314  1.0000
  H   H10       1.0  0.7554271438240364  0.1916972911748616  0.5475631982269888  1.0000
  H   H11       1.0  0.4075727235196283  0.8047372277203451  0.41478747138418726  1.0000
  H   H12       1.0  0.592427886035992  0.19526345553417457  0.5852157310288462  1.0000
  H   H13       1.0  0.9393277428341522  0.0016965963868785052  0.20626015746788798  1.0000
  H   H14       1.0  0.06067796717535862  0.9983015404542214  0.7937407247442182  1.0000
  H   H15       1.0  0.0539397059990776  0.0521832888679157  0.24920155981452294  1.0000
  H   H16       1.0  0.9460623492683881  0.94781384208202  0.7508033194730217  1.0000
  H   H17       1.0  0.7365623938497736  0.35181157143327374  0.06760428767126572  1.0000
  H   H18       1.0  0.26344004154523054  0.6481798197891349  0.9324079490408577  1.0000
  H   H19       1.0  0.018889819450045326  0.2122437276263796  0.04684425860575199  1.0000
  H   H20       1.0  0.9811082029868885  0.7877538260004185  0.9531716416659746  1.0000
  H   H21       1.0  0.19438301964286353  0.29593355646044717  0.11776519237491809  1.0000
  H   H22       1.0  0.8056057997125663  0.704073275838823  0.8822376023817923  1.0000
  C   C1        1.0  0.592268645387101  0.5902979245832468  0.1743206049934756  1.0000
  C   C2        1.0  0.4077331500677063  0.4097095453749304  0.8256714724864692  1.0000
  C   C3        1.0  0.7585592126932353  0.5055716029281854  0.14920396794900623  1.0000
  C   C4        1.0  0.24143758241545046  0.49443864917896013  0.8507977417821024  1.0000
  C   C5        1.0  0.814738067216382  0.38390652499838746  0.09837289181778171  1.0000
  C   C6        1.0  0.18524938827050624  0.6160931015117869  0.9016280286716094  1.0000
  C   C7        1.0  0.9734646984057135  0.3064706168398317  0.08743953731177358  1.0000
  C   C8        1.0  0.026539593139347156  0.693518027668226  0.9125625990495365  1.0000
  C   C9        1.0  0.07038397390297754  0.35271550631266274  0.1260878569396624  1.0000
  C   C10       1.0  0.9296197252528059  0.6472828549632936  0.8739189419895439  1.0000
  C   C11       1.0  0.003021632789000325  0.4819549699819063  0.17005110138698845  1.0000
  C   C12       1.0  0.9969704743430657  0.518054322969398  0.8299555326530452  1.0000
  C   C13       1.0  0.08985401526460628  0.558507627691654  0.20151245672725784  1.0000
  C   C14       1.0  0.9101466316419791  0.44148219269781924  0.7984872984928657  1.0000
  C   C15       1.0  0.7034952643203457  0.9867288982866711  0.9827095286916644  1.0000
  C   C16       1.0  0.29651083286168495  0.013272147338724904  0.01727076072841531  1.0000
  C   C17       1.0  0.773144364655387  0.06692149602554313  0.0350630205587592  1.0000
  C   C18       1.0  0.22686640029614585  0.9330761452105278  0.9649251009856596  1.0000
  C   C19       1.0  0.6463991524894936  0.5896542779048771  0.520703973671509  1.0000
  C   C20       1.0  0.3535957247318536  0.410345466736281  0.4793042678339177  1.0000
  C   C21       1.0  0.8121650963505403  0.47561194662880274  0.4985729473985002  1.0000
  C   C22       1.0  0.18783491469394423  0.5243853301774593  0.5014354112560682  1.0000
  N   N1        1.0  0.8510052477421581  0.5544267412216755  0.18143255574791786  1.0000
  N   N2        1.0  0.14899580664046408  0.44557267062184275  0.8185684974565319  1.0000
  O   O1        1.0  0.5608027329268382  0.6773869352679966  0.24159095604835554  1.0000
  O   O2        1.0  0.4391920775559938  0.32261265221612934  0.758412410756911  1.0000
  O   O3        1.0  0.4904930988639436  0.5732094613310891  0.133542772344974  1.0000
  O   O4        1.0  0.509506068043116  0.42681436418338586  0.8664366875199434  1.0000
  O   O5        1.0  0.008591084698373712  0.6960600382525471  0.2163327692906164  1.0000
  O   O6        1.0  0.991400223707032  0.3039453767793958  0.7836643968904867  1.0000
  O   O7        1.0  0.23414438493879436  0.49284007015560855  0.20925918043188568  1.0000
  O   O8        1.0  0.7658571810093379  0.5071582274339548  0.7907445982641477  1.0000
  O   O9        1.0  0.6771384199947192  0.8737334250315241  0.0507791827781504  1.0000
  O   O10       1.0  0.3228606821117809  0.1262575563472339  0.9492187741838833  1.0000
  O   O11       1.0  0.7854225860881529  0.021205053290700007  0.14588664974264987  1.0000
  O   O12       1.0  0.21458219375672638  0.9787845801574733  0.854109396543535  1.0000
  O   O13       1.0  0.6837084828429029  0.0396855407214858  0.8726045493389023  1.0000
  O   O14       1.0  0.31629867287845315  0.9603090438150375  0.12739800974771492  1.0000
  O   O15       1.0  0.8143057270152241  0.1676724477044544  0.9651790965755396  1.0000
  O   O16       1.0  0.18569310007273304  0.8323114121140732  0.03482012113582291  1.0000
  O   O17       1.0  0.5776511486678614  0.5350850578392895  0.6050450459798213  1.0000
  O   O18       1.0  0.4223488492144868  0.46491650393362244  0.3949481188914064  1.0000
  O   O19       1.0  0.5934146598199704  0.7306789672531337  0.448499754261796  1.0000
  O   O20       1.0  0.40658240418540703  0.2693252831980999  0.5515011883936225  1.0000
  O   O21       1.0  0.868444087233847  0.33674491355560576  0.572902665888975  1.0000
  O   O22       1.0  0.13155081019462506  0.6632591946307258  0.427092819183187  1.0000
  O   O23       1.0  0.8777547344257713  0.5250245935987933  0.4096114133794372  1.0000
  O   O24       1.0  0.12224962896013382  0.47497948686218894  0.5903879133417362  1.0000
  O   O25       1.0  0.8282731184094492  0.851757443499146  0.4101767716770012  1.0000
  O   O26       1.0  0.17172942617735037  0.14823852081114808  0.5898292082020689  1.0000
  O   O27       1.0  0.48701177949437385  0.0224284342401475  0.23830477980817477  1.0000
  O   O28       1.0  0.5129847951916632  0.9775769828507209  0.7616950622557253  1.0000
  O   O29       1.0  0.30237232561624683  0.8369513040309402  0.3848638864926174  1.0000
  O   O30       1.0  0.6976261072589057  0.163047055186091  0.6151402365537919  1.0000
  O   O31       1.0  0.04012052192861402  0.9616555207466959  0.24633945531407858  1.0000
  O   O32       1.0  0.9598830326270688  0.03834250002233829  0.7536567817647963  1.0000
