data_image0
_chemical_formula_structural       Cu4H20C20I4Br4N8
_chemical_formula_sum              "Cu4 H20 C20 I4 Br4 N8"
_cell_length_a       4.11477549148107
_cell_length_b       8.653733968376319
_cell_length_c       21.76116316183951
_cell_angle_alpha    97.86536352591916
_cell_angle_beta     89.99831032277712
_cell_angle_gamma    90.00006614195986

_space_group_name_H-M_alt    "P 1"
_space_group_IT_number       1

loop_
  _space_group_symop_operation_xyz
  'x, y, z'

loop_
  _atom_site_type_symbol
  _atom_site_label
  _atom_site_symmetry_multiplicity
  _atom_site_fract_x
  _atom_site_fract_y
  _atom_site_fract_z
  _atom_site_occupancy
  Cu  Cu1       1.0  0.16112913508742818  0.038106727519498  0.7076221128012606  1.0000
  Cu  Cu2       1.0  0.6612291504278645  0.9618925224583632  0.7923808985958376  1.0000
  Cu  Cu3       1.0  0.8388391961149325  0.9618961015141778  0.292377918173628  1.0000
  Cu  Cu4       1.0  0.33877806507610586  0.0381079869325731  0.20761853603102057  1.0000
  H   H1        1.0  0.5219151982288822  0.2907729755077142  0.7330058677191007  1.0000
  H   H2        1.0  0.021927284644512202  0.7092289874974398  0.7669925883860387  1.0000
  H   H3        1.0  0.4780822961129588  0.709225160976132  0.2669948058179372  1.0000
  H   H4        1.0  0.978062919061621  0.2907727150271811  0.23300599745999057  1.0000
  H   H5        1.0  0.5792733125232489  0.4792589011978806  0.7181720116687843  1.0000
  H   H6        1.0  0.07928259806401879  0.5207407048111036  0.7818236783957888  1.0000
  H   H7        1.0  0.4207266120120039  0.5207403751015106  0.2818296481471095  1.0000
  H   H8        1.0  0.9207221872777608  0.4792598445588325  0.21817437990085156  1.0000
  H   H9        1.0  0.8816136652777756  0.5259159716191347  0.5496787039084412  1.0000
  H   H10       1.0  0.3815949180225787  0.4740724316239452  0.9503224027077055  1.0000
  H   H11       1.0  0.11839598041614613  0.4740868440561882  0.4503217857250093  1.0000
  H   H12       1.0  0.6184098670659495  0.5259198458585246  0.0496788447275591  1.0000
  H   H13       1.0  0.22859901768403998  0.5894110299390646  0.6431253983781177  1.0000
  H   H14       1.0  0.7286074515028461  0.4105835408387363  0.856873733219267  1.0000
  H   H15       1.0  0.7713960463117858  0.41059057930185355  0.3568763989074385  1.0000
  H   H16       1.0  0.27140462454055136  0.5894146356106659  0.1431255639379287  1.0000
  H   H17       1.0  0.8723023398009957  0.0469695713220801  0.5853462394022843  1.0000
  H   H18       1.0  0.37228554355414184  0.9530212062307154  0.914654141439165  1.0000
  H   H19       1.0  0.1277194574426872  0.9530298248912602  0.41465129133787576  1.0000
  H   H20       1.0  0.6277022298336804  0.04697463730020959  0.08534501833344882  1.0000
  C   C1        1.0  0.9557030284710136  0.4344890487446946  0.5765213642176903  1.0000
  C   C2        1.0  0.4557031910505173  0.5655051896158838  0.9234755246416526  1.0000
  C   C3        1.0  0.04429932659061111  0.5655044884884003  0.4234767404986997  1.0000
  C   C4        1.0  0.5443064549208998  0.43449773266498687  0.07652129475898312  1.0000
  C   C5        1.0  0.8646128749194943  0.27879146218558765  0.5590919327782728  1.0000
  C   C6        1.0  0.3645914230036383  0.7211993008773447  0.9409094105047588  1.0000
  C   C7        1.0  0.13539920106151723  0.7212160326888861  0.4409083729799477  1.0000
  C   C8        1.0  0.6354036410337401  0.2787883107374327  0.059091562047910905  1.0000
  C   C9        1.0  0.14558202276383977  0.4702233439565973  0.6288723760569753  1.0000
  C   C10       1.0  0.6455740743015141  0.5297747375679904  0.8711315752065404  1.0000
  C   C11       1.0  0.854420331957897  0.5297794050960221  0.37113040749325427  1.0000
  C   C12       1.0  0.35442342002993854  0.4702268983223945  0.1288693045137208  1.0000
  C   C13       1.0  0.9477638621824696  0.16822788294217617  0.5966592070445388  1.0000
  C   C14       1.0  0.4477605673847762  0.8317698673803235  0.9033379343349781  1.0000
  C   C15       1.0  0.05223120221221931  0.831768040537149  0.40333720003219753  1.0000
  C   C16       1.0  0.5522247757750022  0.16823650102351445  0.09666092643620061  1.0000
  C   C17       1.0  0.236680166131265  0.3514256232434008  0.6638234767452361  1.0000
  C   C18       1.0  0.7366924344907062  0.6485714009488606  0.8361711573500729  1.0000
  C   C19       1.0  0.7633173282487179  0.6485713600973  0.3361766692849599  1.0000
  C   C20       1.0  0.26331235102104233  0.3514303815183908  0.16382467577879822  1.0000
  I   I1        1.0  0.6513515673275093  0.8494477707762088  0.674507644891932  1.0000
  I   I2        1.0  0.15141634202266374  0.15054918840256448  0.8254943686486488  1.0000
  I   I3        1.0  0.3486313454792764  0.15055272530825192  0.3254922485849363  1.0000
  I   I4        1.0  0.848593303754484  0.8494489880487635  0.1745049285156313  1.0000
  Br  Br1       1.0  0.6453283575278731  0.21749061047996318  0.48249275450542944  1.0000
  Br  Br2       1.0  0.1452811544287016  0.7825043455603051  0.01750794924957689  1.0000
  Br  Br3       1.0  0.35468371840453716  0.782509858930055  0.5175080564445481  1.0000
  Br  Br4       1.0  0.8547212005115412  0.2174949840399307  0.9824918754428253  1.0000
  N   N1        1.0  0.4293575610557951  0.38445032243054555  0.7152164558098661  1.0000
  N   N2        1.0  0.9293556253865062  0.6155450307756213  0.784783866968894  1.0000
  N   N3        1.0  0.5706375030510173  0.615548993849771  0.28478382768290095  1.0000
  N   N4        1.0  0.07063214799092782  0.38445431216184284  0.21521549898694306  1.0000
  N   N5        1.0  0.12388752557367873  0.20331888212931656  0.6493142715047925  1.0000
  N   N6        1.0  0.6238907493025608  0.7966781071959375  0.8506883612534466  1.0000
  N   N7        1.0  0.8761221200161841  0.7966838935689182  0.3506875944659669  1.0000
  N   N8        1.0  0.376111605682759  0.2033177363234628  0.1493107984766198  1.0000
