data_image0
_chemical_formula_structural       Al2H14C26Br2N2O12
_chemical_formula_sum              "Al2 H14 C26 Br2 N2 O12"
_cell_length_a       6.60825591543723
_cell_length_b       11.041259018818154
_cell_length_c       17.03280598067452
_cell_angle_alpha    83.22669311765273
_cell_angle_beta     81.46628739494058
_cell_angle_gamma    73.88661105801272

_space_group_name_H-M_alt    "P 1"
_space_group_IT_number       1

loop_
  _space_group_symop_operation_xyz
  'x, y, z'

loop_
  _atom_site_type_symbol
  _atom_site_label
  _atom_site_symmetry_multiplicity
  _atom_site_fract_x
  _atom_site_fract_y
  _atom_site_fract_z
  _atom_site_occupancy
  Al  Al1       1.0  0.5038392686380961  0.4989266636753911  0.49790804736385746  1.0000
  Al  Al2       1.0  0.0030551944867197906  0.5017201679867541  0.49759722989467997  1.0000
  H   H1        1.0  0.2040606789335584  0.6530609652065351  0.44835310814551826  1.0000
  H   H2        1.0  0.8166818500706869  0.3449351632739451  0.5385926061914359  1.0000
  H   H3        1.0  0.8206313249820667  0.5539541542547611  0.7387749947568949  1.0000
  H   H4        1.0  0.7673726551277866  0.5551063088090233  0.8871827927625232  1.0000
  H   H5        1.0  0.44596922948486645  0.454957755959299  0.888256302098469  1.0000
  H   H6        1.0  0.5607441894875791  0.5445759286272677  0.10762684938367066  1.0000
  H   H7        1.0  0.23911047464500976  0.4485500308866861  0.1090590564943881  1.0000
  H   H8        1.0  0.1847533488946809  0.4498230475907903  0.2574871961806338  1.0000
  H   H9        1.0  0.8269751398584262  0.7590406781759925  0.6140723217050663  1.0000
  H   H10       1.0  0.9383177510785786  0.8712675645181209  0.7091680185398557  1.0000
  H   H11       1.0  0.5699684490892379  0.22828975155719894  0.6128118555495732  1.0000
  H   H12       1.0  0.8077402504525754  0.10722999350304009  0.7088158265429242  1.0000
  H   H13       1.0  0.5338601684170002  0.4537343144415118  0.6775943786715428  1.0000
  H   H14       1.0  0.4728857863106625  0.5434693109707923  0.31849578700347075  1.0000
  C   C1        1.0  0.636065511882279  0.7253497452005463  0.5021888514337576  1.0000
  C   C2        1.0  0.8195951892984255  0.4999205860711483  0.35339162217733383  1.0000
  C   C3        1.0  0.3664705117650869  0.27442168615741747  0.49324551294800756  1.0000
  C   C4        1.0  0.18601003673990144  0.5015865547985854  0.6425868346755194  1.0000
  C   C5        1.0  0.1615204672140038  0.5058821420918136  0.7293522089481569  1.0000
  C   C6        1.0  0.9559939087222916  0.5344389105248767  0.7721693851539583  1.0000
  C   C7        1.0  0.9253959735529024  0.534104793426671  0.8540704939861852  1.0000
  C   C8        1.0  0.10487095767974347  0.5039108211327488  0.8957432559987664  1.0000
  C   C9        1.0  0.3096716746551209  0.47795079616830094  0.8549948783442785  1.0000
  C   C10       1.0  0.3410212966714141  0.4779071560094081  0.7718055659386918  1.0000
  C   C11       1.0  0.6967616154647372  0.5226304468940484  0.14094288132875477  1.0000
  C   C12       1.0  0.9016849770342716  0.49793620734801186  0.10028141325171445  1.0000
  C   C13       1.0  0.08090060562960838  0.4689176947898517  0.14201093785116103  1.0000
  C   C14       1.0  0.04988651954639769  0.46856086738049657  0.22392810782123715  1.0000
  C   C15       1.0  0.8443057312145612  0.495602008511675  0.2665859766952181  1.0000
  C   C16       1.0  0.665072640574863  0.5220752447197087  0.22416618923365658  1.0000
  C   C17       1.0  0.5668019471477663  0.8669869705714889  0.4997148084433077  1.0000
  C   C18       1.0  0.6368673506146435  0.9293866540518396  0.5551473680487717  1.0000
  C   C19       1.0  0.43564694683962585  0.9357554390774964  0.4444122086009584  1.0000
  C   C20       1.0  0.7716493865760441  0.8617285115318012  0.6125018837813485  1.0000
  C   C21       1.0  0.8338462654393338  0.9247634519607363  0.6659342452074384  1.0000
  C   C22       1.0  0.4322693432372945  0.13277028997225668  0.4956727350443799  1.0000
  C   C23       1.0  0.3691039550186233  0.06994765636754613  0.4417966451129231  1.0000
  C   C24       1.0  0.5656539867202569  0.06459277960085788  0.553830024492342  1.0000
  C   C25       1.0  0.6284077880233382  0.12608315995726832  0.6112618828371977  1.0000
  C   C26       1.0  0.7608375441179547  0.057849992230572404  0.6656089877459193  1.0000
  Br  Br1       1.0  0.2051655619937378  0.1635711213698343  0.36160070215012746  1.0000
  Br  Br2       1.0  0.3549007348149262  0.8519719784001224  0.3676638932462737  1.0000
  N   N1        1.0  0.09551391134584726  0.496653965790017  0.9796543113253408  1.0000
  N   N2        1.0  0.9114892311613405  0.5049821219693699  0.016412265485080013  1.0000
  O   O1        1.0  0.4923268470406369  0.6672278303422489  0.5194007257590414  1.0000
  O   O2        1.0  0.9827484303383474  0.483002246482627  0.3887405034116752  1.0000
  O   O3        1.0  0.1705532330177705  0.3288940447647803  0.508865350608225  1.0000
  O   O4        1.0  0.37859843215858996  0.471596570501241  0.6063934329447419  1.0000
  O   O5        1.0  0.5147442145930867  0.3295745829146028  0.4784834310585637  1.0000
  O   O6        1.0  0.02205553653633526  0.5242297882392749  0.606787039919382  1.0000
  O   O7        1.0  0.8334836990640256  0.6736604324266793  0.48749147320598496  1.0000
  O   O8        1.0  0.6274553667013553  0.5237434048062254  0.3898450276067251  1.0000
  O   O9        1.0  0.23975527584394024  0.5622333778774833  0.4624621574146913  1.0000
  O   O10       1.0  0.7689471810136934  0.43681051564835377  0.5336825517891056  1.0000
  O   O11       1.0  0.5429407360411602  0.4497610475365619  0.7359867987331227  1.0000
  O   O12       1.0  0.4633808234222981  0.548682978993547  0.2600651155049576  1.0000
