data_image0
_chemical_formula_structural       Na4B4H44C16O32
_chemical_formula_sum              "Na4 B4 H44 C16 O32"
_cell_length_a       7.647833349111021
_cell_length_b       10.996985382595623
_cell_length_c       10.997072516241197
_cell_angle_alpha    76.38847656506911
_cell_angle_beta     94.27208146356497
_cell_angle_gamma    94.27257013033672

_space_group_name_H-M_alt    "P 1"
_space_group_IT_number       1

loop_
  _space_group_symop_operation_xyz
  'x, y, z'

loop_
  _atom_site_type_symbol
  _atom_site_label
  _atom_site_symmetry_multiplicity
  _atom_site_fract_x
  _atom_site_fract_y
  _atom_site_fract_z
  _atom_site_occupancy
  Na  Na1       1.0  0.5688788594826731  0.9113150467031443  0.39711063846215233  1.0000
  Na  Na2       1.0  0.9311219718064052  0.6028906265465253  0.08868684073831912  1.0000
  Na  Na3       1.0  0.4311267221535502  0.08868573640339858  0.6028850055160293  1.0000
  Na  Na4       1.0  0.0688818147833672  0.3971196579273481  0.9113145239552627  1.0000
  B   B1        1.0  0.5937304647931897  0.16628530825299484  0.1424122876272308  1.0000
  B   B2        1.0  0.9062788330404745  0.8575840269593725  0.8337103638994565  1.0000
  B   B3        1.0  0.4062714287952148  0.8337201014637684  0.857582986126616  1.0000
  B   B4        1.0  0.09372321078661372  0.14242052894827847  0.16628877198458988  1.0000
  H   H1        1.0  0.6791967578654196  0.6938685251319751  0.4278161741802652  1.0000
  H   H2        1.0  0.8207614824376038  0.5721766360948448  0.3061266183480458  1.0000
  H   H3        1.0  0.3207841132978544  0.30611385230221083  0.572177108578636  1.0000
  H   H4        1.0  0.17921704269215163  0.42780672996778424  0.6938708985080029  1.0000
  H   H5        1.0  0.6846493674309572  0.3786657588350834  0.7455261658200601  1.0000
  H   H6        1.0  0.8153427282207489  0.2544895063213061  0.6213599788791699  1.0000
  H   H7        1.0  0.31534499215172934  0.6213332087961586  0.25448237344764396  1.0000
  H   H8        1.0  0.1846621498735885  0.745506919813671  0.37865222777800533  1.0000
  H   H9        1.0  0.529957130166494  0.17613761345141646  0.31283831843300913  1.0000
  H   H10       1.0  0.9700482937058653  0.6871539600795271  0.823856439561496  1.0000
  H   H11       1.0  0.47004848404102256  0.8238650222533082  0.6871559442980416  1.0000
  H   H12       1.0  0.029946989746377998  0.31284578359545623  0.1761437363899817  1.0000
  H   H13       1.0  0.5143349390062184  0.3391663644781459  0.14566360332154465  1.0000
  H   H14       1.0  0.98566653665776  0.8543305287194297  0.6608277506173299  1.0000
  H   H15       1.0  0.48566449838482845  0.6608418243309728  0.8543318048480661  1.0000
  H   H16       1.0  0.0143378907205474  0.14566845884288426  0.33917286964927496  1.0000
  H   H17       1.0  0.627611436292618  0.1192601640348201  0.9797873408934665  1.0000
  H   H18       1.0  0.872395744312364  0.0202077429906851  0.8807416528865563  1.0000
  H   H19       1.0  0.37239164156785887  0.8807433774526598  0.020207531355723184  1.0000
  H   H20       1.0  0.12761022050803209  0.9797987221789266  0.11925528421871713  1.0000
  H   H21       1.0  0.22435923215993367  0.8923565704410378  0.5055652099652479  1.0000
  H   H22       1.0  0.27564780954861595  0.4944308522211926  0.10763845075062767  1.0000
  H   H23       1.0  0.7756436352656666  0.10763768734412339  0.4944356623748691  1.0000
  H   H24       1.0  0.7243612951306774  0.505576808300894  0.8923673693263584  1.0000
  H   H25       1.0  0.2245182441761528  0.008151592838281402  0.3916873152295255  1.0000
  H   H26       1.0  0.2754863064540913  0.6083187655688389  0.9918501501226519  1.0000
  H   H27       1.0  0.7754806471742198  0.9918416509168818  0.6083137060486696  1.0000
  H   H28       1.0  0.724514871142496  0.39168963543480817  0.00815344288740505  1.0000
  H   H29       1.0  0.5595774757900642  0.7839484525471928  0.17242493956329966  1.0000
  H   H30       1.0  0.9404191406466822  0.8275696448410058  0.21605456999621725  1.0000
  H   H31       1.0  0.44042455302994205  0.21605793524722114  0.8275719089288534  1.0000
  H   H32       1.0  0.0595867264598127  0.17243126253406865  0.7839465108504629  1.0000
  H   H33       1.0  0.5673667243280464  0.9326457235687398  0.1396002947900927  1.0000
  H   H34       1.0  0.9326425969189814  0.8603992362600931  0.06735757480019106  1.0000
  H   H35       1.0  0.43263535957387944  0.0673597689937111  0.8603986035427557  1.0000
  H   H36       1.0  0.0673620709083593  0.1396053712310206  0.9326416201592597  1.0000
  H   H37       1.0  0.9224148755211701  0.9527424866609024  0.32755452071556607  1.0000
  H   H38       1.0  0.5775889555258972  0.6724473243298091  0.04725391647905047  1.0000
  H   H39       1.0  0.07759069605437223  0.047253696017328685  0.6724459355975727  1.0000
  H   H40       1.0  0.4224156096411491  0.3275581576818494  0.9527423224949562  1.0000
  H   H41       1.0  0.9262426392217763  0.8268218204324498  0.42959575547813256  1.0000
  H   H42       1.0  0.5737651616208199  0.5704032653297659  0.1731729905412537  1.0000
  H   H43       1.0  0.07375918666689071  0.173174367716264  0.570408236800887  1.0000
  H   H44       1.0  0.4262354675458369  0.4296021393066878  0.8268231598196397  1.0000
  C   C1        1.0  0.5908107750617263  0.6255932532372767  0.6660321248341393  1.0000
  C   C2        1.0  0.9091663217243706  0.3339573975296516  0.3744296674655916  1.0000
  C   C3        1.0  0.4092002774598314  0.37440956848006113  0.33396588062672833  1.0000
  C   C4        1.0  0.0908207264963963  0.6660282451300359  0.6255784252512914  1.0000
  C   C5        1.0  0.6730476048472412  0.5462298054406459  0.5951647616494926  1.0000
  C   C6        1.0  0.8269153317504206  0.40483288270806367  0.45377641436468275  1.0000
  C   C7        1.0  0.32695941396002587  0.4537673811069636  0.4048372989396613  1.0000
  C   C8        1.0  0.17305565442721624  0.5951504735841125  0.5462272682783793  1.0000
  C   C9        1.0  0.7107854143444784  0.5982937574836455  0.47070273939981194  1.0000
  C   C10       1.0  0.7891789040324967  0.5292918894162567  0.40171381013977503  1.0000
  C   C11       1.0  0.28920542969867574  0.4016974167886714  0.5292967674650344  1.0000
  C   C12       1.0  0.21079586790684599  0.4706923980602369  0.5982860989862149  1.0000
  C   C13       1.0  0.7125404934095342  0.4216002807422397  0.6487361997895961  1.0000
  C   C14       1.0  0.7874231827463802  0.35126635061013184  0.5784137320240179  1.0000
  C   C15       1.0  0.28745627479213454  0.5783958870852287  0.3512712989175954  1.0000
  C   C16       1.0  0.21256012984819253  0.6487238979483575  0.4215930843237887  1.0000
  O   O1        1.0  0.5612909680496331  0.737668872563944  0.6122433245361595  1.0000
  O   O2        1.0  0.938699280469429  0.3877541142061602  0.26234406178244296  1.0000
  O   O3        1.0  0.438717079844622  0.26233373187855585  0.3877473726913012  1.0000
  O   O4        1.0  0.06129595029015179  0.6122345760140175  0.7376671200860944  1.0000
  O   O5        1.0  0.5538617183254363  0.5746890433399229  0.780557696223234  1.0000
  O   O6        1.0  0.9461268263606046  0.21944387960806458  0.42532933633756204  1.0000
  O   O7        1.0  0.4461445645365387  0.42531939869639496  0.2194432965033998  1.0000
  O   O8        1.0  0.05387111605245559  0.7805458195618014  0.5746825731999368  1.0000
  O   O9        1.0  0.5795771225862794  0.1171864857120539  0.26779815881563723  1.0000
  O   O10       1.0  0.9204466307736608  0.7321982694179352  0.8828112104978492  1.0000
  O   O11       1.0  0.4204326505064415  0.8828181628117306  0.7321984358603902  1.0000
  O   O12       1.0  0.079551469549493  0.26780712505789234  0.1171866930771302  1.0000
  O   O13       1.0  0.5566469029308295  0.2892207559695592  0.08594590147866654  1.0000
  O   O14       1.0  0.9433519002385395  0.9140483407261254  0.7107736692565115  1.0000
  O   O15       1.0  0.4433497501605998  0.7107836346368968  0.9140503978203046  1.0000
  O   O16       1.0  0.05664977796858751  0.0859542176033941  0.2892205048614188  1.0000
  O   O17       1.0  0.6486157814147973  0.08929068369637597  0.07202701219088682  1.0000
  O   O18       1.0  0.8513880660302816  0.9279650722296818  0.9107042987616444  1.0000
  O   O19       1.0  0.35138212859484247  0.9107146279337708  0.9279672668050912  1.0000
  O   O20       1.0  0.14862043513715412  0.07204048715717448  0.08929202882548284  1.0000
  O   O21       1.0  0.3023406382307599  0.9603334333104028  0.4589997355681635  1.0000
  O   O22       1.0  0.1976591138009596  0.5410015226114168  0.03967098209100336  1.0000
  O   O23       1.0  0.6976567433024244  0.0396606177507124  0.5409964878973812  1.0000
  O   O24       1.0  0.8023422616126938  0.45900604529453637  0.9603373791939948  1.0000
  O   O25       1.0  0.49337254820466825  0.8569669846839358  0.17689243825034162  1.0000
  O   O26       1.0  0.006636435163656477  0.8231153292292671  0.14303616115289958  1.0000
  O   O27       1.0  0.5066319693840029  0.14303847661629016  0.8231028945789166  1.0000
  O   O28       1.0  0.9933680723643263  0.1768855316426539  0.8569639840113228  1.0000
  O   O29       1.0  0.8604105677185744  0.8685114782111327  0.3516271582344431  1.0000
  O   O30       1.0  0.6395956088437486  0.6483732297660721  0.13148561840909434  1.0000
  O   O31       1.0  0.13959866939416093  0.13148282568700853  0.648370237215204  1.0000
  O   O32       1.0  0.36040516305804726  0.35163223700464386  0.8685132503860518  1.0000
