data_image0
_chemical_formula_structural       Co9H66C90O48
_chemical_formula_sum              "Co9 H66 C90 O48"
_cell_length_a       14.678665525667578
_cell_length_b       19.118036738368
_cell_length_c       19.11895294948493
_cell_angle_alpha    113.68791057893385
_cell_angle_beta     104.83568292896476
_cell_angle_gamma    104.82839358428026

_space_group_name_H-M_alt    "P 1"
_space_group_IT_number       1

loop_
  _space_group_symop_operation_xyz
  'x, y, z'

loop_
  _atom_site_type_symbol
  _atom_site_label
  _atom_site_symmetry_multiplicity
  _atom_site_fract_x
  _atom_site_fract_y
  _atom_site_fract_z
  _atom_site_occupancy
  Co  Co1       1.0  0.4203684696414811  0.33378419878825843  0.03538589131417073  1.0000
  Co  Co2       1.0  0.3849254499265841  0.96469058925441  0.29840869150471167  1.0000
  Co  Co3       1.0  0.08649078873428112  0.7015226970270876  0.6661639466699542  1.0000
  Co  Co4       1.0  0.5796533444380999  0.6662325675788029  0.9646409895858458  1.0000
  Co  Co5       1.0  0.6150629287471004  0.035304306975767516  0.7015656773728837  1.0000
  Co  Co6       1.0  0.9134849041139644  0.2984497062446538  0.3338192899939969  1.0000
  Co  Co7       1.0  0.500009568782751  0.5000116143696688  5.904479344696009e-06  1.0000
  Co  Co8       1.0  0.49999148117731096  1.2601518804400002e-05  0.4999984763538663  1.0000
  Co  Co9       1.0  0.9999992913752395  0.499996724455926  0.4999877701800203  1.0000
  H   H1        1.0  0.3798592043927729  0.6394750158791144  0.16503611772353843  1.0000
  H   H2        1.0  0.21480093981755755  0.8351081954368456  0.47452764320080143  1.0000
  H   H3        1.0  0.7402162461756204  0.5255892189505076  0.3604467292572693  1.0000
  H   H4        1.0  0.6201351638740178  0.3605305025887946  0.8349625258036825  1.0000
  H   H5        1.0  0.7852095595029027  0.16491544260284743  0.5254652416583597  1.0000
  H   H6        1.0  0.25976351676007436  0.47440255300634254  0.639528869655777  1.0000
  H   H7        1.0  0.3502544730431226  0.7220675981990186  0.2895474408855991  1.0000
  H   H8        1.0  0.06076596667310253  0.7105048296742141  0.4325945770183425  1.0000
  H   H9        1.0  0.6280046132223942  0.5675491691250443  0.2779213996382168  1.0000
  H   H10       1.0  0.649729568384565  0.27792854786129345  0.7104469721926209  1.0000
  H   H11       1.0  0.9392594797011924  0.28950506372575563  0.5674150942264476  1.0000
  H   H12       1.0  0.37198310780082267  0.43245572415808914  0.7220699276057303  1.0000
  H   H13       1.0  0.301613510417333  0.5183025994934881  0.33982932430249246  1.0000
  H   H14       1.0  0.9617674043486488  0.6601480115815407  0.17849827294773493  1.0000
  H   H15       1.0  0.7831726832213519  0.8216204562032632  0.4817800333598684  1.0000
  H   H16       1.0  0.698404189215772  0.4817016704010798  0.660177607218003  1.0000
  H   H17       1.0  0.038253465657895426  0.33982876714251387  0.8214961590684595  1.0000
  H   H18       1.0  0.2168012242957928  0.1783738155282109  0.5182362103816018  1.0000
  H   H19       1.0  0.3251564786736623  0.4346963140324009  0.21222361082219976  1.0000
  H   H20       1.0  0.11295965351357765  0.7877317900199757  0.22246268080876072  1.0000
  H   H21       1.0  0.8904702003933095  0.777572900540875  0.5652813039425056  1.0000
  H   H22       1.0  0.674867164354268  0.5653142041164118  0.7877870013223645  1.0000
  H   H23       1.0  0.887037286783979  0.21224498727809762  0.77750401396667  1.0000
  H   H24       1.0  0.10948800579575395  0.22239700319897798  0.4347168308948426  1.0000
  H   H25       1.0  0.4458994907538526  0.7910465122908338  0.43557754427436646  1.0000
  H   H26       1.0  0.010328776482005381  0.5644378148039237  0.3555524697948372  1.0000
  H   H27       1.0  0.6547304562697248  0.6445649318492598  0.2089369425151091  1.0000
  H   H28       1.0  0.5540832968908376  0.20895838079216134  0.5644128092220484  1.0000
  H   H29       1.0  0.9896825377261891  0.435539588354473  0.6444413729464389  1.0000
  H   H30       1.0  0.3452701648771778  0.3554474597281399  0.7910677856567645  1.0000
  H   H31       1.0  0.3337872087908665  0.8102311718597266  0.6263554928388049  1.0000
  H   H32       1.0  0.7074557074431596  0.37354970350094874  0.1838051542172181  1.0000
  H   H33       1.0  0.5235588561548072  0.816227538528665  0.18970999161805227  1.0000
  H   H34       1.0  0.6662110066176223  0.18976934830202916  0.3736392887908764  1.0000
  H   H35       1.0  0.29254234502740684  0.6264476927924679  0.8161956641307528  1.0000
  H   H36       1.0  0.47644818910194414  0.1837779805776805  0.810297430634087  1.0000
  H   H37       1.0  0.19648611761950727  0.5793830271476992  0.39376046067231846  1.0000
  H   H38       1.0  0.8027822992745614  0.6061717890398058  0.18559641279228614  1.0000
  H   H39       1.0  0.6169873731010256  0.8144261191012847  0.42052759755271313  1.0000
  H   H40       1.0  0.8035141419552048  0.42060187322969983  0.6062368243637765  1.0000
  H   H41       1.0  0.19725010088175318  0.3938393544414539  0.814425070357274  1.0000
  H   H42       1.0  0.3830008700443416  0.18558127372897815  0.5794810501701876  1.0000
  H   H43       1.0  0.3785579249432303  0.25936743250793637  0.12442699745945876  1.0000
  H   H44       1.0  0.2542645041641266  0.8757134402387409  0.1349966072292049  1.0000
  H   H45       1.0  0.11921103512793271  0.865010834013326  0.7406881296400983  1.0000
  H   H46       1.0  0.621454923242652  0.7406299644477913  0.8755798795324451  1.0000
  H   H47       1.0  0.7457476571123107  0.12431207199298912  0.8649832356897349  1.0000
  H   H48       1.0  0.8807985042511032  0.1349715681249677  0.25933979763191667  1.0000
  H   H49       1.0  0.4976868196173783  0.307707875316659  0.15372648394703248  1.0000
  H   H50       1.0  0.3439862135291279  0.8462848244549122  0.15402628372044092  1.0000
  H   H51       1.0  0.1899753515134252  0.8459936709955971  0.6923230705785529  1.0000
  H   H52       1.0  0.502334429976628  0.6923176383182936  0.846307457382686  1.0000
  H   H53       1.0  0.6560042741097476  0.15370444882488243  0.8459551364313003  1.0000
  H   H54       1.0  0.8100298874551867  0.15398998045705534  0.3076987558828392  1.0000
  H   H55       1.0  0.23009811096995492  0.29256203330574243  0.9894873125159693  1.0000
  H   H56       1.0  0.24059879357540837  0.010683216214971503  0.3032035925585603  1.0000
  H   H57       1.0  0.937366232806255  0.6967456523214751  0.7073998974978154  1.0000
  H   H58       1.0  0.7699393134880169  0.7074578583632629  0.010577378232703409  1.0000
  H   H59       1.0  0.7593848266330313  0.9892979341829505  0.6967637975059946  1.0000
  H   H60       1.0  0.0626089870649694  0.3032286253453693  0.29258452111184863  1.0000
  H   H61       1.0  0.23139726243840636  0.21696089436314037  0.9160414668067318  1.0000
  H   H62       1.0  0.3154015846129424  0.08398827111705033  0.3009053565358215  1.0000
  H   H63       1.0  0.014388016055321069  0.6989994364917893  0.7829956274960141  1.0000
  H   H64       1.0  0.7686134750943269  0.7830465001969531  0.0840129414512278  1.0000
  H   H65       1.0  0.6845959107391623  0.916017872341101  0.6990972932396035  1.0000
  H   H66       1.0  0.9855964981664795  0.3009892120650549  0.21700057728869382  1.0000
  C   C1        1.0  0.35505817380420984  0.532200643419529  0.18131097042775937  1.0000
  C   C2        1.0  0.17374907700047268  0.8187308323465745  0.35092468081032996  1.0000
  C   C3        1.0  0.8227620233575551  0.6491415985635457  0.46774639334176277  1.0000
  C   C4        1.0  0.6449573288557886  0.46781049913828116  0.818695147453667  1.0000
  C   C5        1.0  0.826245071999061  0.181272811522291  0.6490637523605614  1.0000
  C   C6        1.0  0.1772055079410464  0.3508370525247031  0.5322445395133784  1.0000
  C   C7        1.0  0.36107026750097776  0.6130361959957968  0.2030307242980883  1.0000
  C   C8        1.0  0.15802408047803615  0.7970684864700603  0.4100706340781671  1.0000
  C   C9        1.0  0.7478469739107823  0.5900277696227295  0.38693103456555644  1.0000
  C   C10       1.0  0.6389301290387834  0.3869686979463936  0.7969704274712301  1.0000
  C   C11       1.0  0.8419851716948868  0.20294140605568606  0.5899248568057232  1.0000
  C   C12       1.0  0.2521297226891761  0.40996212801268683  0.6130536677725474  1.0000
  C   C13       1.0  0.3457012903904087  0.6592831966173521  0.27319052901177804  1.0000
  C   C14       1.0  0.07254575908780954  0.7268896277697365  0.3861725772801564  1.0000
  C   C15       1.0  0.6862108623097427  0.6139699161315733  0.3407277682270404  1.0000
  C   C16       1.0  0.6542933930724503  0.3407173235149231  0.7268093089864323  1.0000
  C   C17       1.0  0.9274775912162809  0.27311464217820713  0.6138265777908317  1.0000
  C   C18       1.0  0.3137745895742938  0.38603185308397775  0.6592634265123395  1.0000
  C   C19       1.0  0.3256180406613539  0.6264941572774563  0.32423610381989226  1.0000
  C   C20       1.0  0.0014128309055367165  0.6757945136537558  0.3023115021016666  1.0000
  C   C21       1.0  0.698983881918501  0.6978293254571923  0.37353566804121396  1.0000
  C   C22       1.0  0.6743819707263937  0.373505738238606  0.67576296591227  1.0000
  C   C23       1.0  0.9986102163607526  0.32420350823773003  0.6976835164989127  1.0000
  C   C24       1.0  0.30099639742854817  0.3021705692376814  0.6264584609003805  1.0000
  C   C25       1.0  0.31584409307207306  0.5441988978173387  0.3002575824287989  1.0000
  C   C26       1.0  0.015564389650265412  0.6997566931983245  0.24397362176103612  1.0000
  C   C27       1.0  0.7715179048726738  0.756142732550366  0.45584660332596644  1.0000
  C   C28       1.0  0.6841688388843608  0.455802872595804  0.6997432206771919  1.0000
  C   C29       1.0  0.9844564057920875  0.30022695816128225  0.7560146620339766  1.0000
  C   C30       1.0  0.22845555379601737  0.24384779012743257  0.5441565403059911  1.0000
  C   C31       1.0  0.3298680708670219  0.497605701048464  0.22960969857901864  1.0000
  C   C32       1.0  0.10026288796527896  0.7703960009709548  0.2680108321872582  1.0000
  C   C33       1.0  0.8322098586414767  0.7320631027566975  0.5023800357523669  1.0000
  C   C34       1.0  0.6701519037989527  0.5024016928311712  0.7703931822442486  1.0000
  C   C35       1.0  0.8997423243253734  0.22959452244675305  0.7319708575383075  1.0000
  C   C36       1.0  0.16775147923608102  0.26791304901987445  0.4976159942796343  1.0000
  C   C37       1.0  0.32208242667440606  0.678196888337375  0.4044881847458229  1.0000
  C   C38       1.0  0.9176394715157699  0.5954987241355738  0.2737286173368573  1.0000
  C   C39       1.0  0.6437725816178103  0.7263632262047893  0.32178480643894863  1.0000
  C   C40       1.0  0.6779103067118013  0.3218011324484565  0.5955071270654885  1.0000
  C   C41       1.0  0.08238691989294726  0.404501797376149  0.7262821865689306  1.0000
  C   C42       1.0  0.35622176915081394  0.27364791561905133  0.6782234130414722  1.0000
  C   C43       1.0  0.39207562259447576  0.7621893470317432  0.4559505721691296  1.0000
  C   C44       1.0  0.9361390214133605  0.5440493162969703  0.3062865577993392  1.0000
  C   C45       1.0  0.6297792520725454  0.6938247818071022  0.23779270083861814  1.0000
  C   C46       1.0  0.6079127290038001  0.23781117268847407  0.544040170364589  1.0000
  C   C47       1.0  0.06388105028904094  0.4559399584106105  0.6937122086425307  1.0000
  C   C48       1.0  0.37021267711583755  0.3061857350447781  0.7622111286001712  1.0000
  C   C49       1.0  0.39727822893268444  0.8088821545275523  0.5361017760066389  1.0000
  C   C50       1.0  0.8611658069195658  0.4638957800822682  0.27283743942965794  1.0000
  C   C51       1.0  0.5882999619844682  0.7272626870807813  0.19106066029156216  1.0000
  C   C52       1.0  0.6027115264915324  0.19112398844073653  0.46389045429026515  1.0000
  C   C53       1.0  0.13884714456225583  0.5360947438356265  0.7271551926746513  1.0000
  C   C54       1.0  0.41170175553031646  0.27274907975013474  0.8089445565744243  1.0000
  C   C55       1.0  0.3290304523379462  0.7736223179460995  0.5638442155928801  1.0000
  C   C56       1.0  0.765225009615875  0.43608257831672154  0.20973761695379523  1.0000
  C   C57       1.0  0.5554155642456138  0.7903334963376809  0.22632665067756375  1.0000
  C   C58       1.0  0.6709653363333173  0.22637757731589406  0.4361498362967495  1.0000
  C   C59       1.0  0.23478166872373415  0.5639123189972467  0.7902576244077653  1.0000
  C   C60       1.0  0.44458121676088064  0.20967264722597898  0.7736826576939961  1.0000
  C   C61       1.0  0.25508011022319727  0.6916496620131485  0.5114333547375268  1.0000
  C   C62       1.0  0.7437339143361967  0.488478501513491  0.18014084494836174  1.0000
  C   C63       1.0  0.5634343843160893  0.8198801565003395  0.3082841204065404  1.0000
  C   C64       1.0  0.7449217050647191  0.3083439856353964  0.4885672248468468  1.0000
  C   C65       1.0  0.25628120169836427  0.5115276426388249  0.8198642366963612  1.0000
  C   C66       1.0  0.43656278755320693  0.18012536229855416  0.6917260604525667  1.0000
  C   C67       1.0  0.2535841306029953  0.6437580401693384  0.432998666652779  1.0000
  C   C68       1.0  0.8206491804509426  0.5669244834640423  0.21070622589544288  1.0000
  C   C69       1.0  0.6097661462700544  0.7893377586222743  0.3561881652786029  1.0000
  C   C70       1.0  0.7464114268307326  0.3562343575502852  0.5669965149363209  1.0000
  C   C71       1.0  0.17937634343439876  0.4330785372591209  0.7893075019696313  1.0000
  C   C72       1.0  0.39023203340540397  0.21067400826166968  0.6438262911577155  1.0000
  C   C73       1.0  0.38126532209555813  0.4846294723712036  0.1111744984674061  1.0000
  C   C74       1.0  0.27014505424957513  0.8888088474376024  0.3734629675479939  1.0000
  C   C75       1.0  0.8966299699059661  0.6265663560960065  0.5152611120720182  1.0000
  C   C76       1.0  0.6187467272323846  0.5153860436867321  0.888834262198202  1.0000
  C   C77       1.0  0.7298328931814736  0.11119479566018953  0.6265165142642531  1.0000
  C   C78       1.0  0.10335018629063344  0.373407921729715  0.48472218868428035  1.0000
  C   C79       1.0  0.4776768079169785  0.8944546165278597  0.5944712824195478  1.0000
  C   C80       1.0  0.8830604984651272  0.4055036537901772  0.3000430714161837  1.0000
  C   C81       1.0  0.5830185699121558  0.6999921885264302  0.10546932724246026  1.0000
  C   C82       1.0  0.5223134162469023  0.10555527521559332  0.4055199296807928  1.0000
  C   C83       1.0  0.11693210034907515  0.5944799965082909  0.699943831309028  1.0000
  C   C84       1.0  0.41698830485157856  0.3000270761501441  0.8945409626738441  1.0000
  C   C85       1.0  0.176371103103314  0.6569523759711374  0.5388008947155641  1.0000
  C   C86       1.0  0.6376128176002496  0.46109605677732196  0.11809291748376444  1.0000
  C   C87       1.0  0.5194014692600321  0.8819040123474269  0.34300610416685384  1.0000
  C   C88       1.0  0.8236296099230387  0.34304189650641354  0.4612033793764923  1.0000
  C   C89       1.0  0.36240690501229983  0.5389207091841898  0.8819173361888986  1.0000
  C   C90       1.0  0.4805936792589307  0.11810025661158363  0.6569953301359136  1.0000
  O   O1        1.0  0.42997264157329346  0.5238654235829756  0.08354793014588331  1.0000
  O   O2        1.0  0.34651364524308564  0.9163539924500201  0.44028893343696773  1.0000
  O   O3        1.0  0.9060856260416938  0.5597020947293034  0.4759890076679483  1.0000
  O   O4        1.0  0.5700409785729618  0.47614759331274575  0.9164590914676725  1.0000
  O   O5        1.0  0.6534679075901905  0.08365402427908462  0.5596867387239826  1.0000
  O   O6        1.0  0.09391081862369798  0.44028218039200345  0.5239921053079755  1.0000
  O   O7        1.0  0.432839871682468  0.26964506070115146  0.10482688557625151  1.0000
  O   O8        1.0  0.32813119324492146  0.8952266308776162  0.16489793836392883  1.0000
  O   O9        1.0  0.16311616238220972  0.8350588763553193  0.7302994027541417  1.0000
  O   O10       1.0  0.5671947810344948  0.7303804533016777  0.8952008094786523  1.0000
  O   O11       1.0  0.6718711069903022  0.10477076531915233  0.8350901192189255  1.0000
  O   O12       1.0  0.8368868126041916  0.16492165095754535  0.269718630901103  1.0000
  O   O13       1.0  0.3538860803697901  0.405659965102224  0.08628103040969394  1.0000
  O   O14       1.0  0.26762850076291794  0.913747057536789  0.31942208558680835  1.0000
  O   O15       1.0  0.9482221419888291  0.6806246910100813  0.5942360515335211  1.0000
  O   O16       1.0  0.646131750888479  0.5943586753209829  0.9137364017978059  1.0000
  O   O17       1.0  0.7323377263170483  0.08624158976091681  0.6805443574101062  1.0000
  O   O18       1.0  0.05176467471213906  0.31935021181473644  0.40574515330200006  1.0000
  O   O19       1.0  0.24801621007181748  0.24421817551281327  0.975727571442029  1.0000
  O   O20       1.0  0.272210685907126  0.02432174439491061  0.2685370425180977  1.0000
  O   O21       1.0  0.0036491384438620167  0.7313935692787795  0.755714778835227  1.0000
  O   O22       1.0  0.7520021201047198  0.7557917185605662  0.02432933845580007  1.0000
  O   O23       1.0  0.7277989702064931  0.9756819000720258  0.731452882301497  1.0000
  O   O24       1.0  0.9963235646550075  0.2685869563404638  0.24427374271792257  1.0000
  O   O25       1.0  0.12212151333489639  0.5792848889396113  0.4977406604191047  1.0000
  O   O26       1.0  0.6243566817552659  0.5021727083885567  0.08151932592129188  1.0000
  O   O27       1.0  0.5428544003742176  0.9184744894696666  0.42067947598768296  1.0000
  O   O28       1.0  0.8778712999554018  0.42071188224684164  0.5022541656596148  1.0000
  O   O29       1.0  0.37565286737886083  0.4978378091677912  0.918487458287018  1.0000
  O   O30       1.0  0.4571397244967556  0.08153477784797052  0.579323239238434  1.0000
  O   O31       1.0  0.16950410577928227  0.7112413052143582  0.6020359983767778  1.0000
  O   O32       1.0  0.567522437191485  0.3978582961077991  0.10915769977892609  1.0000
  O   O33       1.0  0.4581704506181906  0.8908284090654419  0.28873843086865486  1.0000
  O   O34       1.0  0.8304984882873894  0.28875109294591544  0.39796841778359493  1.0000
  O   O35       1.0  0.43249822271747007  0.6021603442956762  0.890853491152811  1.0000
  O   O36       1.0  0.5418203245875546  0.10916711248742673  0.711258106658228  1.0000
  O   O37       1.0  0.5250555196666867  0.9395430343756389  0.5692670635891801  1.0000
  O   O38       1.0  0.9557024747449249  0.43067325441070653  0.370305968259956  1.0000
  O   O39       1.0  0.5853539219589906  0.6297055423555167  0.06042767745429972  1.0000
  O   O40       1.0  0.4749242922261415  0.06046998085885491  0.43071863969215934  1.0000
  O   O41       1.0  0.044295453467583526  0.5693097712509214  0.6296791203987625  1.0000
  O   O42       1.0  0.41466805450471605  0.37031997099856545  0.9395907159754628  1.0000
  O   O43       1.0  0.5059471981202179  0.9243312255831029  0.6733291284395692  1.0000
  O   O44       1.0  0.8323536567847682  0.3266559000612475  0.2510813491346013  1.0000
  O   O45       1.0  0.5812838389384537  0.7489143369103887  0.0755359166567615  1.0000
  O   O46       1.0  0.4940669097372846  0.0756799167112234  0.3266662532237703  1.0000
  O   O47       1.0  0.1676208424762749  0.6733296240206744  0.7489084868688283  1.0000
  O   O48       1.0  0.41870425102914055  0.25109555502580605  0.9244689964292904  1.0000
