data_image0
_chemical_formula_structural       Cu2Mo2H20C30N6O8
_chemical_formula_sum              "Cu2 Mo2 H20 C30 N6 O8"
_cell_length_a       8.292282502906133
_cell_length_b       9.53397496766081
_cell_length_c       10.481592086089421
_cell_angle_alpha    63.36839088344195
_cell_angle_beta     72.53059555303268
_cell_angle_gamma    68.82976231303479

_space_group_name_H-M_alt    "P 1"
_space_group_IT_number       1

loop_
  _space_group_symop_operation_xyz
  'x, y, z'

loop_
  _atom_site_type_symbol
  _atom_site_label
  _atom_site_symmetry_multiplicity
  _atom_site_fract_x
  _atom_site_fract_y
  _atom_site_fract_z
  _atom_site_occupancy
  Cu  Cu1       1.0  0.8876912135457216  0.1429957642212187  0.675638285589649  1.0000
  Cu  Cu2       1.0  0.11230812472118859  0.8570013653856352  0.3243648358952454  1.0000
  Mo  Mo1       1.0  0.05974753302260889  0.24917223099222957  0.30014783174939186  1.0000
  Mo  Mo2       1.0  0.9402515594415489  0.7508212544029079  0.6998539725179072  1.0000
  H   H1        1.0  0.7205178519972435  0.0833351547818211  0.4847474941228569  1.0000
  H   H2        1.0  0.2794861761737338  0.9166631876992852  0.5152501870556705  1.0000
  H   H3        1.0  0.42352858120117526  0.2022884749058562  0.40175538848490067  1.0000
  H   H4        1.0  0.5764747433037627  0.7977123048554232  0.5982395603453127  1.0000
  H   H5        1.0  0.19154058358705578  0.39666217083082966  0.5028592459738518  1.0000
  H   H6        1.0  0.8084627348634258  0.6033386104515017  0.4971347496307176  1.0000
  H   H7        1.0  0.25909647113113005  0.47278609033567426  0.6778510098446091  1.0000
  H   H8        1.0  0.7409037439511648  0.5272122644553151  0.32214472249842874  1.0000
  H   H9        1.0  0.33576250256739826  0.4856114980914656  0.8562459610455591  1.0000
  H   H10       1.0  0.6642381006746162  0.5143856289331481  0.1437568568255188  1.0000
  H   H11       1.0  0.8021529772314577  0.40124133406567364  0.019935621934642635  1.0000
  H   H12       1.0  0.19784566947831186  0.5987582297792572  0.9800666736532191  1.0000
  H   H13       1.0  0.08236142439671568  0.2857121192074957  0.0005769581539495731  1.0000
  H   H14       1.0  0.9176370920649929  0.7142923135734307  0.9994214755747632  1.0000
  H   H15       1.0  0.37739458221987826  0.09042229097378399  0.009541625787974807  1.0000
  H   H16       1.0  0.6226030392630834  0.909580921186155  0.9904613374056481  1.0000
  H   H17       1.0  0.47438823735604524  0.9072645730887745  0.8647737867491471  1.0000
  H   H18       1.0  0.5256100817385131  0.0927362033120502  0.13523095556714543  1.0000
  H   H19       1.0  0.25812571204572543  0.9285050517971242  0.7307825759062823  1.0000
  H   H20       1.0  0.7418754706687237  0.0714945053622671  0.2692200656795976  1.0000
  C   C1        1.0  0.6130451767935126  0.1691958388642618  0.524261324468327  1.0000
  C   C2        1.0  0.3869581537658747  0.8308049393759659  0.47573457758753784  1.0000
  C   C3        1.0  0.44997682752156  0.23512062358511807  0.47943418020240347  1.0000
  C   C4        1.0  0.5500290269335935  0.7648801510116742  0.5205601614001762  1.0000
  C   C5        1.0  0.3206799087193063  0.34562444086380845  0.5347525170831418  1.0000
  C   C6        1.0  0.6793256060117299  0.6543775493309669  0.4652423647965733  1.0000
  C   C7        1.0  0.35784168629919577  0.3876857745457303  0.6320949917325364  1.0000
  C   C8        1.0  0.6421591082555196  0.612315010380037  0.3679005643253107  1.0000
  C   C9        1.0  0.5240735910933976  0.3176699218069245  0.6716076640050446  1.0000
  C   C10       1.0  0.4759275674032466  0.6823296414366596  0.3283911646782514  1.0000
  C   C11       1.0  0.5817736799978164  0.3529283931360681  0.7714634681248711  1.0000
  C   C12       1.0  0.41822657141118197  0.6470699525286251  0.2285379835720461  1.0000
  C   C13       1.0  0.47630457324235914  0.43752195677713257  0.8597220342105912  1.0000
  C   C14       1.0  0.5236956781666464  0.5624763888875677  0.14027941748632605  1.0000
  C   C15       1.0  0.5537815858826605  0.4570592358064476  0.9512485653995169  1.0000
  C   C16       1.0  0.446219924447  0.5429391087970572  0.048751629457932155  1.0000
  C   C17       1.0  0.7353019070964065  0.3903795450206645  0.9508888725422011  1.0000
  C   C18       1.0  0.26469638778034715  0.6096212374643459  0.04911205687150742  1.0000
  C   C19       1.0  0.831491408343197  0.30290779338580626  0.863499975400714  1.0000
  C   C20       1.0  0.16850779967564475  0.6970942051570435  0.13649928422502455  1.0000
  C   C21       1.0  0.014740144098453794  0.2055264229773925  0.8659174943995253  1.0000
  C   C22       1.0  0.9852596433928084  0.794478005700242  0.13408158894101532  1.0000
  C   C23       1.0  0.12545319158336812  0.20242800181744514  0.9446575151317304  1.0000
  C   C24       1.0  0.8745433865094371  0.7975788632206503  0.05534325599071372  1.0000
  C   C25       1.0  0.2915720629329286  0.09348573973147721  0.9471184187361742  1.0000
  C   C26       1.0  0.7084255464411341  0.9065174754705653  0.05288263800615312  1.0000
  C   C27       1.0  0.3445929170307092  0.9928435420469987  0.8698216949606205  1.0000
  C   C28       1.0  0.6554066549300541  0.007157234813675504  0.1301808372905668  1.0000
  C   C29       1.0  0.22714256880774997  0.004716997896572701  0.7918551377795707  1.0000
  C   C30       1.0  0.7728582620736761  0.9952837779029053  0.2081461376321486  1.0000
  N   N1        1.0  0.648990949064057  0.20972590470201172  0.6178126764606091  1.0000
  N   N2        1.0  0.3510098636540134  0.7902748756606145  0.38218573927417754  1.0000
  N   N3        1.0  0.7543584503143067  0.2885825848256617  0.7756397493889294  1.0000
  N   N4        1.0  0.24564076981343413  0.7114194106750987  0.2243614166880973  1.0000
  N   N5        1.0  0.0670893889624296  0.10784934850940434  0.7903678999017316  1.0000
  N   N6        1.0  0.9329098190564121  0.8921526500334453  0.20963135972400684  1.0000
  O   O1        1.0  0.009289012219184701  0.28735219215889174  0.4616185564150115  1.0000
  O   O2        1.0  0.9907189411251877  0.7126412736394914  0.5383820757812214  1.0000
  O   O3        1.0  0.2837568576310969  0.2309033869503808  0.2264846663558799  1.0000
  O   O4        1.0  0.7162376999149839  0.769092552597954  0.7735095970506833  1.0000
  O   O5        1.0  0.9284821423925962  0.4112841786944018  0.1745590464642817  1.0000
  O   O6        1.0  0.071509378384249  0.5887093176310574  0.8254474391628575  1.0000
  O   O7        1.0  0.9941916169799611  0.9365234676836992  0.6586256011514064  1.0000
  O   O8        1.0  0.005800285902168398  0.06346880239643582  0.3413870167781141  1.0000
