data_image0
_chemical_formula_structural       Ag4H20C12N8O8
_chemical_formula_sum              "Ag4 H20 C12 N8 O8"
_cell_length_a       4.765513173000603
_cell_length_b       9.021083332001073
_cell_length_c       11.52445127
_cell_angle_alpha    89.9999984983787
_cell_angle_beta     89.99998939480126
_cell_angle_gamma    90.0000546101063

_space_group_name_H-M_alt    "P 1"
_space_group_IT_number       1

loop_
  _space_group_symop_operation_xyz
  'x, y, z'

loop_
  _atom_site_type_symbol
  _atom_site_label
  _atom_site_symmetry_multiplicity
  _atom_site_fract_x
  _atom_site_fract_y
  _atom_site_fract_z
  _atom_site_occupancy
  Ag  Ag1       1.0  0.5276266054025599  0.34732094618250636  0.5432327568157688  1.0000
  Ag  Ag2       1.0  0.5276268863947066  0.6526822752458018  0.45676615981056284  1.0000
  Ag  Ag3       1.0  0.4723647988958035  0.15267801005497006  0.0432341224014579  1.0000
  Ag  Ag4       1.0  0.472365443695331  0.8473218586072305  0.956770009101163  1.0000
  H   H1        1.0  0.09737697533357449  0.28271330133591727  0.7092597854922643  1.0000
  H   H2        1.0  0.09738576737634469  0.7172852740860449  0.29074006545699393  1.0000
  H   H3        1.0  0.9026207258667612  0.2172856566699295  0.20926108140210428  1.0000
  H   H4        1.0  0.9026233483154441  0.7827133154327158  0.7907386448948512  1.0000
  H   H5        1.0  0.2669685148809294  0.4448335623321428  0.863846738273352  1.0000
  H   H6        1.0  0.26696651448810366  0.5551628796033371  0.13614961554271326  1.0000
  H   H7        1.0  0.7330249910556502  0.055164288803425186  0.363848068145522  1.0000
  H   H8        1.0  0.7330300091882692  0.9448368167815672  0.6361551552859266  1.0000
  H   H9        1.0  0.9220963508694383  0.5204011445863372  0.8850711236423263  1.0000
  H   H10       1.0  0.9220879157470845  0.479598945622051  0.11492773192033207  1.0000
  H   H11       1.0  0.07789807689812991  0.9795919033611112  0.3850734024672349  1.0000
  H   H12       1.0  0.07790558769352882  0.020411096522039405  0.6149290546581978  1.0000
  H   H13       1.0  0.6989913254418809  0.5355844092314896  0.7049697238860018  1.0000
  H   H14       1.0  0.6989912577876255  0.46441667958643507  0.2950291662129274  1.0000
  H   H15       1.0  0.30101988780000966  0.9644186134323365  0.20497457205522804  1.0000
  H   H16       1.0  0.301021133144843  0.03558117082143039  0.7950269828109453  1.0000
  H   H17       1.0  0.9738976798312322  0.5026150437748598  0.6210247087596696  1.0000
  H   H18       1.0  0.97389767379115  0.4973839634398588  0.37897500650372246  1.0000
  H   H19       1.0  0.0261072373272597  0.9973791098795673  0.12102612703662875  1.0000
  H   H20       1.0  0.0261063243513746  0.0026183219165361  0.8789754703866066  1.0000
  C   C1        1.0  0.9338053201672807  0.3497797320867946  0.7517537163577258  1.0000
  C   C2        1.0  0.9338076929340031  0.6502203638923804  0.24824600511180248  1.0000
  C   C3        1.0  0.0661986766928067  0.15022144340144913  0.2517568803768384  1.0000
  C   C4        1.0  0.066201422330785  0.8497793336884883  0.7482438431195532  1.0000
  C   C5        1.0  0.04223508706294151  0.41963697662001215  0.8631525800486768  1.0000
  C   C6        1.0  0.0422331331225081  0.5803615716351019  0.13684814715772117  1.0000
  C   C7        1.0  0.9577584188645929  0.080358657479529  0.36315127077293136  1.0000
  C   C8        1.0  0.9577528985165104  0.9196436673261914  0.6368484469891837  1.0000
  C   C9        1.0  0.7119886074413416  0.2433013352918891  0.8003399972935622  1.0000
  C   C10       1.0  0.7119869791684651  0.7567030854713722  0.1996597585136897  1.0000
  C   C11       1.0  0.28800699626752657  0.25669873219701606  0.30034312191267526  1.0000
  C   C12       1.0  0.28800744673972645  0.7432988286174691  0.6996593026882961  1.0000
  N   N1        1.0  0.8151844004942178  0.4515025184228278  0.66584334207036  1.0000
  N   N2        1.0  0.8151844882174828  0.5484986276346006  0.33415466232144536  1.0000
  N   N3        1.0  0.1848216939094272  0.0484975476373819  0.16584649256369488  1.0000
  N   N4        1.0  0.18482462791159548  0.9514999623461762  0.8341542125697642  1.0000
  N   N5        1.0  0.7495186507542897  0.2235099305783379  0.9134646868256197  1.0000
  N   N6        1.0  0.7495212546401078  0.7764922916455104  0.08653246001084368  1.0000
  N   N7        1.0  0.2504832493227127  0.2764890296016845  0.4134756257953212  1.0000
  N   N8        1.0  0.25047946535929805  0.72351072975529  0.5865250691741081  1.0000
  O   O1        1.0  0.5238996790306985  0.1830668378475551  0.738404743371454  1.0000
  O   O2        1.0  0.5239149496865565  0.8169363817484836  0.2615967769914747  1.0000
  O   O3        1.0  0.4761043176898028  0.316928794927037  0.23840262968776213  1.0000
  O   O4        1.0  0.4761025593574005  0.68306885854809  0.7615945594740336  1.0000
  O   O5        1.0  0.9935155357058179  0.3074123307803732  0.95130334388174  1.0000
  O   O6        1.0  0.9935158861441095  0.6925855775843387  0.04869463290423678  1.0000
  O   O7        1.0  0.0064737742898302  0.19258330425623882  0.4513065151307244  1.0000
  O   O8        1.0  0.0064743414267809  0.8074196604398837  0.5486942176112705  1.0000
