data_image0
_chemical_formula_structural       Ni2H12C16N4O8
_chemical_formula_sum              "Ni2 H12 C16 N4 O8"
_cell_length_a       6.8742741441349375
_cell_length_b       7.155983853354859
_cell_length_c       8.621151012362805
_cell_angle_alpha    90.00092484661512
_cell_angle_beta     112.84209950396826
_cell_angle_gamma    89.99903337414388

_space_group_name_H-M_alt    "P 1"
_space_group_IT_number       1

loop_
  _space_group_symop_operation_xyz
  'x, y, z'

loop_
  _atom_site_type_symbol
  _atom_site_label
  _atom_site_symmetry_multiplicity
  _atom_site_fract_x
  _atom_site_fract_y
  _atom_site_fract_z
  _atom_site_occupancy
  Ni  Ni1       1.0  0.4999990012784109  8.175803500999991e-07  0.5000004934064748  1.0000
  Ni  Ni2       1.0  0.5000038268861786  0.4999998954421728  9.344215363356833e-08  1.0000
  H   H1        1.0  0.006907064190464499  0.45302303386556986  0.37369524411911925  1.0000
  H   H2        1.0  0.9930898858330081  0.9530180131516561  0.12630381396714094  1.0000
  H   H3        1.0  0.9930923480818165  0.5469808577193477  0.6263059811959122  1.0000
  H   H4        1.0  0.006912715844798402  0.04697609636038182  0.8736949346742688  1.0000
  H   H5        1.0  0.15779359965583947  0.3269823507332603  0.28146284671612415  1.0000
  H   H6        1.0  0.8422144066610214  0.8269773560954548  0.21854494636205865  1.0000
  H   H7        1.0  0.8422073910571226  0.6730229382756434  0.718538875136751  1.0000
  H   H8        1.0  0.15779290872925597  0.1730181508473478  0.7814576050065793  1.0000
  H   H9        1.0  0.27552086017416844  0.38494755567788286  0.4957102517437874  1.0000
  H   H10       1.0  0.7244737486834937  0.8849431003615323  0.004295269968388048  1.0000
  H   H11       1.0  0.7244848442512648  0.6150591307617789  0.5042952728363089  1.0000
  H   H12       1.0  0.2755240960077855  0.11505240662868495  0.9957043022125871  1.0000
  C   C1        1.0  0.8456720500068471  0.12144385253099442  0.4181303629843924  1.0000
  C   C2        1.0  0.1543322799089566  0.6214417015206096  0.08187929670398117  1.0000
  C   C3        1.0  0.15432734063755763  0.8785600390765114  0.581873175457474  1.0000
  C   C4        1.0  0.8456639863324894  0.3785538054775158  0.9181197789457086  1.0000
  C   C5        1.0  0.055857929511610394  0.1635201389532384  0.4426310611843646  1.0000
  C   C6        1.0  0.944136367932856  0.6635145709446136  0.057377170978185246  1.0000
  C   C7        1.0  0.9441335472648972  0.8364823552844954  0.5573723077213799  1.0000
  C   C8        1.0  0.055863055208256185  0.33648093603770224  0.9426228977340612  1.0000
  C   C9        1.0  0.6564019620474255  0.23391662037454353  0.30853897741054226  1.0000
  C   C10       1.0  0.3435930677090652  0.7339121466611404  0.19146231639782474  1.0000
  C   C11       1.0  0.3435927797223782  0.7660928608938562  0.691453818956404  1.0000
  C   C12       1.0  0.6564127016548937  0.26608615511945294  0.8085362687624097  1.0000
  C   C13       1.0  0.12561189981394696  0.34411343470198114  0.3954628297197046  1.0000
  C   C14       1.0  0.8743832220514419  0.8441210840544074  0.10454462172612716  1.0000
  C   C15       1.0  0.8743859016215865  0.6558820723334193  0.6045413687149263  1.0000
  C   C16       1.0  0.1256162010530701  0.15588001265545165  0.8954554470123666  1.0000
  N   N1        1.0  0.7942273039399976  0.9642513969764793  0.47889710510424505  1.0000
  N   N2        1.0  0.20577582364519734  0.4642491752451505  0.02110288799602239  1.0000
  N   N3        1.0  0.20577210833228318  0.0357524946084382  0.5211041202107864  1.0000
  N   N4        1.0  0.7942236211054947  0.5357491265783453  0.9788948676025129  1.0000
  O   O1        1.0  0.48566049403267897  0.20773870900377742  0.3294041584850405  1.0000
  O   O2        1.0  0.5143412030608943  0.7077450544602684  0.17059771911394958  1.0000
  O   O3        1.0  0.5143405183173044  0.7922651825506506  0.6705952502344344  1.0000
  O   O4        1.0  0.48565984174005916  0.29225743962839357  0.829398219908718  1.0000
  O   O5        1.0  0.6826474648907065  0.3346142741713082  0.19746194325195174  1.0000
  O   O6        1.0  0.31734775986302577  0.8346025940918266  0.30254773202874213  1.0000
  O   O7        1.0  0.3173439578527136  0.6653826303953565  0.802547208444622  1.0000
  O   O8        1.0  0.6826548958478681  0.1653971050912801  0.6974452338218383  1.0000
