data_image0
_chemical_formula_structural       Zn2H12C34N8O16
_chemical_formula_sum              "Zn2 H12 C34 N8 O16"
_cell_length_a       14.862463097956853
_cell_length_b       16.156726986430826
_cell_length_c       17.247446163779447
_cell_angle_alpha    88.93144346914016
_cell_angle_beta     85.57880064455088
_cell_angle_gamma    89.22933154078308

_space_group_name_H-M_alt    "P 1"
_space_group_IT_number       1

loop_
  _space_group_symop_operation_xyz
  'x, y, z'

loop_
  _atom_site_type_symbol
  _atom_site_label
  _atom_site_symmetry_multiplicity
  _atom_site_fract_x
  _atom_site_fract_y
  _atom_site_fract_z
  _atom_site_occupancy
  Zn  Zn1       1.0  0.5941015741641565  0.49781292952913253  0.5005736133469867  1.0000
  Zn  Zn2       1.0  0.4058983522992747  0.5021893000075649  0.4994269706265584  1.0000
  H   H1        1.0  0.5882894858265858  0.577507046186085  0.7423225257041679  1.0000
  H   H2        1.0  0.41169962500769236  0.42249825442697647  0.2576800759763601  1.0000
  H   H3        1.0  0.5843217523547537  0.5779357791827804  0.8881707922047399  1.0000
  H   H4        1.0  0.4156673989231551  0.4220658139965821  0.11183125319752213  1.0000
  H   H5        1.0  0.6463724018287353  0.5815674586789754  0.09985656130571391  1.0000
  H   H6        1.0  0.35363251785854294  0.4184155848301572  0.9001437556949271  1.0000
  H   H7        1.0  0.6462964806226171  0.9224365464754669  0.49175324079614313  1.0000
  H   H8        1.0  0.3537007350760319  0.07756568732762759  0.5082469838293735  1.0000
  H   H9        1.0  0.6446090465400475  0.0767809812077616  0.49196379297008985  1.0000
  H   H10       1.0  0.355388145494203  0.9232212663439725  0.5080352736422995  1.0000
  H   H11       1.0  0.09987290847267621  0.5672375953147577  0.39494271862159996  1.0000
  H   H12       1.0  0.9001278128733576  0.43276026714298155  0.6050607319864697  1.0000
  C   C1        1.0  0.5001791330640799  0.6605447039815148  0.4989612360742656  1.0000
  C   C2        1.0  0.4998234686675432  0.33945754191173444  0.5010379702276284  1.0000
  C   C3        1.0  0.5162880708945041  0.5028376555694862  0.3482070833970923  1.0000
  C   C4        1.0  0.4837092057926214  0.4971602448742587  0.6517931677447637  1.0000
  C   C5        1.0  0.5230736234358417  0.5048691785008825  0.26077744926845986  1.0000
  C   C6        1.0  0.476923723598425  0.4951262251145677  0.7392245540452791  1.0000
  C   C7        1.0  0.461784198715364  0.4580868301520837  0.22217091851248946  1.0000
  C   C8        1.0  0.5382103410690605  0.5419129317120693  0.7778289619171873  1.0000
  C   C9        1.0  0.46390323920046944  0.45752721299459154  0.14167382252492902  1.0000
  C   C10       1.0  0.536091347266705  0.5424700657898996  0.8583266520635038  1.0000
  C   C11       1.0  0.5292546596304677  0.5041172341930319  0.09726219862085368  1.0000
  C   C12       1.0  0.47074542366047484  0.49587385241961357  0.9027384535375731  1.0000
  C   C13       1.0  0.5943442215362895  0.5472821288117019  0.1343029704975578  1.0000
  C   C14       1.0  0.405657953181681  0.45270585075157044  0.8656986938703427  1.0000
  C   C15       1.0  0.5891542474667946  0.5484770360863678  0.21504478459800677  1.0000
  C   C16       1.0  0.41085064672859783  0.45151032015916565  0.784957242905975  1.0000
  C   C17       1.0  0.5816378450312671  0.042661202061467  0.4954695011924672  1.0000
  C   C18       1.0  0.4183593793800214  0.9573404126902929  0.504530727221095  1.0000
  C   C19       1.0  0.4990673641328059  0.0872701590520606  0.500035393696912  1.0000
  C   C20       1.0  0.500930526298987  0.9127320754030135  0.49996477601396816  1.0000
  C   C21       1.0  0.41740749016652506  0.043165067917613  0.5045418494976772  1.0000
  C   C22       1.0  0.5825897255321238  0.9568371658854813  0.49545837512783214  1.0000
  C   C23       1.0  0.49845197054614954  0.1748474560638371  0.5002727569158837  1.0000
  C   C24       1.0  0.5015451859915245  0.8251548121108454  0.4997245726768185  1.0000
  C   C25       1.0  0.5014243063505646  0.7497530788328816  0.49925106718898615  1.0000
  C   C26       1.0  0.4985769427952108  0.2502485535793965  0.5007476737236659  1.0000
  C   C27       1.0  0.9640663373761315  0.542112892586033  0.43877789597992495  1.0000
  C   C28       1.0  0.03593368869191951  0.4578855951453775  0.5612250267481615  1.0000
  C   C29       1.0  0.9057209620441  0.5048277722234714  0.4969018802810227  1.0000
  C   C30       1.0  0.09427903476647263  0.49517196048493156  0.5031004558644057  1.0000
  C   C31       1.0  0.943044281599697  0.46228874900491235  0.5588130966550295  1.0000
  C   C32       1.0  0.056955735755714415  0.5377103577778399  0.4411898222850113  1.0000
  C   C33       1.0  0.8100909208909571  0.5061536103105125  0.49555250314293187  1.0000
  C   C34       1.0  0.18990974505967978  0.49384735427822324  0.5044503495183292  1.0000
  N   N1        1.0  0.5348274031812822  0.5119163343120691  0.01538642187005481  1.0000
  N   N2        1.0  0.46517199666386944  0.48807537069993867  0.9846142814149488  1.0000
  N   N3        1.0  0.2677535480586287  0.5004332523325556  0.49858659281090917  1.0000
  N   N4        1.0  0.7322457123842908  0.49956835750082706  0.5014140498653177  1.0000
  N   N5        1.0  0.6533180359949003  0.6028641629827546  0.25044689893115907  1.0000
  N   N6        1.0  0.3466936397364933  0.3971182679948484  0.7495528727112132  1.0000
  N   N7        1.0  0.9268176264056863  0.588881305588842  0.373188568913136  1.0000
  N   N8        1.0  0.07318373417690081  0.411116578143826  0.62681308976061  1.0000
  O   O1        1.0  0.5761708008404298  0.6232496966384815  0.5008275708159788  1.0000
  O   O2        1.0  0.4238317448497711  0.37675319580337424  0.49916931567162254  1.0000
  O   O3        1.0  0.422943258514458  0.6273684448852278  0.49734448250328717  1.0000
  O   O4        1.0  0.5770594079712269  0.3726325354080798  0.5026570474009519  1.0000
  O   O5        1.0  0.5895948729763917  0.4978098290569548  0.38123166294960953  1.0000
  O   O6        1.0  0.4104031195335482  0.5021868201874611  0.6187696988668352  1.0000
  O   O7        1.0  0.4365091809582183  0.5039005720565581  0.3803688781354283  1.0000
  O   O8        1.0  0.5634873656003593  0.49610042986620306  0.6196308299742557  1.0000
  O   O9        1.0  0.7338919495747477  0.5961414962627103  0.2265375517714858  1.0000
  O   O10       1.0  0.6214865185900108  0.6529705844118253  0.29869808962089917  1.0000
  O   O11       1.0  0.2661207164828952  0.40382601626594555  0.7734674669284801  1.0000
  O   O12       1.0  0.3785309190936488  0.347023084723773  0.7012935925196118  1.0000
  O   O13       1.0  0.9776482675545141  0.5982815550020106  0.3137503992818154  1.0000
  O   O14       1.0  0.8485270451109771  0.6147988273781735  0.3846819152440234  1.0000
  O   O15       1.0  0.02235046250454791  0.4017064625472742  0.6862480656198642  1.0000
  O   O16       1.0  0.1514783160062763  0.3852082979161935  0.615323410167136  1.0000
