data_image0
_chemical_formula_structural       Zn2H28C44N4O18
_chemical_formula_sum              "Zn2 H28 C44 N4 O18"
_cell_length_a       9.751940556663893
_cell_length_b       10.170120694661115
_cell_length_c       11.284513310963549
_cell_angle_alpha    87.12317363740696
_cell_angle_beta     72.00805187798848
_cell_angle_gamma    64.69693805040504

_space_group_name_H-M_alt    "P 1"
_space_group_IT_number       1

loop_
  _space_group_symop_operation_xyz
  'x, y, z'

loop_
  _atom_site_type_symbol
  _atom_site_label
  _atom_site_symmetry_multiplicity
  _atom_site_fract_x
  _atom_site_fract_y
  _atom_site_fract_z
  _atom_site_occupancy
  Zn  Zn1       1.0  0.5308526294538967  0.6438876866506648  0.7602922666017803  1.0000
  Zn  Zn2       1.0  0.4691458751600023  0.3561125070092572  0.2397068907052144  1.0000
  H   H1        1.0  0.1958303086304626  0.8320364969991231  0.9703216509918279  1.0000
  H   H2        1.0  0.8041671125139301  0.16796369937355854  0.029678678255599826  1.0000
  H   H3        1.0  0.063049430449027  0.0829500913163486  0.0815935239421464  1.0000
  H   H4        1.0  0.9369480542402541  0.9170522890772264  0.918403149091354  1.0000
  H   H5        1.0  0.20735054287947463  0.24327557261379704  0.0283073099422921  1.0000
  H   H6        1.0  0.7926480177127929  0.7567268040084725  0.9716899655462897  1.0000
  H   H7        1.0  0.4593484613285172  0.26851736761180683  0.9095908117279095  1.0000
  H   H8        1.0  0.540652154246004  0.7314806376602262  0.09040788351664023  1.0000
  H   H9        1.0  0.7334296750109603  0.15869876652242706  0.7580860995899742  1.0000
  H   H10       1.0  0.26657092921379905  0.8412992371617988  0.24191525724784668  1.0000
  H   H11       1.0  0.9612487119625331  0.9435904379545332  0.6104979634468323  1.0000
  H   H12       1.0  0.03875297951498171  0.056407563546194694  0.389501334252806  1.0000
  H   H13       1.0  0.06198604449771495  0.6908695465550778  0.5122881239434349  1.0000
  H   H14       1.0  0.9380166744709225  0.3091262692705286  0.4877118836341837  1.0000
  H   H15       1.0  0.877829880379885  0.5659015022886748  0.5680474571679923  1.0000
  H   H16       1.0  0.12217015979582171  0.4340954120646642  0.4319540957526087  1.0000
  H   H17       1.0  0.6622553310608195  0.7521886758757786  0.38820059933593143  1.0000
  H   H18       1.0  0.3377448914125979  0.24781696450502005  0.6118031854863942  1.0000
  H   H19       1.0  0.995240794473084  0.2476338028358995  0.7786451814610941  1.0000
  H   H20       1.0  0.004759458266356353  0.7523718417790377  0.221351505779154  1.0000
  H   H21       1.0  0.024476976830982437  0.5044029439072443  0.7750252603537149  1.0000
  H   H22       1.0  0.975520963733857  0.49559616042178317  0.22497409303606014  1.0000
  H   H23       1.0  0.6686388478161405  0.3999722993387492  0.3468255629739829  1.0000
  H   H24       1.0  0.33135748985876035  0.6000278997467062  0.6531759382138703  1.0000
  H   H25       1.0  0.735657460435668  0.38120529070751263  0.7302262972575875  1.0000
  H   H26       1.0  0.26434263571841393  0.6187938066081743  0.2697733738446074  1.0000
  H   H27       1.0  0.6759427199040005  0.37376238653299504  0.6126947331715158  1.0000
  H   H28       1.0  0.3240595394058232  0.626236704827889  0.38730348124758507  1.0000
  C   C1        1.0  0.2524282038758656  0.9060265498355095  0.9471607176619584  1.0000
  C   C2        1.0  0.7475708685703354  0.09397473368456129  0.05283735636449892  1.0000
  C   C3        1.0  0.179126221139164  0.04712385042451929  0.00919384543905722  1.0000
  C   C4        1.0  0.820873370727483  0.952876341051898  0.9908032527297549  1.0000
  C   C5        1.0  0.2590444002383592  0.13452481384203446  0.9803956361074668  1.0000
  C   C6        1.0  0.7409551954115444  0.8654753781636514  0.019600574863581157  1.0000
  C   C7        1.0  0.5080291262593661  0.16068923286264436  0.8603129257183255  1.0000
  C   C8        1.0  0.4919709698947088  0.8393098644530425  0.13968674538386952  1.0000
  C   C9        1.0  0.6596831441815425  0.09981237180354438  0.7773244950939144  1.0000
  C   C10       1.0  0.3403185472959721  0.9001856296971839  0.22267480260572373  1.0000
  C   C11       1.0  0.8847347942610921  0.8870237486547975  0.6311617144955832  1.0000
  C   C12       1.0  0.11526524969787028  0.11297316622781041  0.36883895122726074  1.0000
  C   C13       1.0  0.9411112770807859  0.7467114472441309  0.5773631867857462  1.0000
  C   C14       1.0  0.05888824745773039  0.25328655968213104  0.4226384547947504  1.0000
  C   C15       1.0  0.8402034067975775  0.676065601052052  0.6080526457585478  1.0000
  C   C16       1.0  0.15979560210374905  0.3239334984471398  0.39194908448183713  1.0000
  C   C17       1.0  0.4131287826819943  0.08075113029779858  0.8906533495771781  1.0000
  C   C18       1.0  0.5868713134720877  0.9192479670178881  0.10934632152502392  1.0000
  C   C19       1.0  0.7276706748019138  0.955952886876453  0.7159745009573728  1.0000
  C   C20       1.0  0.2723299332061018  0.04404511733704201  0.2840259686826911  1.0000
  C   C21       1.0  0.4771138183798128  0.9373987236458845  0.8325608640966068  1.0000
  C   C22       1.0  0.5228862739910128  0.06260037314054047  0.16743969420334537  1.0000
  C   C23       1.0  0.635632530259734  0.8751842222149051  0.7427174397368788  1.0000
  C   C24       1.0  0.36436756211109167  0.12481487457151268  0.2572831185630733  1.0000
  C   C25       1.0  0.5901909994235979  0.8608650860142575  0.4379853085826396  1.0000
  C   C26       1.0  0.4098134820331794  0.13913835790677348  0.5620201062851748  1.0000
  C   C27       1.0  0.4384254442492478  0.8945177334091808  0.5225315126300744  1.0000
  C   C28       1.0  0.5615779280256775  0.10548353449641472  0.47746985841450135  1.0000
  C   C29       1.0  0.3802225843106157  0.7769534956521014  0.5358300715207918  1.0000
  C   C30       1.0  0.6197796522996909  0.22304559253317538  0.46417346608486554  1.0000
  C   C31       1.0  0.34698882356859434  0.0359609564242049  0.5851834799523418  1.0000
  C   C32       1.0  0.6530198427473195  0.9640359304050392  0.4148184566201891  1.0000
  C   C33       1.0  0.18363939370953372  0.07678260808266658  0.6760340761352027  1.0000
  C   C34       1.0  0.8163690663566642  0.923228465388739  0.32396286857108686  1.0000
  C   C35       1.0  0.7717180045838745  0.4613394215219414  0.9036593817287581  1.0000
  C   C36       1.0  0.2282820469415868  0.5386574944191977  0.09633950959856453  1.0000
  C   C37       1.0  0.8886973521095669  0.4768277409750111  0.9578237700339259  1.0000
  C   C38       1.0  0.11129898934858316  0.5231724586397135  0.04217684395616321  1.0000
  C   C39       1.0  0.012927807295874208  0.5014497338337944  0.8740726002564898  1.0000
  C   C40       1.0  0.9870701332689577  0.4985493704952333  0.12592675313328533  1.0000
  C   C41       1.0  0.8764288143082339  0.475315995098306  0.08551847517082214  1.0000
  C   C42       1.0  0.12356644746367358  0.5246842077584475  0.9144824235619354  1.0000
  C   C43       1.0  0.7495515011218712  0.4442821657212406  0.17732249151413274  1.0000
  C   C44       1.0  0.250450238767506  0.5557180176833045  0.8226766987626206  1.0000
  N   N1        1.0  0.396276154403445  0.8536348880686687  0.8608711772341024  1.0000
  N   N2        1.0  0.6037239379673808  0.146364208717749  0.13912938106584954  1.0000
  N   N3        1.0  0.6924878402461371  0.7383847926937221  0.6884443396012045  1.0000
  N   N4        1.0  0.30751219614631264  0.2616121211303478  0.3115581005171534  1.0000
  O   O1        1.0  0.42440995096530554  0.6792629681853128  0.6116675786859602  1.0000
  O   O2        1.0  0.5755922969947561  0.320736121587764  0.3883332973264118  1.0000
  O   O3        1.0  0.6487165181659549  0.5762397697683141  0.9067370741411906  1.0000
  O   O4        1.0  0.35128023832239563  0.4237549729365853  0.09326455323254375  1.0000
  O   O5        1.0  0.6572194606458837  0.414656033531557  0.1395411740431669  1.0000
  O   O6        1.0  0.3427774448613193  0.5853452554140545  0.8604592438641491  1.0000
  O   O7        1.0  0.8144399204129585  0.33689675263609326  0.8473341791399845  1.0000
  O   O8        1.0  0.1855606951615627  0.6631012526359399  0.15266451610456502  1.0000
  O   O9        1.0  0.3049654017893176  0.7717846806393067  0.4659645407069846  1.0000
  O   O10       1.0  0.6950342944675755  0.2282198757032815  0.5340305682205297  1.0000
  O   O11       1.0  0.11050379730434662  0.21694425716264473  0.7203269164557469  1.0000
  O   O12       1.0  0.8894974867094662  0.7830592023064396  0.27966959346472464  1.0000
  O   O13       1.0  0.12459924113198886  0.9894763427323667  0.70592122014979  1.0000
  O   O14       1.0  0.875397604613596  0.010522762721620898  0.2940819667736889  1.0000
  O   O15       1.0  0.7456768836906205  0.4475887445054951  0.2943631977757803  1.0000
  O   O16       1.0  0.2543222296009518  0.5524147198598612  0.7056365432233065  1.0000
  O   O17       1.0  0.6910544264112559  0.43925000811287174  0.665677315766729  1.0000
  O   O18       1.0  0.3089451503223799  0.5607501812464761  0.3343233311931115  1.0000
