data_image0
_chemical_formula_structural       Na2H16C16S2N2O14
_chemical_formula_sum              "Na2 H16 C16 S2 N2 O14"
_cell_length_a       7.287023628611879
_cell_length_b       8.030229257628202
_cell_length_c       10.657392565447008
_cell_angle_alpha    86.89784428275881
_cell_angle_beta     80.38885455204343
_cell_angle_gamma    65.4495342156486

_space_group_name_H-M_alt    "P 1"
_space_group_IT_number       1

loop_
  _space_group_symop_operation_xyz
  'x, y, z'

loop_
  _atom_site_type_symbol
  _atom_site_label
  _atom_site_symmetry_multiplicity
  _atom_site_fract_x
  _atom_site_fract_y
  _atom_site_fract_z
  _atom_site_occupancy
  Na  Na1       1.0  0.6213870224281168  0.5689007830216398  0.10722164643568986  1.0000
  Na  Na2       1.0  0.3786212119597963  0.431097953294895  0.8927790295788892  1.0000
  H   H1        1.0  0.20641339846337575  0.8822839442328956  0.16900215733164706  1.0000
  H   H2        1.0  0.7935887804707491  0.11771889208979763  0.8309962163618391  1.0000
  H   H3        1.0  0.3915292687054048  0.9271753288066479  0.1924201797537463  1.0000
  H   H4        1.0  0.6084721375599074  0.0728261357852702  0.8075774102311043  1.0000
  H   H5        1.0  0.006929943196411218  0.2860649562365012  0.0080993731957335  1.0000
  H   H6        1.0  0.9930682234930475  0.7139283429058383  0.9918999171660584  1.0000
  H   H7        1.0  0.9094336161193084  0.18783166443569851  0.11492173464741731  1.0000
  H   H8        1.0  0.09057075535469039  0.8121602444289736  0.8850778363511009  1.0000
  H   H9        1.0  0.946558051116142  0.655389554462488  0.8036851736203372  1.0000
  H   H10       1.0  0.05344691854121918  0.34461325572022633  0.1963119376950145  1.0000
  H   H11       1.0  0.5392540637870128  0.7588892776304733  0.39855137842330624  1.0000
  H   H12       1.0  0.4607265370187152  0.2411273892592477  0.6014535507700953  1.0000
  H   H13       1.0  0.08552991642455515  0.858889928314973  0.36332436625152537  1.0000
  H   H14       1.0  0.9144683994522611  0.14110607015517473  0.6366719645835274  1.0000
  H   H15       1.0  0.13192363557310938  0.7557782786016106  0.58489413635656  1.0000
  H   H16       1.0  0.8680783933132974  0.24422179598919772  0.4151015698093941  1.0000
  C   C1        1.0  0.6890697164168957  0.6053308745936762  0.7795178973633837  1.0000
  C   C2        1.0  0.3109357271043864  0.39466787746215465  0.22048310318695025  1.0000
  C   C3        1.0  0.579304347222241  0.6321419979915178  0.6607862367402074  1.0000
  C   C4        1.0  0.42070837341765355  0.3678622277791704  0.3392183496834207  1.0000
  C   C5        1.0  0.6941576161127117  0.702006602671773  0.5624770682858153  1.0000
  C   C6        1.0  0.3058450363985443  0.2979921547226779  0.4375233189578933  1.0000
  C   C7        1.0  0.6670949716416246  0.7595253603666664  0.438899639214945  1.0000
  C   C8        1.0  0.33289960779160316  0.24047892610673224  0.5611033053215805  1.0000
  C   C9        1.0  0.8092511393154284  0.818701864385723  0.36890613203502187  1.0000
  C   C10       1.0  0.19074314016576474  0.1812969090245815  0.6310924152888118  1.0000
  C   C11       1.0  0.9745152732447269  0.8166192699641004  0.4210167336599682  1.0000
  C   C12       1.0  0.025486780366208  0.18336853410890802  0.5789814240550155  1.0000
  C   C13       1.0  0.0013287616618881531  0.7597761607977278  0.5457287099546163  1.0000
  C   C14       1.0  0.9986724948424879  0.2402225628636572  0.45426808818746167  1.0000
  C   C15       1.0  0.8582308572865929  0.7051025671364927  0.6158366840915901  1.0000
  C   C16       1.0  0.1417683818803184  0.2948976063990402  0.3841668493491497  1.0000
  S   S1        1.0  0.780236257500711  0.893726883316383  0.21030772581855922  1.0000
  S   S2        1.0  0.21976033970015157  0.10627598448490262  0.7896912969464364  1.0000
  N   N1        1.0  0.8519329655838207  0.64692321925547  0.7421670342712046  1.0000
  N   N2        1.0  0.1480670462519171  0.35307832601083794  0.25783728287817087  1.0000
  O   O1        1.0  0.6327957487639254  0.5563115935492746  0.8852363006034449  1.0000
  O   O2        1.0  0.3672055098913278  0.4436872861222909  0.11477456517430078  1.0000
  O   O3        1.0  0.43300891761080623  0.5942162594575182  0.6598394884437652  1.0000
  O   O4        1.0  0.5669920403754604  0.4057770551475529  0.34016229090940425  1.0000
  O   O5        1.0  0.9293376928100304  0.9737614228992798  0.16976782289317063  1.0000
  O   O6        1.0  0.07065952729872291  0.0262400757022547  0.830231191737688  1.0000
  O   O7        1.0  0.5676745319137382  0.027038480992779102  0.2144085328428957  1.0000
  O   O8        1.0  0.43232144252262833  0.9729657664089402  0.7855914358986168  1.0000
  O   O9        1.0  0.8274800139284014  0.7279770482233232  0.13433589885102745  1.0000
  O   O10       1.0  0.1725199970469831  0.2720244346389151  0.8656627912440766  1.0000
  O   O11       1.0  0.3444893655208644  0.828828026524633  0.19140531279019507  1.0000
  O   O12       1.0  0.6555114179799447  0.17117481766770476  0.8085932231711721  1.0000
  O   O13       1.0  0.9219207650955213  0.30453328212180253  0.09346575239509039  1.0000
  O   O14       1.0  0.07808360623508283  0.6954586163421868  0.9065328807610483  1.0000
