data_image0
_chemical_formula_structural       Zn2H19C32Br2N3O10
_chemical_formula_sum              "Zn2 H19 C32 Br2 N3 O10"
_cell_length_a       9.77296416228371
_cell_length_b       11.019998529677684
_cell_length_c       17.584695087492516
_cell_angle_alpha    95.02653944074717
_cell_angle_beta     92.6575602897802
_cell_angle_gamma    87.47744440790068

_space_group_name_H-M_alt    "P 1"
_space_group_IT_number       1

loop_
  _space_group_symop_operation_xyz
  'x, y, z'

loop_
  _atom_site_type_symbol
  _atom_site_label
  _atom_site_symmetry_multiplicity
  _atom_site_fract_x
  _atom_site_fract_y
  _atom_site_fract_z
  _atom_site_occupancy
  Zn  Zn1       1.0  0.6317375073016861  0.4957565029682981  0.5049951656126268  1.0000
  Zn  Zn2       1.0  0.34771510838287867  0.508346139249504  0.5032735084513646  1.0000
  H   H1        1.0  0.34247479354843346  0.3789104845263651  0.7348167819705296  1.0000
  H   H2        1.0  0.3877168671187193  0.34215008790702933  0.9963075420706033  1.0000
  H   H3        1.0  0.7370489016045099  0.5430532835645323  0.8931931971587445  1.0000
  H   H4        1.0  0.6110270529657172  0.5661484224967809  0.1136264800897635  1.0000
  H   H5        1.0  0.7159443988305582  0.5718016055343397  0.7538930951402989  1.0000
  H   H6        1.0  0.6519124503365177  0.48585640642632183  0.003403458395645491  1.0000
  H   H7        1.0  0.36370375755275564  0.34530345331949513  0.8722712978612535  1.0000
  H   H8        1.0  0.34398636009780853  0.2647178852014349  0.12024577738225158  1.0000
  H   H9        1.0  0.26524907520632013  0.11968826021190888  0.5155160177174735  1.0000
  H   H10       1.0  0.2724438640291424  0.8937503492426088  0.5161393342102798  1.0000
  H   H11       1.0  0.8215421464797145  0.8803690984286874  0.5181721939019539  1.0000
  H   H12       1.0  0.782141989916596  0.8765436573219817  0.4178964874007463  1.0000
  H   H13       1.0  0.8154208694675376  0.10945209171338628  0.5264208147207441  1.0000
  H   H14       1.0  0.779287637598287  0.10583813726594118  0.4258586137357695  1.0000
  H   H15       1.0  0.8315372936623504  0.6164539170873411  0.41611873241168945  1.0000
  H   H16       1.0  0.8925037483733007  0.402378550788157  0.6676878013440231  1.0000
  H   H17       1.0  0.9001223915892139  0.2713214063710936  0.6002689565175103  1.0000
  H   H18       1.0  0.15076686082224464  0.41830342540582405  0.6637588579631524  1.0000
  H   H19       1.0  0.1586141178259197  0.2875017607125372  0.5961465505295108  1.0000
  C   C1        1.0  0.47815060125470404  0.26791245203608577  0.5057343464414287  1.0000
  C   C2        1.0  0.5099384853360576  0.5043593998758878  0.6536279880143779  1.0000
  C   C3        1.0  0.48994170542842846  0.7352271673889844  0.4991929357341789  1.0000
  C   C4        1.0  0.4932302803371655  0.4643267444545103  0.3545037189784068  1.0000
  C   C5        1.0  0.5260151165417144  0.48019318218108953  0.7362215522809024  1.0000
  C   C6        1.0  0.42843829722754373  0.41483614390555346  0.7701878684989012  1.0000
  C   C7        1.0  0.4412448933087775  0.39593265840885294  0.8472708438771333  1.0000
  C   C8        1.0  0.5512527599994996  0.4439721628937718  0.8935716932594955  1.0000
  C   C9        1.0  0.6509480811785906  0.5058372599561948  0.8582269867822561  1.0000
  C   C10       1.0  0.639344882784279  0.5228711078124562  0.7807745065813733  1.0000
  C   C11       1.0  0.5571703095692514  0.5031635996228586  0.14480137080558106  1.0000
  C   C12       1.0  0.5600913923965365  0.5196965819413749  0.22406770714835736  1.0000
  C   C13       1.0  0.413600639398851  0.3539552661869578  0.22719328003551448  1.0000
  C   C14       1.0  0.4065549915929551  0.3366799079529486  0.14789253895659726  1.0000
  C   C15       1.0  0.4814909132053202  0.41003083581615835  0.1048824326685178  1.0000
  C   C16       1.0  0.5627690690179604  0.440278642620477  0.9761350149783468  1.0000
  C   C17       1.0  0.4741075630910033  0.39360052688596175  0.0216214049663748  1.0000
  C   C18       1.0  0.49004718881298703  0.4445345417110928  0.2683349065602271  1.0000
  C   C19       1.0  0.6021988696983486  0.061721672105832695  0.4916537280877193  1.0000
  C   C20       1.0  0.48178728497322243  0.13243558171081557  0.5022397947866182  1.0000
  C   C21       1.0  0.3623136182300897  0.06786339080817069  0.5094405025679052  1.0000
  C   C22       1.0  0.3657702161146261  0.941184012584543  0.5085855845088431  1.0000
  C   C23       1.0  0.48840551113700303  0.8701956097638329  0.49832688226810967  1.0000
  C   C24       1.0  0.6051015996372869  0.93448453268239  0.4885571309773056  1.0000
  C   C25       1.0  0.7569965675803586  0.9221108188499157  0.4739165888519636  1.0000
  C   C26       1.0  0.7540301081660417  0.06621461978028258  0.4783980679428196  1.0000
  C   C27       1.0  0.07118176655669119  0.4539006307585183  0.5485778428916674  1.0000
  C   C28       1.0  0.043069574791381605  0.5789407236629529  0.4542536011076308  1.0000
  C   C29       1.0  0.9002151313972034  0.5687882301361071  0.45507804853586004  1.0000
  C   C30       1.0  0.9300966486229355  0.44487096416076344  0.5505036700964893  1.0000
  C   C31       1.0  0.9389888670914742  0.36272042858517745  0.6150033115555685  1.0000
  C   C32       1.0  0.10070429019565813  0.37247689164370706  0.6126842484316484  1.0000
  Br  Br1       1.0  0.10911661322027301  0.6816044008026123  0.3855498138878346  1.0000
  Br  Br2       1.0  0.6564791715395585  0.6552796383449645  0.27112853918430346  1.0000
  N   N1        1.0  0.13252656247176728  0.5198616488009975  0.5009167112515768  1.0000
  N   N2        1.0  0.8419436946939669  0.5004621362231275  0.5039237955952203  1.0000
  N   N3        1.0  0.3390545483232046  0.2679749165074269  0.2684571010008553  1.0000
  O   O1        1.0  0.5933739683452474  0.3182588144490808  0.517051053152052  1.0000
  O   O2        1.0  0.3616484208883933  0.323151878989627  0.4977574561996363  1.0000
  O   O3        1.0  0.6182546869760798  0.5301842772601758  0.6214150881141052  1.0000
  O   O4        1.0  0.39047388748961964  0.49712453089252756  0.6218579079894225  1.0000
  O   O5        1.0  0.6032304607345722  0.6763940668457166  0.4868281633021638  1.0000
  O   O6        1.0  0.37774892332011223  0.687944143942765  0.5129147040603498  1.0000
  O   O7        1.0  0.610039557855046  0.45121599583032435  0.38753567129994326  1.0000
  O   O8        1.0  0.3803692737832592  0.49520892756853385  0.38472656899996577  1.0000
  O   O9        1.0  0.3956955062659445  0.23175833221109343  0.3271255308213128  1.0000
  O   O10       1.0  0.2263913092271466  0.2356963494210333  0.240162968603336  1.0000
