data_image0
_chemical_formula_structural       Gd2H18C18N8O14
_chemical_formula_sum              "Gd2 H18 C18 N8 O14"
_cell_length_a       7.84334439744661
_cell_length_b       7.595217912165371
_cell_length_c       11.344097538069311
_cell_angle_alpha    106.16168526620456
_cell_angle_beta     94.49979961777514
_cell_angle_gamma    90.35066982353196

_space_group_name_H-M_alt    "P 1"
_space_group_IT_number       1

loop_
  _space_group_symop_operation_xyz
  'x, y, z'

loop_
  _atom_site_type_symbol
  _atom_site_label
  _atom_site_symmetry_multiplicity
  _atom_site_fract_x
  _atom_site_fract_y
  _atom_site_fract_z
  _atom_site_occupancy
  Gd  Gd1       1.0  0.7095274948809379  0.2482818715948056  0.680233828690028  1.0000
  Gd  Gd2       1.0  0.30971491744863755  0.7602718603386548  0.3195871271381208  1.0000
  H   H1        1.0  0.4073566419605471  0.4507730699922162  0.6320425044052485  1.0000
  H   H2        1.0  0.4908469015636853  0.5289928715159461  0.47157913654049816  1.0000
  H   H3        1.0  0.5668025850830107  0.5987616947417393  0.6676762900422162  1.0000
  H   H4        1.0  0.4229673141031044  0.4084562633803869  0.3371745033814051  1.0000
  H   H5        1.0  0.9942880603529365  0.045839905196572786  0.5358690364445735  1.0000
  H   H6        1.0  0.9866684977914416  0.7937385840845933  0.38527476272193445  1.0000
  H   H7        1.0  0.010245453326227501  0.007806555940256002  0.6655956425138925  1.0000
  H   H8        1.0  0.9633188013101591  0.9561516260855926  0.3208420417755278  1.0000
  H   H9        1.0  0.0766338132694031  0.7025227173557693  0.9693103357700608  1.0000
  H   H10       1.0  0.9334527117130521  0.30043122052216387  0.023856636507900885  1.0000
  H   H11       1.0  0.1315044786272282  0.6818377200850564  0.59118277040902  1.0000
  H   H12       1.0  0.8664801498709596  0.3378141081360795  0.4034216339578549  1.0000
  H   H13       1.0  0.46789602201073427  0.4468202790359613  0.8806075179453571  1.0000
  H   H14       1.0  0.5572833376219251  0.543959494355498  0.1521889567862615  1.0000
  H   H15       1.0  0.6270178410846302  0.5807143106844919  0.8939894718251082  1.0000
  H   H16       1.0  0.38789061720210344  0.4231616214979042  0.1123128232102246  1.0000
  H   H17       1.0  0.3754259388911694  0.12320771121307669  0.8830482764387213  1.0000
  H   H18       1.0  0.636532138580343  0.8826338271227102  0.11517916669771469  1.0000
  C   C1        1.0  0.3468947898001745  0.9895886065768664  0.637416986581016  1.0000
  C   C2        1.0  0.6613650795275633  0.026004368103272703  0.3607914051385706  1.0000
  C   C3        1.0  0.2963935607070098  0.9980010240922182  0.8539043094029282  1.0000
  C   C4        1.0  0.7141283787360777  0.009019168781961205  0.143019673440989  1.0000
  C   C5        1.0  0.2659277129358842  0.9097991556687219  0.7281891615537431  1.0000
  C   C6        1.0  0.7421514986592828  0.1018378213664164  0.2683811230026407  1.0000
  C   C7        1.0  0.23011324674597242  0.9245434771378456  0.9415279192175063  1.0000
  C   C8        1.0  0.7803556455783395  0.0798113269916456  0.053979224575925897  1.0000
  C   C9        1.0  0.12954799995191732  0.7623410829608089  0.902652610527987  1.0000
  C   C10       1.0  0.8798902571887199  0.2429854168134398  0.09144857040456603  1.0000
  C   C11       1.0  0.16105274506483622  0.7499158153843767  0.6890668709439609  1.0000
  C   C12       1.0  0.8420619396522897  0.2645322216175074  0.30601313573182404  1.0000
  C   C13       1.0  0.0916506753998192  0.6780067387251237  0.7767814657183294  1.0000
  C   C14       1.0  0.9127474327517433  0.3324584385985858  0.21722895777445214  1.0000
  C   C15       1.0  0.9665781250915163  0.5180832944029348  0.7390803201179496  1.0000
  C   C16       1.0  0.029283037229937706  0.4981109641810804  0.2576963031709099  1.0000
  C   C17       1.0  0.2661846777343301  0.0166931684052614  0.0722429565316318  1.0000
  C   C18       1.0  0.7418208813350662  0.9843794714011692  0.9237968107373504  1.0000
  N   N1        1.0  0.3277622004324741  0.1906612543541755  0.12001603338230639  1.0000
  N   N2        1.0  0.6751195535680168  0.8119479084785652  0.879640553449981  1.0000
  N   N3        1.0  0.34371068894690643  0.21716715013655374  0.2420975349824559  1.0000
  N   N4        1.0  0.6538537551561276  0.7820314154238233  0.7572864004477395  1.0000
  N   N5        1.0  0.2932862032525847  0.06854627576331042  0.2684595193014729  1.0000
  N   N6        1.0  0.7063962184469332  0.9267011439981732  0.7269908793818871  1.0000
  N   N7        1.0  0.24385077220906484  0.9393069959980878  0.1637744113531028  1.0000
  N   N8        1.0  0.7623784037830462  0.0568472573786423  0.829594619503581  1.0000
  O   O1        1.0  0.4235672937836697  0.14555845915631951  0.678568945872911  1.0000
  O   O2        1.0  0.5864075930073868  0.8688942042201829  0.32025548037486823  1.0000
  O   O3        1.0  0.5229711098973695  0.4718379883241185  0.6119044536968231  1.0000
  O   O4        1.0  0.4618269274905842  0.5371179174821991  0.386687218690497  1.0000
  O   O5        1.0  0.3347674287471136  0.8950968510794156  0.5257564523910787  1.0000
  O   O6        1.0  0.6738393335501629  0.12096641841282721  0.4720072418646524  1.0000
  O   O7        1.0  0.9727375177938458  0.09848104857449873  0.6235548425413029  1.0000
  O   O8        1.0  0.03165116293842371  0.9161643263843973  0.38414844698804973  1.0000
  O   O9        1.0  0.8941492936603197  0.4694412390683739  0.62954290675561  1.0000
  O   O10       1.0  0.06502043198197781  0.5738376471191343  0.3735102764410527  1.0000
  O   O11       1.0  0.9287161413680567  0.4393254023474213  0.8199240893354514  1.0000
  O   O12       1.0  0.09452505529922209  0.5607062845434355  0.17758534291833436  1.0000
  O   O13       1.0  0.5892566322858033  0.4486533641124879  0.8684441638546971  1.0000
  O   O14       1.0  0.4342077396327824  0.5524283886865574  0.1360743762172376  1.0000
