data_image0
_chemical_formula_structural       CaH46C68N8O10
_chemical_formula_sum              "Ca1 H46 C68 N8 O10"
_cell_length_a       12.445580800124711
_cell_length_b       12.34244477347267
_cell_length_c       14.02
_cell_angle_alpha    99.08007525885665
_cell_angle_beta     115.60230179509632
_cell_angle_gamma    107.82456478954511

_space_group_name_H-M_alt    "P 1"
_space_group_IT_number       1

loop_
  _space_group_symop_operation_xyz
  'x, y, z'

loop_
  _atom_site_type_symbol
  _atom_site_label
  _atom_site_symmetry_multiplicity
  _atom_site_fract_x
  _atom_site_fract_y
  _atom_site_fract_z
  _atom_site_occupancy
  Ca  Ca1       1.0  1.8235620870550468e-06  0.9999989649975872  4.843891545913312e-07  1.0000
  H   H1        1.0  0.3567700165955472  0.4554146241781893  0.680848617548726  1.0000
  H   H2        1.0  0.6432301233041713  0.5445852450675304  0.3191462824296138  1.0000
  H   H3        1.0  0.1843477154083999  0.423540781827505  0.5173633705217071  1.0000
  H   H4        1.0  0.815648991648864  0.5764554704256923  0.48263898258755955  1.0000
  H   H5        1.0  0.9697661943435211  0.0835317295477722  0.3343456498567222  1.0000
  H   H6        1.0  0.030224275863219085  0.9164645227054322  0.6656535975579487  1.0000
  H   H7        1.0  0.5436956555787873  0.7894746280076176  0.8808155356215935  1.0000
  H   H8        1.0  0.4563111994288249  0.21052433698997663  0.11918110134668322  1.0000
  H   H9        1.0  0.8608003800594447  0.5766724899769997  0.3327208148300756  1.0000
  H   H10       1.0  0.13919708690433197  0.42332737926871994  0.6672794792229055  1.0000
  H   H11       1.0  0.7794889026871488  0.7016567623214485  0.22145425871467955  1.0000
  H   H12       1.0  0.22051034623392246  0.2983431069242712  0.7785460056223457  1.0000
  H   H13       1.0  0.6660991774685386  0.4605878277325671  0.9764136300531092  1.0000
  H   H14       1.0  0.33389574763143776  0.5394084245206301  0.023583759904774147  1.0000
  H   H15       1.0  0.42563953917976255  0.9055403010413057  0.7684102622038934  1.0000
  H   H16       1.0  0.5743599913904589  0.0944640894450686  0.23158788524797552  1.0000
  H   H17       1.0  0.6785732811978065  0.6871453883237848  0.007370760098488855  1.0000
  H   H18       1.0  0.3214254894659022  0.3128553851700673  0.9926251668091055  1.0000
  H   H19       1.0  0.31056035547285893  0.0330954815749394  0.6454600852069917  1.0000
  H   H20       1.0  0.6894390245203541  0.966900770678258  0.35453544729411135  1.0000
  H   H21       1.0  0.08493430280237396  0.9670418333866094  0.4484158275139195  1.0000
  H   H22       1.0  0.9150541037979141  0.0329498976259401  0.5515834267015692  1.0000
  H   H23       1.0  0.8827837548686617  0.4173050867198356  0.21580411950406403  1.0000
  H   H24       1.0  0.11721721047363333  0.5826965910221488  0.7841999075684924  1.0000
  H   H25       1.0  0.4658148491348443  0.24050739649986497  0.9441826909788702  1.0000
  H   H26       1.0  0.5341779468226164  0.7594861430089423  0.055810652296941016  1.0000
  H   H27       1.0  0.24264432278326362  0.7578774855848494  0.3758210783039716  1.0000
  H   H28       1.0  0.7573536879739393  0.2421196709164803  0.6241811872604756  1.0000
  H   H29       1.0  0.5880256169341963  0.1276744105325776  0.04180411574549234  1.0000
  H   H30       1.0  0.41198132311435404  0.8723345011944517  0.9581996418917953  1.0000
  H   H31       1.0  0.5867674604062573  0.1971351349222132  0.7013112870428699  1.0000
  H   H32       1.0  0.413233767080314  0.8028593088347264  0.298686129424894  1.0000
  H   H33       1.0  0.8443358220780794  0.1866051654429697  0.20259548765380234  1.0000
  H   H34       1.0  0.15566247032827366  0.8133965122990077  0.797404661025496  1.0000
  H   H35       1.0  0.22497255461582455  0.844106587305788  0.5572404616445255  1.0000
  H   H36       1.0  0.7750253906053075  0.1558923776917993  0.4427563239035024  1.0000
  H   H37       1.0  0.15879616287499232  0.8813760782509447  0.26189288619613654  1.0000
  H   H38       1.0  0.8412049335394444  0.11862198249851019  0.7381099753743073  1.0000
  H   H39       1.0  0.7113413095584421  0.0856241597216609  0.8009458152668998  1.0000
  H   H40       1.0  0.2886735182257923  0.9143883689978836  0.1990636103846698  1.0000
  H   H41       1.0  0.7619526065374274  0.9435937751155733  0.09708686583335434  1.0000
  H   H42       1.0  0.23805185718338615  0.0564097111226687  0.9029180411917395  1.0000
  H   H43       1.0  0.1947920343823384  0.2702092348411753  0.12061426502393859  1.0000
  H   H44       1.0  0.805210778453322  0.7297906344045443  0.8793887929482339  1.0000
  H   H45       1.0  0.13440582446480684  0.23671317134444078  0.1947082843308934  1.0000
  H   H46       1.0  0.8655949247644088  0.763282176660624  0.8052926406418166  1.0000
  C   C1        1.0  0.1479469065342869  0.16941902547539198  0.49186999940413756  1.0000
  C   C2        1.0  0.8520466493296798  0.8305781310259377  0.5081291307497651  1.0000
  C   C3        1.0  0.024955798955701897  0.270863910487634  0.37281999876234556  1.0000
  C   C4        1.0  0.9750391261442745  0.7291323417655632  0.6271773911955449  1.0000
  C   C5        1.0  0.6577778657304594  0.10078297538073848  0.927164213710583  1.0000
  C   C6        1.0  0.34223222551138827  0.8992250320981511  0.07284205361531093  1.0000
  C   C7        1.0  0.5040993593147364  0.6050197646188805  0.8330770245498655  1.0000
  C   C8        1.0  0.4959011277702032  0.3949828173712291  0.1669198120262152  1.0000
  C   C9        1.0  0.0445511259484164  0.1710891717723584  0.3976203349346079  1.0000
  C   C10       1.0  0.9554423643794792  0.828909793225229  0.6023797346037298  1.0000
  C   C11       1.0  0.2181747060522171  0.6567698851252715  0.5442627955489314  1.0000
  C   C12       1.0  0.7818213916755568  0.3432308883685735  0.45573781216653947  1.0000
  C   C13       1.0  0.05472125534151225  0.4639181735970652  0.3862945817899828  1.0000
  C   C14       1.0  0.9452766898796271  0.5360807914005221  0.6137100496924293  1.0000
  C   C15       1.0  0.3795760298235535  0.7060025788364541  0.7146596677376564  1.0000
  C   C16       1.0  0.6204248699826708  0.294000907401788  0.28533531298467113  1.0000
  C   C17       1.0  0.47735348161727137  0.7033685040324187  0.8123499184361619  1.0000
  C   C18       1.0  0.5226465927463764  0.2966331737095658  0.1876444943930906  1.0000
  C   C19       1.0  0.4913900967836825  0.4150951042889801  0.808323145075221  1.0000
  C   C20       1.0  0.5086064136653761  0.5849065734529972  0.19167204045269412  1.0000
  C   C21       1.0  0.11118971969631994  0.5904912099067374  0.4333658567206555  1.0000
  C   C22       1.0  0.8888126148819853  0.4095095635871146  0.566635716889124  1.0000
  C   C23       1.0  0.9259210486715335  0.6421002677047767  0.3159398597992436  1.0000
  C   C24       1.0  0.07407648382830702  0.35789779304468533  0.6840609214028177  1.0000
  C   C25       1.0  0.9641770873696276  0.7983724296113692  0.23387004571618067  1.0000
  C   C26       1.0  0.03582353078744661  0.2016265353862181  0.7661327580253995  1.0000
  C   C27       1.0  0.0573480794864878  0.6589726335710822  0.36190783906995705  1.0000
  C   C28       1.0  0.9426507567132916  0.3410263314265052  0.6380935678540496  1.0000
  C   C29       1.0  0.8800687929352906  0.7117255652541559  0.2533167238097676  1.0000
  C   C30       1.0  0.11992873956455705  0.2882724954953062  0.7466833441255362  1.0000
  C   C31       1.0  0.6022871114297602  0.4914615716509658  0.9174510479946392  1.0000
  C   C32       1.0  0.3977065099702771  0.5085337763541062  0.08254642950806361  1.0000
  C   C33       1.0  0.5190659971532554  0.2264797952519899  0.81704944740315  1.0000
  C   C34       1.0  0.48092947174014716  0.7735137442568174  0.1829456344656393  1.0000
  C   C35       1.0  0.3287242126825803  0.2222081270836895  0.6502377308283087  1.0000
  C   C36       1.0  0.6712786001530802  0.7777917421620372  0.3497631873435765  1.0000
  C   C37       1.0  0.9186547816951319  0.8778368510683165  0.17127824402713554  1.0000
  C   C38       1.0  0.08134453276201012  0.1221612096811455  0.828722507458977  1.0000
  C   C39       1.0  0.36616547800473853  0.8170614299717727  0.703203210675106  1.0000
  C   C40       1.0  0.6338340525654829  0.18294296051459463  0.2967920837097182  1.0000
  C   C41       1.0  0.6094483203810412  0.6071194287778212  0.9329698509762281  1.0000
  C   C42       1.0  0.3905505158187381  0.3928795362197731  0.06702656308044651  1.0000
  C   C43       1.0  0.27038036228830015  0.0905052911299009  0.6047693257826765  1.0000
  C   C44       1.0  0.729621559568713  0.9094945781158187  0.3952283975467594  1.0000
  C   C45       1.0  0.15695488865033982  0.0574694899315702  0.5062150476579532  1.0000
  C   C46       1.0  0.8430418839430018  0.9425249538253694  0.4937856528001134  1.0000
  C   C47       1.0  0.9418703463492978  0.38634996046970116  0.2782779595685982  1.0000
  C   C48       1.0  0.058129249756994725  0.6136526215204157  0.7217256678996904  1.0000
  C   C49       1.0  0.5212676302223471  0.20798972948028893  0.9139449610293154  1.0000
  C   C50       1.0  0.47873429163466613  0.7920101397654307  0.08605347556687803  1.0000
  C   C51       1.0  0.7283596285911926  0.029991197743065395  0.9807169802137494  1.0000
  C   C52       1.0  0.2716503971145842  0.9700186182320962  0.019291653030101902  1.0000
  C   C53       1.0  0.14075225892603532  0.7450606725836691  0.3408801889790142  1.0000
  C   C54       1.0  0.8592457518311676  0.2549364839176604  0.6591206500519107  1.0000
  C   C55       1.0  0.5892006400109012  0.1447918276422371  0.9683070340735115  1.0000
  C   C56       1.0  0.4108029327312722  0.855211658596005  0.03169396484236842  1.0000
  C   C57       1.0  0.5882216856874934  0.1823542949816641  0.7764332867417566  1.0000
  C   C58       1.0  0.4117824963841699  0.8176446700159232  0.2235666045008742  1.0000
  C   C59       1.0  0.9225376590878939  0.2688185012165292  0.27098756188549805  1.0000
  C   C60       1.0  0.07745843863988003  0.7311822722773228  0.7290109060296858  1.0000
  C   C61       1.0  0.26578249232787954  0.7864625774850396  0.5967715682593493  1.0000
  C   C62       1.0  0.7342171693144766  0.21353819600880533  0.4032247004236425  1.0000
  C   C63       1.0  0.09456180812681943  0.8133847570733151  0.2772532481669074  1.0000
  C   C64       1.0  0.9054388755663325  0.1866123994280144  0.7227486161902306  1.0000
  C   C65       1.0  0.6576306655931674  0.12082653944057849  0.831438792258389  1.0000
  C   C66       1.0  0.3423803821633982  0.8791796595420533  0.16856759072523173  1.0000
  C   C67       1.0  0.44368068202466304  0.290407425331324  0.7560263767372462  1.0000
  C   C68       1.0  0.55632123983235  0.7095924439143956  0.2439713465921827  1.0000
  N   N1        1.0  0.2528445915207628  0.2682804735788977  0.5803710622372266  1.0000
  N   N2        1.0  0.7471552011937348  0.7317166829224319  0.4196261807439399  1.0000
  N   N3        1.0  0.2878070361519321  0.609485846135243  0.6177644038531869  1.0000
  N   N4        1.0  0.7121939291903631  0.3905158316067414  0.38223249055175057  1.0000
  N   N5        1.0  0.43555193261323677  0.487555219727362  0.7608139467971142  1.0000
  N   N6        1.0  0.5644472507717638  0.5124464580146153  0.23918155079025644  1.0000
  N   N7        1.0  0.10158769987116763  0.3901921107760344  0.439715632754357  1.0000
  N   N8        1.0  0.8984072252288088  0.6098041414771629  0.560285323537336  1.0000
  O   O1        1.0  0.7115160219031509  0.0017804645688813  0.06068527761451047  1.0000
  O   O2        1.0  0.2884892672602463  0.9982248301656185  0.9393194840369006  1.0000
  O   O3        1.0  0.8028654950714866  0.8691434095420474  0.14486818153456943  1.0000
  O   O4        1.0  0.1971354702708084  0.1308582681999368  0.8551351322712222  1.0000
  O   O5        1.0  0.9947843513061658  0.9488221378059122  0.1486250343810767  1.0000
  O   O6        1.0  0.005213246729745402  0.051174114447285  0.8513726676362624  1.0000
  O   O7        1.0  0.796973702324955  0.9993243958922661  0.9476330092260667  1.0000
  O   O8        1.0  0.2030299359532819  0.0006772818497182999  0.05236919010566508  1.0000
  O   O9        1.0  0.11930478479718692  0.2129332540095277  0.11883720715220392  1.0000
  O   O10       1.0  0.8806976153171819  0.7870657109880597  0.8811641403398981  1.0000
