data_image0
_chemical_formula_structural       Zn4H8C48N4O20F20
_chemical_formula_sum              "Zn4 H8 C48 N4 O20 F20"
_cell_length_a       9.870943772050502
_cell_length_b       11.122891626207172
_cell_length_c       28.995966060915606
_cell_angle_alpha    90.09183853824331
_cell_angle_beta     89.87628063612017
_cell_angle_gamma    89.98072697206237

_space_group_name_H-M_alt    "P 1"
_space_group_IT_number       1

loop_
  _space_group_symop_operation_xyz
  'x, y, z'

loop_
  _atom_site_type_symbol
  _atom_site_label
  _atom_site_symmetry_multiplicity
  _atom_site_fract_x
  _atom_site_fract_y
  _atom_site_fract_z
  _atom_site_occupancy
  Zn  Zn1       1.0  0.6388938127660851  0.499711919585664  0.5004557951585724  1.0000
  Zn  Zn2       1.0  0.3610574595927076  0.4998152532131853  0.5006430645440432  1.0000
  Zn  Zn3       1.0  0.361363436163451  0.5020944640287726  0.1166604178115946  1.0000
  Zn  Zn4       1.0  0.6392028479039311  0.5019399138582373  0.1164424135893753  1.0000
  H   H1        1.0  0.28173084917960983  0.5012183456280895  0.9705336882969818  1.0000
  H   H2        1.0  0.7191095521970324  0.501070454338688  0.9700893928926109  1.0000
  H   H3        1.0  0.281041505361614  0.5000772801867371  0.6470510963060647  1.0000
  H   H4        1.0  0.7184304371717687  0.49976034222154203  0.6466352904444789  1.0000
  H   H5        1.0  0.7276074973102026  0.5010083238961586  0.8477751288040238  1.0000
  H   H6        1.0  0.27262557811383914  0.5011540888627695  0.8482473844579417  1.0000
  H   H7        1.0  0.7274673784311501  0.5006670084661309  0.768911934699922  1.0000
  H   H8        1.0  0.2725380373182276  0.5009899174590445  0.7693573832014736  1.0000
  C   C1        1.0  0.49989969220867175  0.7340058303970526  0.4999864691725833  1.0000
  C   C2        1.0  0.4996441986055372  0.4988116134974518  0.5903693980902176  1.0000
  C   C3        1.0  0.5000341376260592  0.26556609388444485  0.5003668165742283  1.0000
  C   C4        1.0  0.5002662177774512  0.5012811631092832  0.4106154201222836  1.0000
  C   C5        1.0  0.500289083533417  0.7362272996507498  0.1171873280952482  1.0000
  C   C6        1.0  0.5004836145059813  0.5006581278924573  0.026746189011632296  1.0000
  C   C7        1.0  0.5004546480369001  0.2678307610513713  0.11656788988786812  1.0000
  C   C8        1.0  0.49987508670371017  0.5032529418252024  0.2064777597885907  1.0000
  C   C9        1.0  0.9291521888731822  0.42764894437716106  0.4719453766307922  1.0000
  C   C10       1.0  0.07065553571803922  0.5725178252709358  0.5277804351706266  1.0000
  C   C11       1.0  0.07120980619024661  0.4275771253028681  0.4719817346937916  1.0000
  C   C12       1.0  0.9288370081452654  0.5725860706949036  0.527750444004738  1.0000
  C   C13       1.0  0.5000053703540315  0.1300193863841415  0.5001968256411331  1.0000
  C   C14       1.0  0.4999395383008293  0.8695617441142787  0.49992815092068105  1.0000
  C   C15       1.0  0.3794417130057965  0.06260796419091721  0.5000466150390821  1.0000
  C   C16       1.0  0.6205072216403592  0.9369804391725082  0.4999931796482855  1.0000
  C   C17       1.0  0.37940598117314284  0.937095573927252  0.4999395451711025  1.0000
  C   C18       1.0  0.6205318137906841  0.0624874292769846  0.5001050822364448  1.0000
  C   C19       1.0  0.5004301592165206  0.5009668663791019  0.975069130380227  1.0000
  C   C20       1.0  0.3768173244013226  0.5011756054920512  0.9515371895206144  1.0000
  C   C21       1.0  0.3766070715373572  0.5013518256816953  0.9036366788946568  1.0000
  C   C22       1.0  0.5002029014829218  0.5013812376644823  0.8784454795491214  1.0000
  C   C23       1.0  0.6239315899034564  0.5011846803154755  0.903380639629944  1.0000
  C   C24       1.0  0.623926004993379  0.501109122413702  0.951286909314291  1.0000
  C   C25       1.0  0.5000736188259368  0.5013414803902735  0.8298170568125229  1.0000
  C   C26       1.0  0.5000159511094252  0.5011287288548871  0.7873430986227491  1.0000
  C   C27       1.0  0.4999172372991295  0.5007554355716765  0.7387068140528541  1.0000
  C   C28       1.0  0.37622523653525514  0.5005393485485145  0.7137561406193527  1.0000
  C   C29       1.0  0.3762321414757039  0.5000413143169098  0.6658490931093937  1.0000
  C   C30       1.0  0.4997232714389597  0.49952188698490124  0.6420487887233151  1.0000
  C   C31       1.0  0.623302380276371  0.49987592357317107  0.6656070448665048  1.0000
  C   C32       1.0  0.6235102309630065  0.5004072441446183  0.7135184364075046  1.0000
  C   C33       1.0  0.5002147404640027  0.5018236236934683  0.35855689883224784  1.0000
  C   C34       1.0  0.5000034084322847  0.5029874014542062  0.2585319473964915  1.0000
  C   C35       1.0  0.6206068423509236  0.5021384581039  0.3325072128762159  1.0000
  C   C36       1.0  0.3796063609051714  0.5024487038253228  0.2845811236847596  1.0000
  C   C37       1.0  0.6204844439734883  0.5027177029774279  0.2843506959255322  1.0000
  C   C38       1.0  0.37970750121758806  0.5018388881211139  0.3327383236407115  1.0000
  C   C39       1.0  0.07114567983391142  0.43024573946300393  0.14526935892577342  1.0000
  C   C40       1.0  0.929533934584711  0.5748605471038888  0.089504080473283  1.0000
  C   C41       1.0  0.92907093133104  0.43014225184011695  0.14522253569754182  1.0000
  C   C42       1.0  0.07133414126496969  0.574959508155999  0.08954938610496302  1.0000
  C   C43       1.0  0.5004178373023933  0.1322981921776787  0.1166589865759136  1.0000
  C   C44       1.0  0.5003593033523757  0.8717931538274758  0.1170786422396546  1.0000
  C   C45       1.0  0.620905872309926  0.06472015132705881  0.1168096854083913  1.0000
  C   C46       1.0  0.3798641876573896  0.9393487218390248  0.1169234485225843  1.0000
  C   C47       1.0  0.6208935095384688  0.9392200833404091  0.11698712928385652  1.0000
  C   C48       1.0  0.3798988386381196  0.06484340663359231  0.1167370167642758  1.0000
  N   N1        1.0  0.8599509037645985  0.5000750790210446  0.4998774593298592  1.0000
  N   N2        1.0  0.1399764638054535  0.49995046765316453  0.4999405811817255  1.0000
  N   N3        1.0  0.14027149964354627  0.5025457128704645  0.11737251557730131  1.0000
  N   N4        1.0  0.8602714244709374  0.5023628765285794  0.1172839667753394  1.0000
  O   O1        1.0  0.614628945546194  0.6823385963736258  0.4999973298250354  1.0000
  O   O2        1.0  0.3851588675150451  0.6824657906473848  0.5000679215504533  1.0000
  O   O3        1.0  0.384629321637334  0.4989424854760713  0.5704289029239576  1.0000
  O   O4        1.0  0.6146679421401586  0.4983740331086537  0.5702444244433665  1.0000
  O   O5        1.0  0.3853089944824361  0.31722863559551945  0.500566323346888  1.0000
  O   O6        1.0  0.6147901306345176  0.31711251591374895  0.5001925858578531  1.0000
  O   O7        1.0  0.6149660380956234  0.5010299742429324  0.4303501751702896  1.0000
  O   O8        1.0  0.3856085607851155  0.5009332144694838  0.4305319068544621  1.0000
  O   O9        1.0  0.38554215669495306  0.6847070848628861  0.11721913799008381  1.0000
  O   O10       1.0  0.6150031392844751  0.6845501982424623  0.1171726721593416  1.0000
  O   O11       1.0  0.6155328114224188  0.5007574214995999  0.046681313217639804  1.0000
  O   O12       1.0  0.38548854336676897  0.5005275059455202  0.0468786449645506  1.0000
  O   O13       1.0  0.6152309157165091  0.3193511160373106  0.116390520139305  1.0000
  O   O14       1.0  0.3857254724937603  0.31949053938724603  0.1168374074100811  1.0000
  O   O15       1.0  0.3851813075878354  0.5035832295022828  0.18676237271283472  1.0000
  O   O16       1.0  0.6145260073717722  0.5029329054230234  0.18655180842731062  1.0000
  O   O17       1.0  0.7454453257194372  0.5010566824946068  0.8808781863455553  1.0000
  O   O18       1.0  0.254979290868981  0.5013761908030858  0.8813877409752848  1.0000
  O   O19       1.0  0.7451278203283066  0.5004988494844724  0.7357733323449978  1.0000
  O   O20       1.0  0.254694232203569  0.500750960941673  0.736253152080593  1.0000
  F   F1        1.0  0.8622538673743916  0.3548802059591126  0.4440265319343482  1.0000
  F   F2        1.0  0.137695039221839  0.6447495746604305  0.55599087702047  1.0000
  F   F3        1.0  0.13854321814203263  0.3547281640476498  0.44410387447734223  1.0000
  F   F4        1.0  0.8614006431213  0.6448755218748944  0.5559366253538087  1.0000
  F   F5        1.0  0.2566415839625265  0.11557608731563819  0.5000042870336969  1.0000
  F   F6        1.0  0.7433113856677663  0.8840168648880322  0.4999789483944  1.0000
  F   F7        1.0  0.25657538021881265  0.8842502026744299  0.4998579088517162  1.0000
  F   F8        1.0  0.7433634233270465  0.1153310219875721  0.5001660239093866  1.0000
  F   F9        1.0  0.7434874290368114  0.5017889305540493  0.35268845229116147  1.0000
  F   F10       1.0  0.2567290700524437  0.5023190388698071  0.2643998657696542  1.0000
  F   F11       1.0  0.743302417919402  0.5028531207350329  0.2639346295016693  1.0000
  F   F12       1.0  0.25689587211902415  0.5012009126927666  0.35314400536761786  1.0000
  F   F13       1.0  0.13816744457105298  0.35759164772916563  0.173115846066267  1.0000
  F   F14       1.0  0.862412152633517  0.6468155130779679  0.0612891611880215  1.0000
  F   F15       1.0  0.8617536856888038  0.35735979967991943  0.1730186517767365  1.0000
  F   F16       1.0  0.13877223921519288  0.6470033113743838  0.0613756722548118  1.0000
  F   F17       1.0  0.7437658483021394  0.11752246896553946  0.11678780414216311  1.0000
  F   F18       1.0  0.2570143225668531  0.8865662175053404  0.11691015965871542  1.0000
  F   F19       1.0  0.7437037538985508  0.886276244470082  0.1170201561912805  1.0000
  F   F20       1.0  0.2570531353539991  0.11773071361074021  0.11658430260621341  1.0000
