data_image0
_chemical_formula_structural       Sm2Cu2H32C44S4N4O22
_chemical_formula_sum              "Sm2 Cu2 H32 C44 S4 N4 O22"
_cell_length_a       9.460795705525715
_cell_length_b       11.376204631205079
_cell_length_c       12.3811
_cell_angle_alpha    99.50791853182568
_cell_angle_beta     100.22373107235094
_cell_angle_gamma    113.97240343464861

_space_group_name_H-M_alt    "P 1"
_space_group_IT_number       1

loop_
  _space_group_symop_operation_xyz
  'x, y, z'

loop_
  _atom_site_type_symbol
  _atom_site_label
  _atom_site_symmetry_multiplicity
  _atom_site_fract_x
  _atom_site_fract_y
  _atom_site_fract_z
  _atom_site_occupancy
  Sm  Sm1       1.0  0.3067475444406043  0.4639953154934346  0.09624512570470502  1.0000
  Sm  Sm2       1.0  0.6932521956648685  0.5360049405297076  0.9037552817461786  1.0000
  Cu  Cu1       1.0  0.26141327505688133  0.9753185082285043  0.5946842783081862  1.0000
  Cu  Cu2       1.0  0.7385875390956613  0.0246817477946379  0.4053170824958129  1.0000
  H   H1        1.0  0.7398298516617458  0.5482864713149809  0.41889312248771654  1.0000
  H   H2        1.0  0.2601698884437198  0.4517137847081615  0.5811064772804926  1.0000
  H   H3        1.0  0.9026418073117952  0.6755310692616945  0.3034139365914612  1.0000
  H   H4        1.0  0.09735793279367037  0.3244691867614407  0.6965856631767479  1.0000
  H   H5        1.0  0.2852771765847423  0.5807376786530014  0.43474047991140446  1.0000
  H   H6        1.0  0.7147225635207233  0.4192625773701337  0.5652599275394791  1.0000
  H   H7        1.0  0.453243887041566  0.2547505050590786  0.23163646480069386  1.0000
  H   H8        1.0  0.5467563876893706  0.7452487536008334  0.7683646714660597  1.0000
  H   H9        1.0  0.4992875598071009  0.1115052088511845  0.3541123126529797  1.0000
  H   H10       1.0  0.5007121802983647  0.8884950471719578  0.6458880947979111  1.0000
  H   H11       1.0  0.9353149231358416  0.1844134581555679  0.28253241557063546  1.0000
  H   H12       1.0  0.06468535159508795  0.8155858005043441  0.717467105330762  1.0000
  H   H13       1.0  0.9074201302629135  0.3301860727823254  0.16168850630121773  1.0000
  H   H14       1.0  0.09257907042094614  0.6698131858775866  0.8383100612470639  1.0000
  H   H15       1.0  0.5726200084339581  0.1750502121743978  0.8624025979075682  1.0000
  H   H16       1.0  0.42738134514019066  0.8249510412119676  0.13759656438564596  1.0000
  H   H17       1.0  0.7625438568495538  0.0801700509649024  0.9083555553825206  1.0000
  H   H18       1.0  0.2374569573029887  0.91983020505824  0.09164499773879699  1.0000
  H   H19       1.0  0.1589387989153508  0.0691142795864081  0.9954244982504858  1.0000
  H   H20       1.0  0.8410620152371847  0.9308859764367341  0.004575247188157096  1.0000
  H   H21       1.0  0.4169197306634942  0.2556920159459821  0.6270280731148432  1.0000
  H   H22       1.0  0.5830800094419714  0.7443082400771601  0.3729723343360405  1.0000
  H   H23       1.0  0.4376098011931902  0.40696808086290304  0.5012489418058692  1.0000
  H   H24       1.0  0.5623888648651985  0.5930321751602321  0.4987513199745806  1.0000
  H   H25       1.0  0.0864660314112413  0.0649413118419275  0.229453029860764  1.0000
  H   H26       1.0  0.9135342433196955  0.9350579468179917  0.7705472987233151  1.0000
  H   H27       1.0  0.08325024915490084  0.9250244727478362  0.36373746585451266  1.0000
  H   H28       1.0  0.9167516390447119  0.0749757832753062  0.636263232937246  1.0000
  H   H29       1.0  0.9721661004570947  0.3164483916846876  0.9287590638515154  1.0000
  H   H30       1.0  0.027834713695447977  0.6835518643384546  0.0712414892698021  1.0000
  H   H31       1.0  0.9377191845927584  0.4035221909113744  0.024259641941249313  1.0000
  H   H32       1.0  0.06228001609110119  0.5964770677485376  0.9757405409723887  1.0000
  C   C1        1.0  0.8603431875587615  0.5578422083990873  0.4246733116167149  1.0000
  C   C2        1.0  0.1396565525467039  0.442158047624055  0.5753262881514871  1.0000
  C   C3        1.0  0.9494822208982754  0.6277952704599485  0.3596611054513516  1.0000
  C   C4        1.0  0.05051751920719027  0.3722049855631937  0.6403384943168575  1.0000
  C   C5        1.0  0.10346959779565876  0.6352884603892761  0.3643416650779585  1.0000
  C   C6        1.0  0.896529607684343  0.3647127929970893  0.6356580135570553  1.0000
  C   C7        1.0  0.16758567218776219  0.5757777913219044  0.4338956226726793  1.0000
  C   C8        1.0  0.8324146073393096  0.42422346206446093  0.5661042016327754  1.0000
  C   C9        1.0  0.9213117913600755  0.49521477924530904  0.49753374424172137  1.0000
  C   C10       1.0  0.07868741411992632  0.5047864741410564  0.5024659343932923  1.0000
  C   C11       1.0  0.5627504686408642  0.24356806855067253  0.243869778315883  1.0000
  C   C12       1.0  0.4372492714646015  0.7564321874724627  0.7561306291350077  1.0000
  C   C13       1.0  0.5870171610181529  0.1636962291908404  0.3110016685376422  1.0000
  C   C14       1.0  0.4129820396657066  0.8363030294690716  0.6889993220586773  1.0000
  C   C15       1.0  0.8314786757141377  0.20448938256492258  0.2710731910275327  1.0000
  C   C16       1.0  0.1685205249697219  0.7955098760949895  0.7289261842034235  1.0000
  C   C17       1.0  0.8148074944667839  0.2863090723083559  0.20359358217157103  1.0000
  C   C18       1.0  0.1851911667954695  0.713689188988333  0.7964055685221467  1.0000
  C   C19       1.0  0.5005309994701221  0.118971469973367  0.9125084447862618  1.0000
  C   C20       1.0  0.4994692800569497  0.8810297834129983  0.08749057183651134  1.0000
  C   C21       1.0  0.5487134387738024  0.036394781540146  0.9673132329108041  1.0000
  C   C22       1.0  0.4512873753787403  0.9636054744829892  0.032685704845157204  1.0000
  C   C23       1.0  0.6903579057611253  0.024422433355447  0.95885631475015  1.0000
  C   C24       1.0  0.3096445218600934  0.9755788200309183  0.04114299321349788  1.0000
  C   C25       1.0  0.265431145959738  0.0570711186125479  0.987385864678103  1.0000
  C   C26       1.0  0.7345707422398746  0.9429291374105944  0.012614026430981072  1.0000
  C   C27       1.0  0.3627535056398301  0.1286548695506156  0.9232755115119815  1.0000
  C   C28       1.0  0.6372478431381765  0.8713443891092966  0.07672415505985701  1.0000
  C   C29       1.0  0.3465551687083702  0.21773137413842386  0.5385680932435333  1.0000
  C   C30       1.0  0.6534451108187085  0.7822698792479486  0.4614325387445959  1.0000
  C   C31       1.0  0.35613662389688017  0.3012146657455759  0.46750965132451217  1.0000
  C   C32       1.0  0.6438631162085855  0.6987855902775664  0.5324907561263714  1.0000
  C   C33       1.0  0.2623925980105781  0.2477829255507231  0.3545944936325682  1.0000
  C   C34       1.0  0.7376071420948874  0.7522173304724191  0.6454059138183154  1.0000
  C   C35       1.0  0.1612448575465422  0.1106903630941929  0.3167473807092022  1.0000
  C   C36       1.0  0.8387575652785414  0.8893088955657191  0.68325243153307  1.0000
  C   C37       1.0  0.15885823105469396  0.0320323147824126  0.39159620685834534  1.0000
  C   C38       1.0  0.8411420436762356  0.9679669438774995  0.6084041217257335  1.0000
  C   C39       1.0  0.6769492379086941  0.3061795398928098  0.18829410986051437  1.0000
  C   C40       1.0  0.32305103682223546  0.6938197187671022  0.811705411040883  1.0000
  C   C41       1.0  0.6468605347079972  0.3866637602744234  0.11027258417843912  1.0000
  C   C42       1.0  0.3531386659758624  0.6133354983854886  0.8897284064178805  1.0000
  C   C43       1.0  0.2742032990069844  0.3330784261425137  0.27318065788142576  1.0000
  C   C44       1.0  0.7257948276297981  0.6669208325173983  0.7268193793617783  1.0000
  S   S1        1.0  0.3035852955641474  0.2295960070945355  0.849835249428544  1.0000
  S   S2        1.0  0.6964155185883953  0.7704042489286067  0.15016530369278064  1.0000
  S   S3        1.0  0.21498900864702356  0.717493132338582  0.27436676285915235  1.0000
  S   S4        1.0  0.7850107314584419  0.2825071236845531  0.7256328369090567  1.0000
  N   N1        1.0  0.2508535974159543  0.0845245388168152  0.5005559898966537  1.0000
  N   N2        1.0  0.7491461426895113  0.9154757172063199  0.4994444175542298  1.0000
  N   N3        1.0  0.7194450349907839  0.142932124154413  0.32376759417426354  1.0000
  N   N4        1.0  0.28055470511468167  0.8570681318687292  0.6762320055939455  1.0000
  O   O1        1.0  0.1804676792606799  0.2771123859862001  0.17210869226681066  1.0000
  O   O2        1.0  0.8195320608447857  0.7228878700369421  0.8278917151840729  1.0000
  O   O3        1.0  0.37901167437793504  0.4546540115032728  0.3035856236536175  1.0000
  O   O4        1.0  0.6209880657275305  0.5453462445198696  0.6964139761145913  1.0000
  O   O5        1.0  0.222932402858703  0.6074979314140592  0.1955045823375627  1.0000
  O   O6        1.0  0.7770662631996856  0.3925023246090831  0.8044956794428797  1.0000
  O   O7        1.0  0.23388040782317177  0.2931230578796544  0.9241830942911307  1.0000
  O   O8        1.0  0.7661193274861587  0.7068752034170274  0.07581620207302812  1.0000
  O   O9        1.0  0.11932636995204857  0.7713407729993662  0.2112811028631256  1.0000
  O   O10       1.0  0.8806739095750231  0.2286604803869992  0.788718721442329  1.0000
  O   O11       1.0  0.3719269023068534  0.8183415151023398  0.3462031865127955  1.0000
  O   O12       1.0  0.6280728377986193  0.18165874092080264  0.6537947978900503  1.0000
  O   O13       1.0  0.524980657296922  0.4086765640718681  0.10615846722554069  1.0000
  O   O14       1.0  0.4750185433869375  0.5913226945880439  0.8938409080054225  1.0000
  O   O15       1.0  0.45204249515148814  0.3279799053227705  0.832123723532767  1.0000
  O   O16       1.0  0.5479572449539845  0.6720203507003717  0.16787668391811647  1.0000
  O   O17       1.0  0.18678384186459598  0.1411877358692522  0.7429571014703454  1.0000
  O   O18       1.0  0.8132158982408696  0.8588125201538901  0.2570433059805382  1.0000
  O   O19       1.0  0.7438757131034421  0.4263069538470248  0.049973892813625305  1.0000
  O   O20       1.0  0.2561213394862634  0.5736923048128872  0.9500259987591446  1.0000
  O   O21       1.0  0.013917698863281189  0.3683850844012966  0.010158838058131909  1.0000
  O   O22       1.0  0.9860820412421842  0.6316151716218457  0.9898423770754263  1.0000
