data_image0
_chemical_formula_structural       Dy2Ag2H40C56N4O22
_chemical_formula_sum              "Dy2 Ag2 H40 C56 N4 O22"
_cell_length_a       10.638351381922806
_cell_length_b       10.625512204146027
_cell_length_c       12.9242
_cell_angle_alpha    103.0276213883136
_cell_angle_beta     104.53627096441463
_cell_angle_gamma    94.34321622129795

_space_group_name_H-M_alt    "P 1"
_space_group_IT_number       1

loop_
  _space_group_symop_operation_xyz
  'x, y, z'

loop_
  _atom_site_type_symbol
  _atom_site_label
  _atom_site_symmetry_multiplicity
  _atom_site_fract_x
  _atom_site_fract_y
  _atom_site_fract_z
  _atom_site_occupancy
  Dy  Dy1       1.0  0.1031580724189567  0.3241859740768334  0.4098560327311559  1.0000
  Dy  Dy2       1.0  0.8968438861022178  0.6758109567426374  0.5901438804712312  1.0000
  Ag  Ag1       1.0  0.4807775374733366  0.8554777292386362  0.5137863704532464  1.0000
  Ag  Ag2       1.0  0.5192245586477711  0.1445201772247202  0.4862152994757096  1.0000
  H   H1        1.0  0.0430297710349947  0.0167605862804052  0.637313031658003  1.0000
  H   H2        1.0  0.9569652444411004  0.9832421984023725  0.3626880794727683  1.0000
  H   H3        1.0  0.1131231516306386  0.1367784430064916  0.9917758170392402  1.0000
  H   H4        1.0  0.8868775527290467  0.8632233660324005  0.008227836090227978  1.0000
  H   H5        1.0  0.21213620129971386  0.4113451204392362  0.8128010890556323  1.0000
  H   H6        1.0  0.7878570096151379  0.5886586398874201  0.18719983006509008  1.0000
  H   H7        1.0  0.2082061833541289  0.5481986880247831  0.9658596484289604  1.0000
  H   H8        1.0  0.791794383405616  0.4518021453702231  0.034141474231660085  1.0000
  H   H9        1.0  0.3608388299129928  0.4840003448245511  0.9832087673991197  1.0000
  H   H10       1.0  0.6391607657661638  0.5160004885704552  0.016791380893195706  1.0000
  H   H11       1.0  0.5209812798573878  0.534109414698321  0.1648730992788856  1.0000
  H   H12       1.0  0.4790166567415071  0.4658865404772712  0.8351265759197019  1.0000
  H   H13       1.0  0.5880122160033849  0.6683755747039299  0.3598459747778264  1.0000
  H   H14       1.0  0.4119872499568801  0.3316174535400052  0.6401550214313758  1.0000
  H   H15       1.0  0.21573336171051952  0.7749988165488445  0.33314372465267883  1.0000
  H   H16       1.0  0.7842688720105285  0.2250000655583904  0.6668581545182731  1.0000
  H   H17       1.0  0.13297784586724498  0.6427854112748221  0.13819249801669997  1.0000
  H   H18       1.0  0.8670216122119783  0.3572144464762985  0.8618089885181844  1.0000
  H   H19       1.0  0.5815957771462124  0.4102319107677772  0.4758422145718058  1.0000
  H   H20       1.0  0.4184082611360723  0.5897659956955721  0.5241583091246227  1.0000
  H   H21       1.0  0.3436264463679279  0.26362678256330696  0.1390713487302548  1.0000
  H   H22       1.0  0.656374953872465  0.7363730751878137  0.8609289915721091  1.0000
  H   H23       1.0  0.7630155625059913  0.2517756363063626  0.22331840870911882  1.0000
  H   H24       1.0  0.2369851418536868  0.7482261727325294  0.7766813757089394  1.0000
  H   H25       1.0  0.6835512656794123  0.0842624596713009  0.06998118122171348  1.0000
  H   H26       1.0  0.3164526271219046  0.9157413006553554  0.9300173023315637  1.0000
  H   H27       1.0  0.7248977933565257  0.23609801473701708  0.04516336832509175  1.0000
  H   H28       1.0  0.2751019399225711  0.7639037943018749  0.9548346679823752  1.0000
  H   H29       1.0  0.40020217843516537  0.1240365338836042  0.8708518528890393  1.0000
  H   H30       1.0  0.599796866844244  0.8759603969358665  0.12914668469300494  1.0000
  H   H31       1.0  0.34840282430853614  0.014256108430601  0.670541634225529  1.0000
  H   H32       1.0  0.6515958081710735  0.9857378954572198  0.3294578231150851  1.0000
  H   H33       1.0  0.7334431447685219  0.9403411855423727  0.7009972581953079  1.0000
  H   H34       1.0  0.2665590810714917  0.0596645260720479  0.299002790074482  1.0000
  H   H35       1.0  0.7991720428539395  0.0460006334789398  0.903781313624222  1.0000
  H   H36       1.0  0.2008304581859406  0.9540070294232521  0.09621837938728114  1.0000
  H   H37       1.0  0.9359461401224394  0.5077231258599966  0.31326972671903514  1.0000
  H   H38       1.0  0.0640573398790636  0.49227770753500977  0.68673122407737  1.0000
  H   H39       1.0  0.0375132538375027  0.4592306979017451  0.2467657908331802  1.0000
  H   H40       1.0  0.9624878712030238  0.5407672085616113  0.7532333572429123  1.0000
  C   C1        1.0  0.1299476218523878  0.2172515018329761  0.716007399254579  1.0000
  C   C2        1.0  0.8700437845012273  0.7827532341375658  0.2839941015983812  1.0000
  C   C3        1.0  0.0796904960417706  0.0914705166850709  0.715052132104553  1.0000
  C   C4        1.0  0.9203035483537363  0.9085322679976997  0.2849495521424715  1.0000
  C   C5        1.0  0.0750461806773615  0.0626646310148402  0.8151018688083835  1.0000
  C   C6        1.0  0.924949117879642  0.937333275448509  0.18489994422297684  1.0000
  C   C7        1.0  0.1197868093038821  0.1589294617450818  0.9147257349668578  1.0000
  C   C8        1.0  0.8802080685722798  0.8410723472938102  0.08527594066419648  1.0000
  C   C9        1.0  0.1695508577121672  0.2848704524899262  0.9146114315856336  1.0000
  C   C10       1.0  0.8304430490833994  0.7151313565489587  0.08539004341940169  1.0000
  C   C11       1.0  0.1750639070168489  0.3143690453176831  0.8157787009428361  1.0000
  C   C12       1.0  0.824928608017288  0.6856366662967446  0.18422475726270449  1.0000
  C   C13       1.0  0.1338850404741621  0.25394839523566043  0.6116380998841605  1.0000
  C   C14       1.0  0.8661090039213448  0.7460543894471101  0.38836358436287094  1.0000
  C   C15       1.0  0.023857727089136912  0.9261963005145333  0.8169356151358542  1.0000
  C   C16       1.0  0.9761417309900865  0.0738035572365874  0.18306432391447205  1.0000
  C   C17       1.0  0.2761153013961248  0.49837255487732074  0.017254971105607808  1.0000
  C   C18       1.0  0.7238842942830317  0.5016282785176784  0.9827459509289866  1.0000
  C   C19       1.0  0.3210650751314077  0.5778533838739506  0.13502597389426538  1.0000
  C   C20       1.0  0.6789346581476821  0.4221484251649414  0.864973609897774  1.0000
  C   C21       1.0  0.4500387082256481  0.5862848983180484  0.198572205192896  1.0000
  C   C22       1.0  0.5499606122536349  0.4137139837891866  0.8014267508731477  1.0000
  C   C23       1.0  0.4889002345591393  0.6615480188048579  0.30703285719639684  1.0000
  C   C24       1.0  0.5110996442009323  0.3384479363707342  0.6929687667388009  1.0000
  C   C25       1.0  0.2800724560247899  0.7196895647742352  0.2928331216312827  1.0000
  C   C26       1.0  0.7199288066156697  0.2803093173329998  0.7071693306559297  1.0000
  C   C27       1.0  0.2346457895442953  0.6453376956749324  0.18430381782601296  1.0000
  C   C28       1.0  0.7653546396155164  0.3546621620761883  0.8156978693348903  1.0000
  C   C29       1.0  0.6835499570312535  0.3341238826775736  0.3561557478930267  1.0000
  C   C30       1.0  0.3164508928093994  0.6658720724980114  0.6438429816990663  1.0000
  C   C31       1.0  0.5725961195903082  0.3645151896590377  0.3896046425049491  1.0000
  C   C32       1.0  0.42740570133093303  0.6354807655165473  0.6103958351977282  1.0000
  C   C33       1.0  0.45021780597764405  0.335391244082679  0.3110754918495289  1.0000
  C   C34       1.0  0.5497834566628157  0.6646076380245631  0.688925412953118  1.0000
  C   C35       1.0  0.4391625886527494  0.2831142934990254  0.1996841936937841  1.0000
  C   C36       1.0  0.5608396450682988  0.7168845886082096  0.8003161379926027  1.0000
  C   C37       1.0  0.5517428350642818  0.2533347152327252  0.1670607254340055  1.0000
  C   C38       1.0  0.44825828997624484  0.7466631912306241  0.832939196384359  1.0000
  C   C39       1.0  0.6739945677536809  0.2759013582658341  0.2452847033720289  1.0000
  C   C40       1.0  0.3260062742059375  0.7241014264169365  0.7547137428034603  1.0000
  C   C41       1.0  0.8139691160650883  0.359022314593048  0.43959655780782464  1.0000
  C   C42       1.0  0.186033538336801  0.6409726649386585  0.5604000425674656  1.0000
  C   C43       1.0  0.32989728327785167  0.3478004586411743  0.34872957051784675  1.0000
  C   C44       1.0  0.6701060591237181  0.6521993991099464  0.6512719447788413  1.0000
  C   C45       1.0  0.6440057674225415  0.155228844493692  0.024389736752127036  1.0000
  C   C46       1.0  0.3559967414983802  0.8447719889013142  0.9756086921914076  1.0000
  C   C47       1.0  0.604306081738585  0.092930079935293  0.903064408926369  1.0000
  C   C48       1.0  0.3956937891404452  0.9070727047474847  0.0969353841076668  1.0000
  C   C49       1.0  0.47657252344930606  0.0841336746786325  0.836503460682195  1.0000
  C   C50       1.0  0.5234276305106319  0.9158642317847239  0.1634939392833061  1.0000
  C   C51       1.0  0.4472739132491198  0.0231832499676869  0.7245792555671143  1.0000
  C   C52       1.0  0.5527259655109518  0.9768127052078981  0.2754184996566735  1.0000
  C   C53       1.0  0.6622347602202296  0.9821904542955977  0.7414671333796932  1.0000
  C   C54       1.0  0.337768299100432  0.0178142816749443  0.2585336800163986  1.0000
  C   C55       1.0  0.6985904071071687  0.0408502094161776  0.8538451932408293  1.0000
  C   C56       1.0  0.3014118187328378  0.9591555021982501  0.14615408128667445  1.0000
  N   N1        1.0  0.4056701152198983  0.7290333062497253  0.3530260018144348  1.0000
  N   N2        1.0  0.5943317057013432  0.2709626489258596  0.6469752496305219  1.0000
  N   N3        1.0  0.5382383062009166  0.973059403186781  0.6774213954804793  1.0000
  N   N4        1.0  0.4617640651200645  0.026940454564339696  0.3225791454479037  1.0000
  O   O1        1.0  0.1388472390465267  0.37586778189134407  0.6115818078543995  1.0000
  O   O2        1.0  0.8611554074743281  0.624134027147548  0.3884183778156967  1.0000
  O   O3        1.0  0.9669912648851664  0.4285388926040596  0.2746740839221147  1.0000
  O   O4        1.0  0.033010135355226594  0.571460965147061  0.7253262563802494  1.0000
  O   O5        1.0  0.1320172498901826  0.168222469738609  0.5249999357607749  1.0000
  O   O6        1.0  0.8679698593412795  0.8317793393002831  0.4750016823466723  1.0000
  O   O7        1.0  0.9430715113671796  0.8580348918581677  0.7250953256247641  1.0000
  O   O8        1.0  0.05692712111242321  0.1419591120296531  0.2749010367467264  1.0000
  O   O9        1.0  0.0615098551991693  0.8890457327058598  0.903166359104638  1.0000
  O   O10       1.0  0.9384869648381624  0.1109560763330251  0.09683417029389566  1.0000
  O   O11       1.0  0.2111481635866639  0.3743467530764448  0.015734570014693403  1.0000
  O   O12       1.0  0.788851569692433  0.6256550559624472  0.9842673350041834  1.0000
  O   O13       1.0  0.8955966554096834  0.2819366913312393  0.41967512680261615  1.0000
  O   O14       1.0  0.1044040568310365  0.7180582882004671  0.5803226198051945  1.0000
  O   O15       1.0  0.8366106603344008  0.4534197629296202  0.5246894940095572  1.0000
  O   O16       1.0  0.16339642878958216  0.5465791191776148  0.4753071983532493  1.0000
  O   O17       1.0  0.3297705129321288  0.3147193014719818  0.4391255062521253  1.0000
  O   O18       1.0  0.6702303369085242  0.6852766537036104  0.5608732233399678  1.0000
  O   O19       1.0  0.23013481800898455  0.3831675494301976  0.2916599567899708  1.0000
  O   O20       1.0  0.7698658942317351  0.6168274301015089  0.7083370160755605  1.0000
  O   O21       1.0  0.532860391889777  0.2002499315132624  0.0564381558714899  1.0000
  O   O22       1.0  0.4671392037893796  0.7997509018817439  0.943560444936267  1.0000
