data_image0
_chemical_formula_structural       Cd2H16C28S4N16F4
_chemical_formula_sum              "Cd2 H16 C28 S4 N16 F4"
_cell_length_a       7.269041383592031
_cell_length_b       8.851486656266658
_cell_length_c       14.110425313526791
_cell_angle_alpha    108.26609149019484
_cell_angle_beta     100.71738532325126
_cell_angle_gamma    89.91763097922636

_space_group_name_H-M_alt    "P 1"
_space_group_IT_number       1

loop_
  _space_group_symop_operation_xyz
  'x, y, z'

loop_
  _atom_site_type_symbol
  _atom_site_label
  _atom_site_symmetry_multiplicity
  _atom_site_fract_x
  _atom_site_fract_y
  _atom_site_fract_z
  _atom_site_occupancy
  Cd  Cd1       1.0  0.24992067951537683  0.3853295926549833  0.9999932643478074  1.0000
  Cd  Cd2       1.0  0.7500748249940797  0.6146696715617636  6.8250068637055555e-06  1.0000
  H   H1        1.0  0.6159086420692789  0.9745536246479032  0.42296569891203717  1.0000
  H   H2        1.0  0.8841263434198013  0.5527001805226206  0.5766717317999195  1.0000
  H   H3        1.0  0.3840853724752691  0.0254444517457912  0.5770340048759123  1.0000
  H   H4        1.0  0.11587913152036582  0.4473014301467231  0.4233305211033097  1.0000
  H   H5        1.0  0.6970328624482891  0.2648700326325867  0.5120928327459566  1.0000
  H   H6        1.0  0.8032092218246805  0.7545853410430609  0.487934230540219  1.0000
  H   H7        1.0  0.3029639601940275  0.7351280445873768  0.4879064394755017  1.0000
  H   H8        1.0  0.1967890737862419  0.24541390613756423  0.5120668394372956  1.0000
  H   H9        1.0  0.41037653953333125  0.37147166859582365  0.24706219612264846  1.0000
  H   H10       1.0  0.09004190217682861  0.12468321886544223  0.7533056977015917  1.0000
  H   H11       1.0  0.5896227305463668  0.6285216419483318  0.7529356513217847  1.0000
  H   H12       1.0  0.9099652208785686  0.8753208429520356  0.24669154031367668  1.0000
  H   H13       1.0  0.3225815880776466  0.0801317179569736  0.15798666201021655  1.0000
  H   H14       1.0  0.17739072712711126  0.9216861784610726  0.8420897658195086  1.0000
  H   H15       1.0  0.677413645936511  0.9198639706332229  0.8420126824365538  1.0000
  H   H16       1.0  0.8226207671597553  0.07832024601885479  0.1579090866879653  1.0000
  C   C1        1.0  0.4262211953705092  0.7528404087034913  0.13852398161661478  1.0000
  C   C2        1.0  0.07338772982844691  0.6140884677034038  0.8611570147326045  1.0000
  C   C3        1.0  0.5737754299453072  0.247155266903043  0.8614762061889107  1.0000
  C   C4        1.0  0.9266125320673383  0.3859179534714556  0.13884356404081902  1.0000
  C   C5        1.0  0.46966839857415726  0.011382181497324995  0.2848188139250921  1.0000
  C   C6        1.0  0.030300836488123695  0.7268367229807069  0.7150240415516862  1.0000
  C   C7        1.0  0.5303270157702045  0.9886158908439098  0.7151810271269453  1.0000
  C   C8        1.0  0.969709043676133  0.2731672860758678  0.2849770014650942  1.0000
  C   C9        1.0  0.5722722514593528  0.061348185667583294  0.38449122945642233  1.0000
  C   C10       1.0  0.9278614567740888  0.677768573954708  0.615321401894178  1.0000
  C   C11       1.0  0.42772446402156566  0.9386486818144701  0.6155092066517368  1.0000
  C   C12       1.0  0.0721428973597256  0.32223662532484804  0.38468075255821077  1.0000
  C   C13       1.0  0.6189388752947594  0.22302101655154866  0.43408252894788285  1.0000
  C   C14       1.0  0.8812730662279621  0.790295833047267  0.5659587275011262  1.0000
  C   C15       1.0  0.38105646588080333  0.7769758817765576  0.5659156516121867  1.0000
  C   C16       1.0  0.11872820931277768  0.2097057897794627  0.4340431136098458  1.0000
  C   C17       1.0  0.5626242531367254  0.3291266201203199  0.38117782876191336  1.0000
  C   C18       1.0  0.9377954752664905  0.949037634551274  0.6190185553920812  1.0000
  C   C19       1.0  0.4373792078442449  0.670866669335254  0.6188211365694514  1.0000
  C   C20       1.0  0.0622031078360408  0.05096520611829901  0.3809818473040139  1.0000
  C   C21       1.0  0.4581362535191006  0.2817700811021168  0.28256803324015317  1.0000
  C   C22       1.0  0.042173226195430416  0.9996625620725298  0.7176609438793519  1.0000
  C   C23       1.0  0.5418633125503477  0.7182268318621821  0.7174284408281862  1.0000
  C   C24       1.0  0.9578308829375362  0.0003390883740550994  0.2823383473811276  1.0000
  C   C25       1.0  0.4101356685443989  0.12013071070573024  0.2338114874260099  1.0000
  C   C26       1.0  0.08999725429463719  0.8863475336052103  0.7662140451346742  1.0000
  C   C27       1.0  0.5898606046091787  0.8798602063299297  0.766187001074307  1.0000
  C   C28       1.0  0.910008623796692  0.1136588892221795  0.23378567050577453  1.0000
  S   S1        1.0  0.5048859958411711  0.8116744360498914  0.04774270077546562  1.0000
  S   S2        1.0  0.9944169032392981  0.7636539509610215  0.9518914621783451  1.0000
  S   S3        1.0  0.4951094100050355  0.18832362736014116  0.952257846371239  1.0000
  S   S4        1.0  0.005576089162140394  0.23634891484960005  0.048107685366723295  1.0000
  N   N1        1.0  0.420885074080843  0.8461641419108046  0.23572594531093216  1.0000
  N   N2        1.0  0.07892567611957449  0.6103872495253669  0.7640003196831698  1.0000
  N   N3        1.0  0.5791102331021066  0.1538327206925132  0.7642750596277992  1.0000
  N   N4        1.0  0.9210816579440575  0.389620325400294  0.2360026059026694  1.0000
  N   N5        1.0  0.3554518406675768  0.7559658490424609  0.28662101998601497  1.0000
  N   N6        1.0  0.14459363617218202  0.469256115354618  0.7131260541536973  1.0000
  N   N7        1.0  0.6445462746131484  0.24403101438713287  0.7133795533862325  1.0000
  N   N8        1.0  0.8554150891931088  0.5307514465873877  0.28687771479088997  1.0000
  N   N9        1.0  0.3188052820924342  0.6137807697256648  0.22332422795716408  1.0000
  N   N10       1.0  0.1812211157358732  0.3902106209812428  0.7764088488188605  1.0000
  N   N11       1.0  0.6811927345250411  0.38621489289721467  0.776676803207117  1.0000
  N   N12       1.0  0.8187833115667331  0.6097957523114417  0.22359496612549626  1.0000
  N   N13       1.0  0.35824702756690396  0.6071789940700965  0.13173507145768323  1.0000
  N   N14       1.0  0.14150184215122863  0.4750946501081045  0.8679555548695673  1.0000
  N   N15       1.0  0.6417509890505712  0.3928166685527755  0.8682659597065906  1.0000
  N   N16       1.0  0.8584968226182427  0.5249093735057855  0.13204580222382842  1.0000
  F   F1        1.0  0.6091670010317926  0.4874544681239712  0.4284032028321859  1.0000
  F   F2        1.0  0.891646853970343  0.06053694363843219  0.5719579703101656  1.0000
  F   F3        1.0  0.39083667427198776  0.5125412408074154  0.5715934347257913  1.0000
  F   F4        1.0  0.10834883936746559  0.9394647132605484  0.42804190955511245  1.0000
