data_image0
_chemical_formula_structural       Ag4H16C24N4O12
_chemical_formula_sum              "Ag4 H16 C24 N4 O12"
_cell_length_a       3.6115675854356377
_cell_length_b       10.841264514016881
_cell_length_c       17.643162416350116
_cell_angle_alpha    90.00147751666624
_cell_angle_beta     90.00152625901235
_cell_angle_gamma    91.77613488472053

_space_group_name_H-M_alt    "P 1"
_space_group_IT_number       1

loop_
  _space_group_symop_operation_xyz
  'x, y, z'

loop_
  _atom_site_type_symbol
  _atom_site_label
  _atom_site_symmetry_multiplicity
  _atom_site_fract_x
  _atom_site_fract_y
  _atom_site_fract_z
  _atom_site_occupancy
  Ag  Ag1       1.0  0.6920363690716231  0.3981920306648234  0.475604395284364  1.0000
  Ag  Ag2       1.0  0.3079980399667903  0.10181409565820586  0.9756061657863667  1.0000
  Ag  Ag3       1.0  0.30795514196596235  0.6018035584490491  0.5243954860301798  1.0000
  Ag  Ag4       1.0  0.6920555062968959  0.8981973332219936  0.0243925822293036  1.0000
  H   H1        1.0  0.9186428279974663  0.34311273823810495  0.3286643709627839  1.0000
  H   H2        1.0  0.08132158643483221  0.15688752952512888  0.8286657687473493  1.0000
  H   H3        1.0  0.08135145244669673  0.6568828577659289  0.6713349435673663  1.0000
  H   H4        1.0  0.9186643205644888  0.843107122963573  0.1713341125452104  1.0000
  H   H5        1.0  0.05314940916555602  0.2805220820191181  0.19360530921540692  1.0000
  H   H6        1.0  0.9468109933149835  0.21948225236636887  0.693604322159203  1.0000
  H   H7        1.0  0.9468226505280557  0.7194725359289224  0.8063934384564392  1.0000
  H   H8        1.0  0.0531582968551234  0.7805123586529915  0.3063932919216015  1.0000
  H   H9        1.0  0.5269675460925216  0.9503959508026867  0.28033134823942163  1.0000
  H   H10       1.0  0.47303972669499234  0.5496192080667085  0.7803377417064183  1.0000
  H   H11       1.0  0.4730438720464251  0.049607069121421404  0.719665699225189  1.0000
  H   H12       1.0  0.5269557919742456  0.45039392164299835  0.2196678076695306  1.0000
  H   H13       1.0  0.370647855068583  0.0235815932374877  0.41263580573320985  1.0000
  H   H14       1.0  0.6293753847508228  0.47642536471933267  0.9126398493154612  1.0000
  H   H15       1.0  0.6293796588001188  0.9764140856281855  0.5873646424695806  1.0000
  H   H16       1.0  0.37061961289692397  0.5235803824882839  0.0873679671705361  1.0000
  C   C1        1.0  0.055988195686175905  0.2584905182496797  0.3140909197042845  1.0000
  C   C2        1.0  0.9440021692576579  0.24151284952333194  0.8140902507717485  1.0000
  C   C3        1.0  0.9440006760053239  0.7415069095353671  0.6859061276580789  1.0000
  C   C4        1.0  0.055973180630154204  0.7584891577399161  0.1859022622547783  1.0000
  C   C5        1.0  0.13164144002642794  0.22235429057406722  0.24092936055408395  1.0000
  C   C6        1.0  0.8683217900274942  0.2776392615431504  0.7409322362450439  1.0000
  C   C7        1.0  0.8683668177059618  0.7776431855062782  0.7590665532765897  1.0000
  C   C8        1.0  0.13163332791956614  0.7223507011092636  0.2590761468073524  1.0000
  C   C9        1.0  0.3064432819751418  0.1115680020320795  0.2263352322442742  1.0000
  C   C10       1.0  0.693558211479399  0.3884462103854461  0.7263382868512168  1.0000
  C   C11       1.0  0.6935455897163578  0.8884294257529671  0.7736618151180963  1.0000
  C   C12       1.0  0.30642828172755543  0.6115567474373691  0.2736598941302617  1.0000
  C   C13       1.0  0.3924353040251988  0.0377202372037715  0.2886893702576785  1.0000
  C   C14       1.0  0.6075767538253275  0.46228573347348595  0.7887027195728892  1.0000
  C   C15       1.0  0.6075785574726214  0.9622781754118677  0.7113025760522831  1.0000
  C   C16       1.0  0.3924010413312616  0.537711667110429  0.2113124650978051  1.0000
  C   C17       1.0  0.3116018085439478  0.0752755073749398  0.3614598400089477  1.0000
  C   C18       1.0  0.6884227664439992  0.42473007567545545  0.8614679503060076  1.0000
  C   C19       1.0  0.6884315044927335  0.9247238764707361  0.6385360739027844  1.0000
  C   C20       1.0  0.31156907009560103  0.575270127457287  0.13852853029342072  1.0000
  C   C21       1.0  0.39019102298838976  0.07537152759146439  0.1464300051832126  1.0000
  C   C22       1.0  0.6098405663472521  0.42463270858474533  0.6464354288355878  1.0000
  C   C23       1.0  0.6098258689334557  0.9246305833322948  0.8535676090808977  1.0000
  C   C24       1.0  0.39012074192367413  0.575366496052645  0.3535723875113419  1.0000
  N   N1        1.0  0.14768001989795473  0.18583975679008097  0.37423346027537724  1.0000
  N   N2        1.0  0.8523571287636004  0.31416274118350157  0.8742362362823286  1.0000
  N   N3        1.0  0.8523557369263557  0.8141550198883606  0.625763587191642  1.0000
  N   N4        1.0  0.14766478153455864  0.6858320012110681  0.1257710134002323  1.0000
  O   O1        1.0  0.07887276696969543  0.21940675848423297  0.4437035031339677  1.0000
  O   O2        1.0  0.9211353594396886  0.28060155859010644  0.9437038703567637  1.0000
  O   O3        1.0  0.92115552858715  0.7805999941859337  0.5562958115710045  1.0000
  O   O4        1.0  0.07886478582632611  0.7193986653800265  0.056298278183035705  1.0000
  O   O5        1.0  0.5526811220330006  0.9734134517863139  0.1373079115161815  1.0000
  O   O6        1.0  0.4473145923897875  0.5265924795837121  0.6373109860869023  1.0000
  O   O7        1.0  0.447330295989012  0.026589568099268508  0.862687435572994  1.0000
  O   O8        1.0  0.5526776350718381  0.47341326047696  0.3626860613472402  1.0000
  O   O9        1.0  0.2892745859922315  0.14964367812431328  0.0955182237934267  1.0000
  O   O10       1.0  0.7107364145991327  0.3503619083067093  0.5955258950476364  1.0000
  O   O11       1.0  0.7107419802327118  0.8503538187163786  0.9044799572267408  1.0000
  O   O12       1.0  0.2892587781783151  0.6496466072557396  0.4044773871253113  1.0000
