data_image0
_chemical_formula_structural       Cu5H26C16O26
_chemical_formula_sum              "Cu5 H26 C16 O26"
_cell_length_a       8.624388026367322
_cell_length_b       8.910114779299176
_cell_length_c       12.64349139287693
_cell_angle_alpha    106.95558793589097
_cell_angle_beta     90.57321456763283
_cell_angle_gamma    109.48763631477794

_space_group_name_H-M_alt    "P 1"
_space_group_IT_number       1

loop_
  _space_group_symop_operation_xyz
  'x, y, z'

loop_
  _atom_site_type_symbol
  _atom_site_label
  _atom_site_symmetry_multiplicity
  _atom_site_fract_x
  _atom_site_fract_y
  _atom_site_fract_z
  _atom_site_occupancy
  Cu  Cu1       1.0  0.0001052360595891993  0.00023568332677119993  0.9998865044373986  1.0000
  Cu  Cu2       1.0  0.005533714686677595  0.055372352267845294  0.3268332682562871  1.0000
  Cu  Cu3       1.0  0.9949626350008739  0.9445908495994711  0.6732301123290299  1.0000
  Cu  Cu4       1.0  0.6458077180315911  0.06693600753268206  0.33979736110303804  1.0000
  Cu  Cu5       1.0  0.3534005635305277  0.9326508476518639  0.6598028282899264  1.0000
  H   H1        1.0  0.8754342111039081  0.5245015305369448  0.24325498899085568  1.0000
  H   H2        1.0  0.12431687627484678  0.4755478229489966  0.7568017255644505  1.0000
  H   H3        1.0  0.11204572731193703  0.5786846231257737  0.13994043481164195  1.0000
  H   H4        1.0  0.8881829609095887  0.4219005458373744  0.8604867763218139  1.0000
  H   H5        1.0  0.31646690856739923  0.5536595999766263  0.3280978562154147  1.0000
  H   H6        1.0  0.683386914861039  0.44609254540883814  0.6721100843237124  1.0000
  H   H7        1.0  0.1129566519470231  0.6028177328145148  0.4457910801657263  1.0000
  H   H8        1.0  0.8864240929041713  0.3967300380694425  0.554323921557021  1.0000
  H   H9        1.0  0.23702490692735267  0.07166174011732097  0.8831383777347455  1.0000
  H   H10       1.0  0.7637799267929425  0.9292454227584771  0.11716718178242054  1.0000
  H   H11       1.0  0.28467782835019756  0.1820424752476484  0.015559387834642299  1.0000
  H   H12       1.0  0.7154281116771983  0.8186402249728246  0.984784640595997  1.0000
  H   H13       1.0  0.22968713189960244  0.9593867096775951  0.18593113905048853  1.0000
  H   H14       1.0  0.7699449534305316  0.040448931743931396  0.8135531280161247  1.0000
  H   H15       1.0  0.23997921876024725  0.13936440962541496  0.1818140720511607  1.0000
  H   H16       1.0  0.7601863087222752  0.8606249189973807  0.8178672006187141  1.0000
  H   H17       1.0  0.20224468433487164  0.08562029064397339  0.47875314721544265  1.0000
  H   H18       1.0  0.7983770672903319  0.9144955090115869  0.5211868564143459  1.0000
  H   H19       1.0  0.20521991376347162  0.2779843314970165  0.49879234916041787  1.0000
  H   H20       1.0  0.795118230938975  0.7219374463043093  0.5007849361361139  1.0000
  H   H21       1.0  0.5247887125616018  0.17924315452090409  0.5160325719706904  1.0000
  H   H22       1.0  0.4755346651322227  0.8199082133750221  0.48411118853715607  1.0000
  H   H23       1.0  0.43199819579887594  0.20543589984587377  0.41915601275337616  1.0000
  H   H24       1.0  0.5678806418342502  0.7939641860064766  0.5812647477866122  1.0000
  H   H25       1.0  0.7401190471786805  0.8337767579811411  0.2601735751623409  1.0000
  H   H26       1.0  0.2596043921360263  0.16593678439171097  0.7388617918377918  1.0000
  C   C1        1.0  0.9783450735671906  0.4937908720195097  0.2707778175228128  1.0000
  C   C2        1.0  0.021378606440443083  0.5061945569968102  0.7293058800721609  1.0000
  C   C3        1.0  0.9126062194741349  0.3306873343443683  0.2972508970215983  1.0000
  C   C4        1.0  0.08715789585384215  0.6693041364316131  0.7028272958119075  1.0000
  C   C5        1.0  0.12279572234081115  0.5085750706781054  0.19659621398587745  1.0000
  C   C6        1.0  0.8770031112783699  0.49152918331970596  0.8035884605055585  1.0000
  C   C7        1.0  0.14829870361720046  0.34850780198663495  0.1302484959657519  1.0000
  C   C8        1.0  0.8517060534921157  0.6518956556531492  0.8696616794195081  1.0000
  C   C9        1.0  0.25049688083385035  0.6221396083190596  0.29827859087767183  1.0000
  C   C10       1.0  0.7492838301843392  0.377616697851927  0.7019991249003256  1.0000
  C   C11       1.0  0.372505073181003  0.7847572250852011  0.2900234749593409  1.0000
  C   C12       1.0  0.6270581926401492  0.2150306700916857  0.7100688728244648  1.0000
  C   C13       1.0  0.10232264202098665  0.6345230780089892  0.36915812837744255  1.0000
  C   C14       1.0  0.8974172526244857  0.3652737416117374  0.6310238992884648  1.0000
  C   C15       1.0  0.0885907519610782  0.8057595451193293  0.3991905365128687  1.0000
  C   C16       1.0  0.9117191500993086  0.19423488288269644  0.6009415767930193  1.0000
  O   O1        1.0  0.7569395340430559  0.2634764694969148  0.2930364317275007  1.0000
  O   O2        1.0  0.24271577119030502  0.7363272836928443  0.7069397996457809  1.0000
  O   O3        1.0  0.022556666146684303  0.2791403680217499  0.3274429920317203  1.0000
  O   O4        1.0  0.9771217169393084  0.7208803817870332  0.6728254813970694  1.0000
  O   O5        1.0  0.016547178713480482  0.23381183771055444  0.0720933877047329  1.0000
  O   O6        1.0  0.9835367042599684  0.7666012390304928  0.9277514739690461  1.0000
  O   O7        1.0  0.29082751448614624  0.3384752847995215  0.136761731374186  1.0000
  O   O8        1.0  0.7092927931297055  0.6621147691610499  0.8629971419678524  1.0000
  O   O9        1.0  0.34980563881278925  0.8475147353565332  0.2179041734868008  1.0000
  O   O10       1.0  0.6492565602412413  0.15211283568884673  0.7822226414920621  1.0000
  O   O11       1.0  0.5029052709562833  0.8560033023904053  0.36509926763263684  1.0000
  O   O12       1.0  0.49693455275247095  0.14386099497791346  0.6347368535305264  1.0000
  O   O13       1.0  0.7771809052301889  0.9460394886453113  0.2526493078259548  1.0000
  O   O14       1.0  0.22318597756319036  0.05454985750137809  0.7478006066155771  1.0000
  O   O15       1.0  0.9939977078194815  0.8323501102047286  0.33373281897851836  1.0000
  O   O16       1.0  0.006906271972525183  0.16784444411174346  0.6661326148138258  1.0000
  O   O17       1.0  0.17806997983912956  0.9156155419223493  0.4867401764937398  1.0000
  O   O18       1.0  0.8222100948516273  0.08437025828320088  0.5134112468007359  1.0000
  O   O19       1.0  0.5423668716081451  0.20995805045050983  0.4451121598658787  1.0000
  O   O20       1.0  0.4575961653986695  0.7892093621165371  0.5549516590695305  1.0000
  O   O21       1.0  0.21517726939004692  0.1805084897124516  0.4434998631691158  1.0000
  O   O22       1.0  0.7853239082995458  0.8193456085955688  0.5562422342279021  1.0000
  O   O23       1.0  0.16449325575628393  0.0326866544572368  0.18858215787392402  1.0000
  O   O24       1.0  0.8353450599151984  0.9672847423082869  0.810813204872474  1.0000
  O   O25       1.0  0.2318853451300598  0.0672238704152903  0.9613260257169075  1.0000
  O   O26       1.0  0.7685285362264834  0.933445751397386  0.038898752234516144  1.0000
