data_image0
_chemical_formula_structural       Ca2H24C12S4N8O18
_chemical_formula_sum              "Ca2 H24 C12 S4 N8 O18"
_cell_length_a       5.897082846557126
_cell_length_b       9.219654879508283
_cell_length_c       13.010061324882612
_cell_angle_alpha    74.79177751107785
_cell_angle_beta     88.29075760815888
_cell_angle_gamma    79.39137876027195

_space_group_name_H-M_alt    "P 1"
_space_group_IT_number       1

loop_
  _space_group_symop_operation_xyz
  'x, y, z'

loop_
  _atom_site_type_symbol
  _atom_site_label
  _atom_site_symmetry_multiplicity
  _atom_site_fract_x
  _atom_site_fract_y
  _atom_site_fract_z
  _atom_site_occupancy
  Ca  Ca1       1.0  0.18676706995001519  0.052663195459359685  0.7007559893088953  1.0000
  Ca  Ca2       1.0  0.8132333609740172  0.9473346831118193  0.299244889956384  1.0000
  H   H1        1.0  0.6425997695651163  0.3045804418084188  0.6846417175521536  1.0000
  H   H2        1.0  0.35740197761859366  0.6954129113564775  0.3153576374016396  1.0000
  H   H3        1.0  0.5978976972659995  0.7821695540050583  0.8301829776894962  1.0000
  H   H4        1.0  0.40210112397805636  0.21783404026983524  0.1698169135090239  1.0000
  H   H5        1.0  0.5968186330396179  0.5956619126003986  0.6191576141641235  1.0000
  H   H6        1.0  0.40319664758920487  0.4043314280389508  0.3808439162522106  1.0000
  H   H7        1.0  0.9533910678661358  0.4328595634326005  0.6118235994544818  1.0000
  H   H8        1.0  0.04661418390662676  0.5671451441419108  0.3881783392444049  1.0000
  H   H9        1.0  0.9557772045497261  0.5772669978357781  0.8284930624573406  1.0000
  H   H10       1.0  0.044227744297508344  0.42273888431727596  0.1715071354515985  1.0000
  H   H11       1.0  0.5475126871263429  0.03644057580323331  0.8718744760123656  1.0000
  H   H12       1.0  0.4524799970092915  0.9635607148746036  0.12812588006404005  1.0000
  H   H13       1.0  0.36972266500284695  0.9358801070461097  0.9233150570411297  1.0000
  H   H14       1.0  0.6302683333929195  0.06412119502172692  0.07668454485976639  1.0000
  H   H15       1.0  0.9712435914539698  0.8567999730290052  0.9017638471428029  1.0000
  H   H16       1.0  0.02875478426802402  0.1431989814784274  0.09823993827512109  1.0000
  H   H17       1.0  0.6582446213221544  0.0856517672729851  0.5981202559644458  1.0000
  H   H18       1.0  0.34174873520117915  0.9143472842800617  0.40187818057376035  1.0000
  H   H19       1.0  0.15095701516605697  0.7599517527927233  0.8441418684532707  1.0000
  H   H20       1.0  0.8490424404447552  0.24004953948178803  0.15585918956025316  1.0000
  H   H21       1.0  0.6242303524229059  0.9210486577219754  0.6035373640336843  1.0000
  H   H22       1.0  0.3757626631539567  0.07895150553401457  0.39646241806777033  1.0000
  H   H23       1.0  0.3271019537039594  0.3891932830227134  0.902727540809984  1.0000
  H   H24       1.0  0.6728992541833563  0.6108081078940799  0.09726887026095457  1.0000
  C   C1        1.0  0.4588987350271837  0.5310710584055798  0.6223037772835909  1.0000
  C   C2        1.0  0.5411057587747408  0.4689245896985951  0.37769514761790646  1.0000
  C   C3        1.0  0.22350001762204388  0.5796049138965172  0.5994764393771206  1.0000
  C   C4        1.0  0.7765014171489211  0.42039517669054044  0.4005278851901579  1.0000
  C   C5        1.0  0.12997018834788326  0.4451796411379759  0.6202312813169257  1.0000
  C   C6        1.0  0.870031625390489  0.5548194006217386  0.37976861133390827  1.0000
  C   C7        1.0  0.7829885640277823  0.5540903840528912  0.8445282172593451  1.0000
  C   C8        1.0  0.21701569340327603  0.4459121272246307  0.1554695045492451  1.0000
  C   C9        1.0  0.696345070741245  0.4183777725123008  0.8711962600783351  1.0000
  C   C10       1.0  0.30366120387090945  0.5816235999533675  0.1288016419308136  1.0000
  C   C11       1.0  0.45601220391968417  0.46203747526737254  0.8818139793817109  1.0000
  C   C12       1.0  0.5439933887995423  0.5379661206041889  0.1181866137539345  1.0000
  S   S1        1.0  0.07222915776447547  0.7665426026736738  0.5573126860924305  1.0000
  S   S2        1.0  0.9277746921654569  0.23345533171198699  0.4426858435823675  1.0000
  S   S3        1.0  0.8513896486228347  0.2327867445897311  0.8874368396643817  1.0000
  S   S4        1.0  0.14861121831801677  0.7672157580300051  0.11256091696979813  1.0000
  N   N1        1.0  0.29498905810650916  0.3217469810748669  0.6537115090004092  1.0000
  N   N2        1.0  0.7050079728220809  0.678250873119623  0.3462901766787638  1.0000
  N   N3        1.0  0.49227220871937755  0.3772529618001811  0.6534320275575496  1.0000
  N   N4        1.0  0.50773398032765  0.622742690632883  0.3465668799311529  1.0000
  N   N5        1.0  0.39945876503221467  0.6141996472629216  0.8626791603196153  1.0000
  N   N6        1.0  0.6005431437765196  0.3858051302483004  0.13731895526336763  1.0000
  N   N7        1.0  0.599994242940966  0.6670758173711064  0.8400312700854257  1.0000
  N   N8        1.0  0.400009635522686  0.33292774273377285  0.15997088363960904  1.0000
  O   O1        1.0  0.1018551920605193  0.8165685489289057  0.4397423648423385  1.0000
  O   O2        1.0  0.8981452578739778  0.18342936108006563  0.5602569712463463  1.0000
  O   O3        1.0  0.8314125780358949  0.7585384060974288  0.5840705760235991  1.0000
  O   O4        1.0  0.16858948157857875  0.24145378820782773  0.4159297481318447  1.0000
  O   O5        1.0  0.18243466994832144  0.856408575292633  0.6115667108829541  1.0000
  O   O6        1.0  0.817555997006217  0.14359385419705006  0.38843346499289305  1.0000
  O   O7        1.0  0.8920486557464572  0.2113024672102455  0.7785410621688056  1.0000
  O   O8        1.0  0.10794942655524419  0.7886976775946265  0.22146021087085901  1.0000
  O   O9        1.0  0.06517512522892592  0.21986453371394526  0.9455622149189509  1.0000
  O   O10       1.0  0.9348236104499962  0.7801333405283442  0.05443868175912317  1.0000
  O   O11       1.0  0.6953417139514642  0.13154667536348796  0.9440746064805479  1.0000
  O   O12       1.0  0.3046540292331415  0.8684557513939808  0.055926288745212153  1.0000
  O   O13       1.0  0.02746586541964299  0.8540154322016491  0.8302446634485676  1.0000
  O   O14       1.0  0.972532197871587  0.1459846811654231  0.16975815276769882  1.0000
  O   O15       1.0  0.44327008478730096  0.9733209337609238  0.8541635522835874  1.0000
  O   O16       1.0  0.5567243040986726  0.026680376964698393  0.1458360147917261  1.0000
  O   O17       1.0  0.5491248947164921  0.015275063839865799  0.6221159470259963  1.0000
  O   O18       1.0  0.45087182378134144  0.9847239492142702  0.37788476945152644  1.0000
