data_image0
_chemical_formula_structural       Cu8H32C24Br8N8
_chemical_formula_sum              "Cu8 H32 C24 Br8 N8"
_cell_length_a       3.9933701100061585
_cell_length_b       12.571858287766174
_cell_length_c       17.641264307196284
_cell_angle_alpha    89.999689425511
_cell_angle_beta     89.99954598209423
_cell_angle_gamma    92.03360792323633

_space_group_name_H-M_alt    "P 1"
_space_group_IT_number       1

loop_
  _space_group_symop_operation_xyz
  'x, y, z'

loop_
  _atom_site_type_symbol
  _atom_site_label
  _atom_site_symmetry_multiplicity
  _atom_site_fract_x
  _atom_site_fract_y
  _atom_site_fract_z
  _atom_site_occupancy
  Cu  Cu1       1.0  0.8388249907982938  0.2970933148560633  0.5552887661241004  1.0000
  Cu  Cu2       1.0  0.6611689414022238  0.20290948855612354  0.055281302894670106  1.0000
  Cu  Cu3       1.0  0.16118065109392887  0.7029106589765206  0.44471659923792123  1.0000
  Cu  Cu4       1.0  0.3388189614539385  0.7970929351335838  0.9447161265478529  1.0000
  Cu  Cu5       1.0  0.49978978135187196  0.23308046963527568  0.6753044164853323  1.0000
  Cu  Cu6       1.0  0.00017904874121650206  0.2669170155567713  0.17530323946069615  1.0000
  Cu  Cu7       1.0  0.5002010554105425  0.7669251317250102  0.3246947135066095  1.0000
  Cu  Cu8       1.0  0.9998033090848393  0.7330814404864225  0.8246970242587681  1.0000
  H   H1        1.0  0.2675460293998313  0.40494083771454825  0.2975161818912255  1.0000
  H   H2        1.0  0.23245736498220276  0.09504603688748858  0.7975183997420174  1.0000
  H   H3        1.0  0.7324626821042841  0.5950487979326197  0.702482381262442  1.0000
  H   H4        1.0  0.7675624365626419  0.9049515340482369  0.20247562856337004  1.0000
  H   H5        1.0  0.18881660450637844  0.4191302485070878  0.43760255933069914  1.0000
  H   H6        1.0  0.311183914335956  0.08086984680987538  0.937605819008809  1.0000
  H   H7        1.0  0.8111910027793243  0.5808697398741102  0.5623954369509364  1.0000
  H   H8        1.0  0.6888359947803122  0.9191285200188444  0.06239161041168731  1.0000
  H   H9        1.0  0.727818082621063  0.05017854876003009  0.4646127457568384  1.0000
  H   H10       1.0  0.7721723385228997  0.4498249799076603  0.9646044309016307  1.0000
  H   H11       1.0  0.27219485424031126  0.9498238154101128  0.5353937533070977  1.0000
  H   H12       1.0  0.2278207864348829  0.5501790237003588  0.035392431680115514  1.0000
  H   H13       1.0  0.3537284805831361  0.07516028033455059  0.4162650383598106  1.0000
  H   H14       1.0  0.14626275789680673  0.4248400072280063  0.9162553564685327  1.0000
  H   H15       1.0  0.646283810508919  0.9248373083993326  0.5837408938612896  1.0000
  H   H16       1.0  0.8537354815035485  0.5751647803852008  0.0837426398124848  1.0000
  H   H17       1.0  0.457582986790058  0.14648098358929215  0.5015540401157496  1.0000
  H   H18       1.0  0.042394746813677386  0.3535210505940966  0.0015445091348170003  1.0000
  H   H19       1.0  0.5424199364361257  0.8535214043810694  0.4984507583991304  1.0000
  H   H20       1.0  0.9575957670981552  0.6464821630558857  0.9984523534509225  1.0000
  H   H21       1.0  0.6201813733266447  0.12164561116746593  0.2211188206459198  1.0000
  H   H22       1.0  0.8797787859108013  0.378351969391545  0.7211066160902604  1.0000
  H   H23       1.0  0.3797981580769303  0.8783504630780071  0.7788882453143986  1.0000
  H   H24       1.0  0.12020715171741608  0.6216544397875623  0.2788885459351107  1.0000
  H   H25       1.0  0.3731389403546217  0.08001818314102846  0.3005482477291538  1.0000
  H   H26       1.0  0.12684311091226164  0.4199782719992696  0.8005363537985914  1.0000
  H   H27       1.0  0.6268528928697775  0.9199762695497284  0.6994588182228229  1.0000
  H   H28       1.0  0.873168076146392  0.5800296695111412  0.19945824134735096  1.0000
  H   H29       1.0  0.7737408557863219  0.029289505173970595  0.2885017832392692  1.0000
  H   H30       1.0  0.7262286443532701  0.4707011465644512  0.7884957400497756  1.0000
  H   H31       1.0  0.22624325199824818  0.9707033735647457  0.7115013147534486  1.0000
  H   H32       1.0  0.2737717755736568  0.5293012473811273  0.21150225623387806  1.0000
  C   C1        1.0  0.745193635465533  0.1975309996579284  0.4051694226293777  1.0000
  C   C2        1.0  0.7547901336603716  0.30246426100323726  0.9051668187906474  1.0000
  C   C3        1.0  0.25481604462926544  0.8024657991290948  0.5948336753317278  1.0000
  C   C4        1.0  0.24521246675418237  0.697535739265767  0.09483344490683983  1.0000
  C   C5        1.0  0.7831973494820231  0.19090770838261042  0.3258712286583361  1.0000
  C   C6        1.0  0.7167821720197479  0.3090921755145075  0.8258641352169178  1.0000
  C   C7        1.0  0.2167950219110608  0.8090907238446975  0.6741347035797534  1.0000
  C   C8        1.0  0.2832215047321752  0.6909157838276127  0.17413386105279471  1.0000
  C   C9        1.0  0.11415136653423728  0.3459552891987059  0.3281752412614125  1.0000
  C   C10       1.0  0.3858516203700333  0.15403611889062316  0.8281729730586279  1.0000
  C   C11       1.0  0.885852768627835  0.6540375419641715  0.6718250224486653  1.0000
  C   C12       1.0  0.6141759066925446  0.8459630260150346  0.17182048838364494  1.0000
  C   C13       1.0  0.07199064008938191  0.35355978298102303  0.40567197901729923  1.0000
  C   C14       1.0  0.42801240289752934  0.14643259932933717  0.905674763320967  1.0000
  C   C15       1.0  0.9280213282689472  0.6464354180693946  0.5943248835640349  1.0000
  C   C16       1.0  0.5720072909785259  0.8535641756910194  0.09432153239725953  1.0000
  C   C17       1.0  0.5575845988896121  0.11355316112533126  0.4489047232434232  1.0000
  C   C18       1.0  0.9424013551231596  0.38645050341771275  0.9488946371924812  1.0000
  C   C19       1.0  0.4424205048241915  0.8864468331684561  0.551102342685283  1.0000
  C   C20       1.0  0.0575969919265091  0.6135550801063799  0.05110222538127831  1.0000
  C   C21       1.0  0.6276831182970284  0.10133177982435629  0.28149717896285864  1.0000
  C   C22       1.0  0.8722921675350149  0.398662894844854  0.7814877431921305  1.0000
  C   C23       1.0  0.37230599627105926  0.8986610870064167  0.7185087532891785  1.0000
  C   C24       1.0  0.12770617949517768  0.6013426886747694  0.21851025308722435  1.0000
  Br  Br1       1.0  0.9786783212221194  0.12979037807625818  0.6303929901680052  1.0000
  Br  Br2       1.0  0.5213128152808651  0.37021024075215775  0.13039306983674953  1.0000
  Br  Br3       1.0  0.02131916470117552  0.8702088381763744  0.36960897409419163  1.0000
  Br  Br4       1.0  0.4786674696387222  0.6297914048628427  0.8696077607312063  1.0000
  Br  Br5       1.0  0.375264299290606  0.40021322816800614  0.6008129462987244  1.0000
  Br  Br6       1.0  0.12470730532094622  0.0997864367426118  0.10081162349297303  1.0000
  Br  Br7       1.0  0.624710871157191  0.5997876334350918  0.399188451128346  1.0000
  Br  Br8       1.0  0.8752912570176221  0.9002207386010281  0.8991835385190896  1.0000
  N   N1        1.0  0.8885512305354624  0.2797275437480876  0.44478646948215333  1.0000
  N   N2        1.0  0.6114318232323512  0.22027217967497134  0.9447861563336916  1.0000
  N   N3        1.0  0.11144178675353086  0.7202756639445622  0.5552126605124315  1.0000
  N   N4        1.0  0.3885778569890377  0.7797246191411344  0.055209572541059515  1.0000
  N   N5        1.0  0.9698881391453112  0.26550334402506337  0.287504043245967  1.0000
  N   N6        1.0  0.5300962004779989  0.23448568807733483  0.7874998587483051  1.0000
  N   N7        1.0  0.0301053365343478  0.7344847354838747  0.7124984878945712  1.0000
  N   N8        1.0  0.4699170594481785  0.7655190638523236  0.212496436960329  1.0000
