data_image0
_chemical_formula_structural       Cd6H40C48N12O30
_chemical_formula_sum              "Cd6 H40 C48 N12 O30"
_cell_length_a       8.401947013825843
_cell_length_b       10.991650500508293
_cell_length_c       18.583
_cell_angle_alpha    78.72993404698558
_cell_angle_beta     80.9433873960331
_cell_angle_gamma    70.01608722716436

_space_group_name_H-M_alt    "P 1"
_space_group_IT_number       1

loop_
  _space_group_symop_operation_xyz
  'x, y, z'

loop_
  _atom_site_type_symbol
  _atom_site_label
  _atom_site_symmetry_multiplicity
  _atom_site_fract_x
  _atom_site_fract_y
  _atom_site_fract_z
  _atom_site_occupancy
  Cd  Cd1       1.0  0.553295243088236  0.7347919709708749  0.42297646730057187  1.0000
  Cd  Cd2       1.0  0.44670741990717033  0.2652039734189486  0.5770231124263744  1.0000
  Cd  Cd3       1.0  0.009941779673972827  0.6837772671729425  0.2654583313115211  1.0000
  Cd  Cd4       1.0  0.990056429606376  0.316223574941894  0.7345426136027058  1.0000
  Cd  Cd5       1.0  0.7439903032357974  0.7864012585861105  0.08713735095869171  1.0000
  Cd  Cd6       1.0  0.2560051076736158  0.2135976244387265  0.912862943328264  1.0000
  H   H1        1.0  0.7140850349120244  0.8910617240621762  0.2265462714790445  1.0000
  H   H2        1.0  0.2859143795938408  0.10893911805266751  0.7734529732804916  1.0000
  H   H3        1.0  0.8539639955421947  0.9498706674553433  0.17756832482463378  1.0000
  H   H4        1.0  0.1460382380675043  0.050129195114493506  0.8224329850366416  1.0000
  H   H5        1.0  0.10996895363068396  0.5157578717610535  0.40092235461573006  1.0000
  H   H6        1.0  0.8900296643024745  0.48424199080877633  0.5990781363209265  1.0000
  H   H7        1.0  0.94807037347821  0.49200586450890443  0.3775859229165945  1.0000
  H   H8        1.0  0.05193026698607639  0.5079920389709258  0.6224141124152069  1.0000
  H   H9        1.0  0.3456563828127841  0.6745754214072406  0.30125591498681803  1.0000
  H   H10       1.0  0.6543410298948513  0.3254244411625963  0.6987451998520413  1.0000
  H   H11       1.0  0.3039616907266521  0.7789381052021511  0.22617911277702518  1.0000
  H   H12       1.0  0.6960353133281814  0.22106273691268546  0.7738219179131604  1.0000
  H   H13       1.0  0.6823500825472165  0.9175623345949903  0.5089169400979401  1.0000
  H   H14       1.0  0.3176501492642601  0.0824365484298397  0.4910830110851876  1.0000
  H   H15       1.0  0.09494664433798755  0.9064905374170352  0.3431991307993272  1.0000
  H   H16       1.0  0.9050552013518072  0.093507366062795  0.6568029712614987  1.0000
  H   H17       1.0  0.8264650499127983  0.1069751303200448  0.4893218862614717  1.0000
  H   H18       1.0  0.1735347732458692  0.893024732249792  0.5106795951517142  1.0000
  H   H19       1.0  0.014311899035661201  0.0889652158801724  0.4257510636686135  1.0000
  H   H20       1.0  0.9856883120429102  0.9110366057796713  0.5742496255450219  1.0000
  H   H21       1.0  0.399724572466539  0.5281540137841533  0.16205802638650368  1.0000
  H   H22       1.0  0.6002704090571671  0.4718487874206971  0.837943459908537  1.0000
  H   H23       1.0  0.0959221097390497  0.5942155083854601  0.9877683809834323  1.0000
  H   H24       1.0  0.9040793065650446  0.40578631327438336  0.012233298706732428  1.0000
  H   H25       1.0  0.5114520046962453  0.370451186352291  0.05311395390314292  1.0000
  H   H26       1.0  0.48854941160784904  0.6295506353075524  0.9468877257870217  1.0000
  H   H27       1.0  0.3943328526947809  0.4266182968702097  0.9752057296685804  1.0000
  H   H28       1.0  0.605666561811084  0.573382545244634  0.024795129469687493  1.0000
  H   H29       1.0  0.2662525062333358  0.6421759908615385  0.8652011524573169  1.0000
  H   H30       1.0  0.7337485428837526  0.3578209330732847  0.13479573826569438  1.0000
  H   H31       1.0  0.34103977132703983  0.8460555493175549  0.812546470408499  1.0000
  H   H32       1.0  0.6589548015438638  0.1539482314322953  0.187453317359136  1.0000
  H   H33       1.0  0.414543725034541  0.8912017989977201  0.6755926233829541  1.0000
  H   H34       1.0  0.5854492339580517  0.1088029612971368  0.3244044753807387  1.0000
  H   H35       1.0  0.7857086259394208  0.8269661762834914  0.6450169282525023  1.0000
  H   H36       1.0  0.21429720261392046  0.17303662492135174  0.3549794810489573  1.0000
  H   H37       1.0  0.9528483975054841  0.6239251083507256  0.7205482974267525  1.0000
  H   H38       1.0  0.04716065880450058  0.376075733764111  0.2794491848726324  1.0000
  H   H39       1.0  0.9481866177916203  0.6177138134816289  0.8557303553133195  1.0000
  H   H40       1.0  0.051819231494626215  0.3822860490882078  0.1442685447151035  1.0000
  C   C1        1.0  0.7750278626167102  0.8921725280964807  0.461949259038235  1.0000
  C   C2        1.0  0.2249711639692507  0.10782635492834912  0.5380513160470954  1.0000
  C   C3        1.0  0.9833486935593926  0.8885266615923372  0.37518374710509755  1.0000
  C   C4        1.0  0.0166511295992748  0.11147320097749971  0.6248177343080954  1.0000
  C   C5        1.0  0.9449215567856585  0.03720507833435251  0.4686072993238639  1.0000
  C   C6        1.0  0.05507867502581826  0.9627938046904846  0.5313942662380029  1.0000
  C   C7        1.0  0.2915049947545328  0.5618591778199189  0.12978458916376917  1.0000
  C   C8        1.0  0.7084948284041419  0.4381406847499107  0.8702163541231727  1.0000
  C   C9        1.0  0.13709086062577566  0.5981082202305644  0.0394602528547949  1.0000
  C   C10       1.0  0.8629097591056052  0.40189262188427943  0.9605410586337585  1.0000
  C   C11       1.0  0.4427703436448027  0.4585798707992127  0.017120432117685887  1.0000
  C   C12       1.0  0.5572302760865782  0.541420971315624  0.9828803412446304  1.0000
  C   C13       1.0  0.39014581966976897  0.7140158214402632  0.6552760872350873  1.0000
  C   C14       1.0  0.6098568225927395  0.2859830615845667  0.34472476864861784  1.0000
  C   C15       1.0  0.34882780614935166  0.5992307788049162  0.6848670899914849  1.0000
  C   C16       1.0  0.6511659701488455  0.4007720223999272  0.3151317914482874  1.0000
  C   C17       1.0  0.3041417065419409  0.5747960286851139  0.7612971066312326  1.0000
  C   C18       1.0  0.6958476575070022  0.42520579297472955  0.2387022020610488  1.0000
  C   C19       1.0  0.30083865029752827  0.6644704351480399  0.8062659107772775  1.0000
  C   C20       1.0  0.6991615815139413  0.33552844787679703  0.19373188790087428  1.0000
  C   C21       1.0  0.3389162036160585  0.7790292028875072  0.7766685447058208  1.0000
  C   C22       1.0  0.6610836195426161  0.22097065968232954  0.22333078420238908  1.0000
  C   C23       1.0  0.3819925687663074  0.8036853301781691  0.7010200708729214  1.0000
  C   C24       1.0  0.6180112787217099  0.19631355284666802  0.2989796229823369  1.0000
  C   C25       1.0  0.4515010347745729  0.7407221364238836  0.5754216812042258  1.0000
  C   C26       1.0  0.5484943761348404  0.25927674660095335  0.4245780749564858  1.0000
  C   C27       1.0  0.36395867359181744  0.49683991910265496  0.638145813945215  1.0000
  C   C28       1.0  0.6360391477686348  0.503158963922175  0.3618521562848472  1.0000
  C   C29       1.0  0.2610582137739073  0.4528113302718353  0.7963840362260441  1.0000
  C   C30       1.0  0.738938402361022  0.5471875527530017  0.2036161722849599  1.0000
  C   C31       1.0  0.786620599273654  0.8168846991043779  0.854733889524553  1.0000
  C   C32       1.0  0.21338363613426745  0.1831161430104586  0.1452633977524229  1.0000
  C   C33       1.0  0.6912612561073602  0.9322907732721362  0.8125156998468838  1.0000
  C   C34       1.0  0.3087361566002826  0.0677090892977006  0.1874838006132435  1.0000
  C   C35       1.0  0.6940093228582426  0.9353440150489831  0.7361715544066386  1.0000
  C   C36       1.0  0.3059892743420178  0.0646587861558672  0.2638275220555499  1.0000
  C   C37       1.0  0.7905080005085381  0.8243801774734578  0.7035735477568535  1.0000
  C   C38       1.0  0.2094946210210722  0.17562164418638562  0.2964237411474001  1.0000
  C   C39       1.0  0.8820236082686324  0.7102083300104951  0.7459027126290038  1.0000
  C   C40       1.0  0.11797862534107399  0.2897915325593416  0.2540953684748004  1.0000
  C   C41       1.0  0.8789423728010846  0.706717231616949  0.821302511655773  1.0000
  C   C42       1.0  0.12106106603413024  0.2932826309528878  0.17869548367207946  1.0000
  C   C43       1.0  0.7879506936369579  0.8071010036064196  0.9362001558624158  1.0000
  C   C44       1.0  0.2120475363762893  0.1928968998734106  0.0638016654000353  1.0000
  C   C45       1.0  0.5755871563057867  0.04572809941241471  0.8501358833446986  1.0000
  C   C46       1.0  0.42441667044933246  0.9542737222474287  0.14986401041482367  1.0000
  C   C47       1.0  0.5898653982304225  0.05165924441043051  0.687787249566071  1.0000
  C   C48       1.0  0.4101352215009582  0.9483415977044132  0.31221352379623823  1.0000
  N   N1        1.0  0.7791415901082388  0.8075721647532461  0.4195886499803336  1.0000
  N   N2        1.0  0.22085864170323088  0.19242671827158386  0.5804129155815261  1.0000
  N   N3        1.0  0.910041941431537  0.8056924178909527  0.36445574932280067  1.0000
  N   N4        1.0  0.08995788172713759  0.1943074446788842  0.6355451939641412  1.0000
  N   N5        1.0  0.9013881134688974  0.9449024151960685  0.4355730383785215  1.0000
  N   N6        1.0  0.09861211834257941  0.055096467828768404  0.5644279890570941  1.0000
  N   N7        1.0  0.13622406597714595  0.6357805415317231  0.14982192543635617  1.0000
  N   N8        1.0  0.8637737346504012  0.3642212801281204  0.8501783972029529  1.0000
  N   N9        1.0  0.03899906397588637  0.6596765418994366  0.0926365013305528  1.0000
  N   N10       1.0  0.9609991453044628  0.34032430021539994  0.9073639054574302  1.0000
  N   N11       1.0  0.2967123470095458  0.5354986422226489  0.0606697595663448  1.0000
  N   N12       1.0  0.7032882727218351  0.4645021998921949  0.9393310137959715  1.0000
  O   O1        1.0  0.46960515302161804  0.850844544841138  0.5489694395684667  1.0000
  O   O2        1.0  0.5303918717661205  0.1491533586386922  0.45102923871247913  1.0000
  O   O3        1.0  0.48232801125796226  0.6478896768687079  0.5375121299713754  1.0000
  O   O4        1.0  0.5176710153279985  0.3521092061561291  0.462487368861467  1.0000
  O   O5        1.0  0.5019781774336352  0.39914303905860754  0.6413674932775776  1.0000
  O   O6        1.0  0.498018438701294  0.6008558439662224  0.35863379148591434  1.0000
  O   O7        1.0  0.24643015882047348  0.5038074227146936  0.6009989870920265  1.0000
  O   O8        1.0  0.7535676625399718  0.4961914603101434  0.3989995212642796  1.0000
  O   O9        1.0  0.19320398435822023  0.40339034619508857  0.7584006109131777  1.0000
  O   O10       1.0  0.806794245655027  0.5966075572847416  0.2416006722230293  1.0000
  O   O11       1.0  0.2974696615561498  0.4088552277712907  0.8626277962500809  1.0000
  O   O12       1.0  0.702533798011963  0.5911416961635325  0.13737107542598895  1.0000
  O   O13       1.0  0.7874356272616795  0.6972646223302733  0.975649390466856  1.0000
  O   O14       1.0  0.21256621842811535  0.3027332811495569  0.024353787846450804  1.0000
  O   O15       1.0  0.7903191166967432  0.9037096091512425  0.9629799451893248  1.0000
  O   O16       1.0  0.2096795219693135  0.0962873147835808  0.037021960221799995  1.0000
  O   O17       1.0  0.6038048081332548  0.1533330771699042  0.8414752851098939  1.0000
  O   O18       1.0  0.3961945856397121  0.8466707035799461  0.15852577393263792  1.0000
  O   O19       1.0  0.44538562836099527  0.022867478113724405  0.8885718859505473  1.0000
  O   O20       1.0  0.5546182191270218  0.9771314049111126  0.11142726977845999  1.0000
  O   O21       1.0  0.4403276767069215  0.1175081777459113  0.7105639182718164  1.0000
  O   O22       1.0  0.5596725551045553  0.8824907052789187  0.28943764729005034  1.0000
  O   O23       1.0  0.6579810860066573  0.0793960407380467  0.6224593084974259  1.0000
  O   O24       1.0  0.34202114760304164  0.9206038218317902  0.37754146323760546  1.0000
  O   O25       1.0  0.8290098434235985  0.8686654070952784  0.1963824805980181  1.0000
  O   O26       1.0  0.1709899797350687  0.1313344554745584  0.8036190008151749  1.0000
  O   O27       1.0  0.06359017166464302  0.5022763938737498  0.35942359225951037  1.0000
  O   O28       1.0  0.9364076289629041  0.4977254277860936  0.6405772685060427  1.0000
  O   O29       1.0  0.2518696847155013  0.7316975883038666  0.2711494449513765  1.0000
  O   O30       1.0  0.7481309557487776  0.26830031517596353  0.728850590380425  1.0000
